MODEL 1
REMARK VINA RESULT:      -8.8      0.000      0.000
REMARK  3 active torsions:
REMARK  status: ('A' for Active; 'I' for Inactive)
REMARK       I    between atoms: C1_2  and  N1_3 
REMARK    1  A    between atoms: C1_2  and  C16_21 
REMARK    2  A    between atoms: N1_3  and  C2_4 
REMARK    3  A    between atoms: N2_8  and  C6_9 
ROOT
HETATM    1  C2  UNL     1      23.303  -0.361  53.785  1.00  0.00     0.041 C 
HETATM    2  C3  UNL     1      22.479  -1.331  53.913  1.00  0.00    -0.002 C 
HETATM    3  C4  UNL     1      21.218  -1.203  54.208  1.00  0.00     0.007 C 
HETATM    4  C5  UNL     1      20.774   0.219  54.434  1.00  0.00     0.153 C 
HETATM    5  N2  UNL     1      21.331   0.959  53.292  1.00  0.00    -0.356 N 
HETATM    6  C15 UNL     1      22.800   0.952  53.251  1.00  0.00     0.182 C 
ENDROOT
BRANCH   5   7
HETATM    7  C6  UNL     1      20.447   1.586  52.372  1.00  0.00     0.138 C 
HETATM    8  C7  UNL     1      20.141   0.821  51.335  1.00  0.00     0.025 C 
HETATM    9  C8  UNL     1      18.843   0.666  51.138  1.00  0.00     0.031 C 
HETATM   10  C9  UNL     1      18.019   1.865  51.408  1.00  0.00     0.013 C 
HETATM   11  C10 UNL     1      16.605   1.720  51.237  1.00  0.00     0.017 A 
HETATM   12  C14 UNL     1      18.633   2.953  51.776  1.00  0.00     0.100 C 
HETATM   13  C11 UNL     1      16.176   1.593  49.940  1.00  0.00     0.020 A 
HETATM   14  S1  UNL     1      15.092   1.636  52.164  1.00  0.00    -0.101 SA
HETATM   15  C12 UNL     1      14.949   1.439  49.367  1.00  0.00     0.008 A 
HETATM   16  C13 UNL     1      14.004   1.430  50.605  1.00  0.00     0.050 A 
HETATM   17  N3  UNL     1      19.791   2.869  52.292  1.00  0.00    -0.227 NA
ENDBRANCH   5   7
BRANCH   1  18
HETATM   18  N1  UNL     1      24.675  -0.490  54.130  1.00  0.00    -0.324 N 
HETATM   19  C1  UNL     1      25.659  -0.163  53.160  1.00  0.00     0.256 C 
HETATM   20  O1  UNL     1      25.271   0.225  52.045  1.00  0.00    -0.267 OA
HETATM   21  H1  UNL     1      24.969  -0.818  55.076  1.00  0.00     0.169 HD
BRANCH  19  22
HETATM   22  C16 UNL     1      27.092  -0.259  53.406  1.00  0.00     0.032 A 
HETATM   23  C17 UNL     1      27.716  -1.424  53.010  1.00  0.00     0.017 A 
HETATM   24  C18 UNL     1      29.089  -1.589  53.213  1.00  0.00     0.001 A 
HETATM   25  C19 UNL     1      29.859  -0.615  53.806  1.00  0.00     0.000 A 
HETATM   26  C20 UNL     1      29.180   0.536  54.185  1.00  0.00     0.001 A 
HETATM   27  C21 UNL     1      27.830   0.740  54.004  1.00  0.00     0.017 A 
ENDBRANCH  19  22
ENDBRANCH   1  18
TORSDOF 3
ENDMDL
MODEL 2
REMARK VINA RESULT:      -8.7      1.996      2.687
REMARK  3 active torsions:
REMARK  status: ('A' for Active; 'I' for Inactive)
REMARK       I    between atoms: C1_2  and  N1_3 
REMARK    1  A    between atoms: C1_2  and  C16_21 
REMARK    2  A    between atoms: N1_3  and  C2_4 
REMARK    3  A    between atoms: N2_8  and  C6_9 
ROOT
HETATM    1  C2  UNL     1      24.164   2.119  52.950  1.00  0.00     0.041 C 
HETATM    2  C3  UNL     1      24.104   3.376  53.178  1.00  0.00    -0.002 C 
HETATM    3  C4  UNL     1      23.569   4.253  52.379  1.00  0.00     0.007 C 
HETATM    4  C5  UNL     1      23.032   3.678  51.095  1.00  0.00     0.153 C 
HETATM    5  N2  UNL     1      22.247   2.510  51.520  1.00  0.00    -0.356 N 
HETATM    6  C15 UNL     1      23.052   1.469  52.172  1.00  0.00     0.182 C 
ENDROOT
BRANCH   5   7
HETATM    7  C6  UNL     1      20.846   2.489  51.278  1.00  0.00     0.138 C 
HETATM    8  C7  UNL     1      20.515   1.841  50.171  1.00  0.00     0.025 C 
HETATM    9  C8  UNL     1      19.619   0.884  50.348  1.00  0.00     0.031 C 
HETATM   10  C9  UNL     1      18.564   1.189  51.340  1.00  0.00     0.013 C 
HETATM   11  C10 UNL     1      17.599   0.159  51.580  1.00  0.00     0.017 A 
HETATM   12  C14 UNL     1      18.589   2.357  51.914  1.00  0.00     0.100 C 
HETATM   13  C11 UNL     1      16.712  -0.071  50.558  1.00  0.00     0.020 A 
HETATM   14  S1  UNL     1      17.094  -1.017  52.811  1.00  0.00    -0.101 SA
HETATM   15  C12 UNL     1      15.673  -0.936  50.392  1.00  0.00     0.008 A 
HETATM   16  C13 UNL     1      15.672  -1.715  51.741  1.00  0.00     0.050 A 
HETATM   17  N3  UNL     1      19.680   3.007  51.953  1.00  0.00    -0.227 NA
ENDBRANCH   5   7
BRANCH   1  18
HETATM   18  N1  UNL     1      25.247   1.323  53.410  1.00  0.00    -0.324 N 
HETATM   19  C1  UNL     1      26.357   1.113  52.549  1.00  0.00     0.256 C 
HETATM   20  O1  UNL     1      26.329   1.640  51.425  1.00  0.00    -0.267 OA
HETATM   21  H1  UNL     1      25.240   0.893  54.360  1.00  0.00     0.169 HD
BRANCH  19  22
HETATM   22  C16 UNL     1      27.519   0.314  52.918  1.00  0.00     0.032 A 
HETATM   23  C17 UNL     1      28.630   1.000  53.364  1.00  0.00     0.017 A 
HETATM   24  C18 UNL     1      29.781   0.301  53.736  1.00  0.00     0.001 A 
HETATM   25  C19 UNL     1      29.852  -1.072  53.675  1.00  0.00     0.000 A 
HETATM   26  C20 UNL     1      28.706  -1.710  53.219  1.00  0.00     0.001 A 
HETATM   27  C21 UNL     1      27.551  -1.061  52.842  1.00  0.00     0.017 A 
ENDBRANCH  19  22
ENDBRANCH   1  18
TORSDOF 3
ENDMDL
MODEL 3
REMARK VINA RESULT:      -8.6      7.136     10.185
REMARK  3 active torsions:
REMARK  status: ('A' for Active; 'I' for Inactive)
REMARK       I    between atoms: C1_2  and  N1_3 
REMARK    1  A    between atoms: C1_2  and  C16_21 
REMARK    2  A    between atoms: N1_3  and  C2_4 
REMARK    3  A    between atoms: N2_8  and  C6_9 
ROOT
HETATM    1  C2  UNL     1      23.868   3.881  51.204  1.00  0.00     0.041 C 
HETATM    2  C3  UNL     1      23.060   4.602  50.523  1.00  0.00    -0.002 C 
HETATM    3  C4  UNL     1      23.331   5.784  50.053  1.00  0.00     0.007 C 
HETATM    4  C5  UNL     1      24.705   6.292  50.404  1.00  0.00     0.153 C 
HETATM    5  N2  UNL     1      25.598   5.166  50.096  1.00  0.00    -0.356 N 
HETATM    6  C15 UNL     1      25.342   3.973  50.915  1.00  0.00     0.182 C 
ENDROOT
BRANCH   5   7
HETATM    7  C6  UNL     1      26.584   5.318  49.082  1.00  0.00     0.138 C 
HETATM    8  C7  UNL     1      26.387   6.379  48.315  1.00  0.00     0.025 C 
HETATM    9  C8  UNL     1      27.427   7.192  48.232  1.00  0.00     0.031 C 
HETATM   10  C9  UNL     1      28.746   6.522  48.200  1.00  0.00     0.013 C 
HETATM   11  C10 UNL     1      29.894   7.376  48.146  1.00  0.00     0.017 A 
HETATM   12  C14 UNL     1      28.766   5.220  48.220  1.00  0.00     0.100 C 
HETATM   13  C11 UNL     1      30.086   8.034  46.957  1.00  0.00     0.020 A 
HETATM   14  S1  UNL     1      31.261   7.935  49.132  1.00  0.00    -0.101 SA
HETATM   15  C12 UNL     1      31.029   8.911  46.511  1.00  0.00     0.008 A 
HETATM   16  C13 UNL     1      31.965   9.049  47.747  1.00  0.00     0.050 A 
HETATM   17  N3  UNL     1      27.764   4.590  48.682  1.00  0.00    -0.227 NA
ENDBRANCH   5   7
BRANCH   1  18
HETATM   18  N1  UNL     1      23.415   2.999  52.221  1.00  0.00    -0.324 N 
HETATM   19  C1  UNL     1      22.965   1.703  51.852  1.00  0.00     0.256 C 
HETATM   20  O1  UNL     1      22.990   1.398  50.648  1.00  0.00    -0.267 OA
HETATM   21  H1  UNL     1      23.406   3.284  53.224  1.00  0.00     0.169 HD
BRANCH  19  22
HETATM   22  C16 UNL     1      22.479   0.719  52.812  1.00  0.00     0.032 A 
HETATM   23  C17 UNL     1      21.113   0.648  52.994  1.00  0.00     0.017 A 
HETATM   24  C18 UNL     1      20.574  -0.271  53.898  1.00  0.00     0.001 A 
HETATM   25  C19 UNL     1      21.366  -1.126  54.627  1.00  0.00     0.000 A 
HETATM   26  C20 UNL     1      22.732  -1.012  54.405  1.00  0.00     0.001 A 
HETATM   27  C21 UNL     1      23.307  -0.121  53.525  1.00  0.00     0.017 A 
ENDBRANCH  19  22
ENDBRANCH   1  18
TORSDOF 3
ENDMDL
MODEL 4
REMARK VINA RESULT:      -8.5      6.762      9.438
REMARK  3 active torsions:
REMARK  status: ('A' for Active; 'I' for Inactive)
REMARK       I    between atoms: C1_2  and  N1_3 
REMARK    1  A    between atoms: C1_2  and  C16_21 
REMARK    2  A    between atoms: N1_3  and  C2_4 
REMARK    3  A    between atoms: N2_8  and  C6_9 
ROOT
HETATM    1  C2  UNL     1      23.103   3.083  50.440  1.00  0.00     0.041 C 
HETATM    2  C3  UNL     1      23.070   2.963  49.167  1.00  0.00    -0.002 C 
HETATM    3  C4  UNL     1      23.163   3.948  48.323  1.00  0.00     0.007 C 
HETATM    4  C5  UNL     1      23.280   5.306  48.964  1.00  0.00     0.153 C 
HETATM    5  N2  UNL     1      24.315   5.134  49.994  1.00  0.00    -0.356 N 
HETATM    6  C15 UNL     1      23.942   4.177  51.044  1.00  0.00     0.182 C 
ENDROOT
BRANCH   5   7
HETATM    7  C6  UNL     1      25.527   5.870  49.892  1.00  0.00     0.138 C 
HETATM    8  C7  UNL     1      26.555   5.135  49.498  1.00  0.00     0.025 C 
HETATM    9  C8  UNL     1      27.192   5.612  48.441  1.00  0.00     0.031 C 
HETATM   10  C9  UNL     1      27.309   7.086  48.392  1.00  0.00     0.013 C 
HETATM   11  C10 UNL     1      27.963   7.636  47.244  1.00  0.00     0.017 A 
HETATM   12  C14 UNL     1      26.814   7.768  49.385  1.00  0.00     0.100 C 
HETATM   13  C11 UNL     1      29.318   7.426  47.177  1.00  0.00     0.020 A 
HETATM   14  S1  UNL     1      27.634   8.559  45.763  1.00  0.00    -0.101 SA
HETATM   15  C12 UNL     1      30.280   7.775  46.277  1.00  0.00     0.008 A 
HETATM   16  C13 UNL     1      29.463   8.550  45.203  1.00  0.00     0.050 A 
HETATM   17  N3  UNL     1      25.915   7.243  50.113  1.00  0.00    -0.227 NA
ENDBRANCH   5   7
BRANCH   1  18
HETATM   18  N1  UNL     1      22.372   2.216  51.296  1.00  0.00    -0.324 N 
HETATM   19  C1  UNL     1      23.070   1.194  51.993  1.00  0.00     0.256 C 
HETATM   20  O1  UNL     1      24.296   1.105  51.820  1.00  0.00    -0.267 OA
HETATM   21  H1  UNL     1      21.341   2.317  51.421  1.00  0.00     0.169 HD
BRANCH  19  22
HETATM   22  C16 UNL     1      22.420   0.250  52.894  1.00  0.00     0.032 A 
HETATM   23  C17 UNL     1      21.056   0.097  52.758  1.00  0.00     0.017 A 
HETATM   24  C18 UNL     1      20.364  -0.790  53.587  1.00  0.00     0.001 A 
HETATM   25  C19 UNL     1      21.004  -1.533  54.553  1.00  0.00     0.000 A 
HETATM   26  C20 UNL     1      22.376  -1.340  54.646  1.00  0.00     0.001 A 
HETATM   27  C21 UNL     1      23.096  -0.476  53.850  1.00  0.00     0.017 A 
ENDBRANCH  19  22
ENDBRANCH   1  18
TORSDOF 3
ENDMDL
MODEL 5
REMARK VINA RESULT:      -8.3      1.776      2.257
REMARK  3 active torsions:
REMARK  status: ('A' for Active; 'I' for Inactive)
REMARK       I    between atoms: C1_2  and  N1_3 
REMARK    1  A    between atoms: C1_2  and  C16_21 
REMARK    2  A    between atoms: N1_3  and  C2_4 
REMARK    3  A    between atoms: N2_8  and  C6_9 
ROOT
HETATM    1  C2  UNL     1      23.766   1.288  52.621  1.00  0.00     0.041 C 
HETATM    2  C3  UNL     1      23.454   2.510  52.834  1.00  0.00    -0.002 C 
HETATM    3  C4  UNL     1      22.818   3.273  51.994  1.00  0.00     0.007 C 
HETATM    4  C5  UNL     1      22.487   2.613  50.682  1.00  0.00     0.153 C 
HETATM    5  N2  UNL     1      21.909   1.316  51.064  1.00  0.00    -0.356 N 
HETATM    6  C15 UNL     1      22.852   0.442  51.776  1.00  0.00     0.182 C 
ENDROOT
BRANCH   5   7
HETATM    7  C6  UNL     1      20.557   1.031  50.729  1.00  0.00     0.138 C 
HETATM    8  C7  UNL     1      19.949   0.259  51.617  1.00  0.00     0.025 C 
HETATM    9  C8  UNL     1      18.817   0.757  52.086  1.00  0.00     0.031 C 
HETATM   10  C9  UNL     1      17.997   1.491  51.096  1.00  0.00     0.013 C 
HETATM   11  C10 UNL     1      16.781   2.072  51.581  1.00  0.00     0.017 A 
HETATM   12  C14 UNL     1      18.434   1.552  49.871  1.00  0.00     0.100 C 
HETATM   13  C11 UNL     1      15.785   1.183  51.898  1.00  0.00     0.020 A 
HETATM   14  S1  UNL     1      16.039   3.643  51.949  1.00  0.00    -0.101 SA
HETATM   15  C12 UNL     1      14.517   1.324  52.376  1.00  0.00     0.008 A 
HETATM   16  C13 UNL     1      14.385   2.869  52.516  1.00  0.00     0.050 A 
HETATM   17  N3  UNL     1      19.673   1.384  49.645  1.00  0.00    -0.227 NA
ENDBRANCH   5   7
BRANCH   1  18
HETATM   18  N1  UNL     1      24.947   0.709  53.158  1.00  0.00    -0.324 N 
HETATM   19  C1  UNL     1      26.159   0.821  52.426  1.00  0.00     0.256 C 
HETATM   20  O1  UNL     1      26.131   1.426  51.342  1.00  0.00    -0.267 OA
HETATM   21  H1  UNL     1      24.939   0.207  54.073  1.00  0.00     0.169 HD
BRANCH  19  22
HETATM   22  C16 UNL     1      27.427   0.265  52.883  1.00  0.00     0.032 A 
HETATM   23  C17 UNL     1      27.564  -1.106  52.820  1.00  0.00     0.017 A 
HETATM   24  C18 UNL     1      28.751  -1.712  53.240  1.00  0.00     0.001 A 
HETATM   25  C19 UNL     1      29.810  -0.980  53.724  1.00  0.00     0.000 A 
HETATM   26  C20 UNL     1      29.618   0.395  53.767  1.00  0.00     0.001 A 
HETATM   27  C21 UNL     1      28.465   1.033  53.363  1.00  0.00     0.017 A 
ENDBRANCH  19  22
ENDBRANCH   1  18
TORSDOF 3
ENDMDL
MODEL 6
REMARK VINA RESULT:      -8.3      2.562      3.202
REMARK  3 active torsions:
REMARK  status: ('A' for Active; 'I' for Inactive)
REMARK       I    between atoms: C1_2  and  N1_3 
REMARK    1  A    between atoms: C1_2  and  C16_21 
REMARK    2  A    between atoms: N1_3  and  C2_4 
REMARK    3  A    between atoms: N2_8  and  C6_9 
ROOT
HETATM    1  C2  UNL     1      23.372  -0.142  53.476  1.00  0.00     0.041 C 
HETATM    2  C3  UNL     1      22.554  -1.119  53.366  1.00  0.00    -0.002 C 
HETATM    3  C4  UNL     1      21.285  -1.064  53.649  1.00  0.00     0.007 C 
HETATM    4  C5  UNL     1      20.823   0.271  54.171  1.00  0.00     0.153 C 
HETATM    5  N2  UNL     1      21.401   1.248  53.236  1.00  0.00    -0.356 N 
HETATM    6  C15 UNL     1      22.870   1.255  53.232  1.00  0.00     0.182 C 
ENDROOT
BRANCH   5   7
HETATM    7  C6  UNL     1      20.533   2.059  52.454  1.00  0.00     0.138 C 
HETATM    8  C7  UNL     1      20.883   3.336  52.439  1.00  0.00     0.025 C 
HETATM    9  C8  UNL     1      21.031   3.846  51.227  1.00  0.00     0.031 C 
HETATM   10  C9  UNL     1      20.063   3.358  50.219  1.00  0.00     0.013 C 
HETATM   11  C10 UNL     1      20.219   3.864  48.889  1.00  0.00     0.017 A 
HETATM   12  C14 UNL     1      19.151   2.515  50.611  1.00  0.00     0.100 C 
HETATM   13  C11 UNL     1      19.887   5.184  48.716  1.00  0.00     0.020 A 
HETATM   14  S1  UNL     1      20.723   3.367  47.260  1.00  0.00    -0.101 SA
HETATM   15  C12 UNL     1      19.893   6.021  47.640  1.00  0.00     0.008 A 
HETATM   16  C13 UNL     1      20.408   5.094  46.501  1.00  0.00     0.050 A 
HETATM   17  N3  UNL     1      19.351   1.827  51.660  1.00  0.00    -0.227 NA
ENDBRANCH   5   7
BRANCH   1  18
HETATM   18  N1  UNL     1      24.736  -0.339  53.819  1.00  0.00    -0.324 N 
HETATM   19  C1  UNL     1      25.739   0.052  52.892  1.00  0.00     0.256 C 
HETATM   20  O1  UNL     1      25.374   0.552  51.816  1.00  0.00    -0.267 OA
HETATM   21  H1  UNL     1      25.011  -0.762  54.732  1.00  0.00     0.169 HD
BRANCH  19  22
HETATM   22  C16 UNL     1      27.166  -0.105  53.141  1.00  0.00     0.032 A 
HETATM   23  C17 UNL     1      27.687  -1.375  53.005  1.00  0.00     0.017 A 
HETATM   24  C18 UNL     1      29.048  -1.603  53.227  1.00  0.00     0.001 A 
HETATM   25  C19 UNL     1      29.906  -0.589  53.584  1.00  0.00     0.000 A 
HETATM   26  C20 UNL     1      29.330   0.668  53.707  1.00  0.00     0.001 A 
HETATM   27  C21 UNL     1      27.995   0.937  53.498  1.00  0.00     0.017 A 
ENDBRANCH  19  22
ENDBRANCH   1  18
TORSDOF 3
ENDMDL
MODEL 7
REMARK VINA RESULT:      -8.2      4.032      5.136
REMARK  3 active torsions:
REMARK  status: ('A' for Active; 'I' for Inactive)
REMARK       I    between atoms: C1_2  and  N1_3 
REMARK    1  A    between atoms: C1_2  and  C16_21 
REMARK    2  A    between atoms: N1_3  and  C2_4 
REMARK    3  A    between atoms: N2_8  and  C6_9 
ROOT
HETATM    1  C2  UNL     1      23.673   0.960  52.494  1.00  0.00     0.041 C 
HETATM    2  C3  UNL     1      22.817   0.337  51.776  1.00  0.00    -0.002 C 
HETATM    3  C4  UNL     1      21.538   0.576  51.767  1.00  0.00     0.007 C 
HETATM    4  C5  UNL     1      21.101   1.657  52.720  1.00  0.00     0.153 C 
HETATM    5  N2  UNL     1      22.046   2.757  52.480  1.00  0.00    -0.356 N 
HETATM    6  C15 UNL     1      23.438   2.414  52.804  1.00  0.00     0.182 C 
ENDROOT
BRANCH   5   7
HETATM    7  C6  UNL     1      21.559   3.996  51.981  1.00  0.00     0.138 C 
HETATM    8  C7  UNL     1      22.296   5.034  52.346  1.00  0.00     0.025 C 
HETATM    9  C8  UNL     1      22.712   5.787  51.340  1.00  0.00     0.031 C 
HETATM   10  C9  UNL     1      21.739   5.953  50.237  1.00  0.00     0.013 C 
HETATM   11  C10 UNL     1      22.172   6.734  49.118  1.00  0.00     0.017 A 
HETATM   12  C14 UNL     1      20.574   5.386  50.364  1.00  0.00     0.100 C 
HETATM   13  C11 UNL     1      22.295   8.081  49.348  1.00  0.00     0.020 A 
HETATM   14  S1  UNL     1      22.644   6.581  47.413  1.00  0.00    -0.101 SA
HETATM   15  C12 UNL     1      22.667   9.137  48.572  1.00  0.00     0.008 A 
HETATM   16  C13 UNL     1      22.967   8.454  47.205  1.00  0.00     0.050 A 
HETATM   17  N3  UNL     1      20.445   4.403  51.159  1.00  0.00    -0.227 NA
ENDBRANCH   5   7
BRANCH   1  18
HETATM   18  N1  UNL     1      24.835   0.322  53.002  1.00  0.00    -0.324 N 
HETATM   19  C1  UNL     1      26.087   0.586  52.386  1.00  0.00     0.256 C 
HETATM   20  O1  UNL     1      26.108   1.371  51.423  1.00  0.00    -0.267 OA
HETATM   21  H1  UNL     1      24.786  -0.333  53.813  1.00  0.00     0.169 HD
BRANCH  19  22
HETATM   22  C16 UNL     1      27.341  -0.014  52.825  1.00  0.00     0.032 A 
HETATM   23  C17 UNL     1      28.319   0.847  53.278  1.00  0.00     0.017 A 
HETATM   24  C18 UNL     1      29.547   0.344  53.715  1.00  0.00     0.001 A 
HETATM   25  C19 UNL     1      29.825  -1.004  53.713  1.00  0.00     0.000 A 
HETATM   26  C20 UNL     1      28.806  -1.824  53.247  1.00  0.00     0.001 A 
HETATM   27  C21 UNL     1      27.581  -1.371  52.806  1.00  0.00     0.017 A 
ENDBRANCH  19  22
ENDBRANCH   1  18
TORSDOF 3
ENDMDL
MODEL 8
REMARK VINA RESULT:      -8.2      7.339      8.646
REMARK  3 active torsions:
REMARK  status: ('A' for Active; 'I' for Inactive)
REMARK       I    between atoms: C1_2  and  N1_3 
REMARK    1  A    between atoms: C1_2  and  C16_21 
REMARK    2  A    between atoms: N1_3  and  C2_4 
REMARK    3  A    between atoms: N2_8  and  C6_9 
ROOT
HETATM    1  C2  UNL     1      25.652   7.191  50.255  1.00  0.00     0.041 C 
HETATM    2  C3  UNL     1      24.488   7.567  50.631  1.00  0.00    -0.002 C 
HETATM    3  C4  UNL     1      23.369   7.165  50.104  1.00  0.00     0.007 C 
HETATM    4  C5  UNL     1      23.534   6.212  48.949  1.00  0.00     0.153 C 
HETATM    5  N2  UNL     1      24.506   5.221  49.431  1.00  0.00    -0.356 N 
HETATM    6  C15 UNL     1      25.827   5.792  49.728  1.00  0.00     0.182 C 
ENDROOT
BRANCH   5   7
HETATM    7  C6  UNL     1      24.107   3.862  49.563  1.00  0.00     0.138 C 
HETATM    8  C7  UNL     1      24.823   3.189  50.450  1.00  0.00     0.025 C 
HETATM    9  C8  UNL     1      24.106   2.583  51.382  1.00  0.00     0.031 C 
HETATM   10  C9  UNL     1      22.826   2.008  50.913  1.00  0.00     0.013 C 
HETATM   11  C10 UNL     1      22.010   1.375  51.905  1.00  0.00     0.017 A 
HETATM   12  C14 UNL     1      22.539   2.116  49.647  1.00  0.00     0.100 C 
HETATM   13  C11 UNL     1      22.485   0.183  52.390  1.00  0.00     0.020 A 
HETATM   14  S1  UNL     1      20.494   1.590  52.804  1.00  0.00    -0.101 SA
HETATM   15  C12 UNL     1      22.024  -0.708  53.312  1.00  0.00     0.008 A 
HETATM   16  C13 UNL     1      20.695  -0.044  53.777  1.00  0.00     0.050 A 
HETATM   17  N3  UNL     1      23.095   3.028  48.960  1.00  0.00    -0.227 NA
ENDBRANCH   5   7
BRANCH   1  18
HETATM   18  N1  UNL     1      26.779   8.052  50.323  1.00  0.00    -0.324 N 
HETATM   19  C1  UNL     1      27.122   8.823  49.181  1.00  0.00     0.256 C 
HETATM   20  O1  UNL     1      26.415   8.707  48.167  1.00  0.00    -0.267 OA
HETATM   21  H1  UNL     1      27.354   8.128  51.190  1.00  0.00     0.169 HD
BRANCH  19  22
HETATM   22  C16 UNL     1      28.257   9.736  49.140  1.00  0.00     0.032 A 
HETATM   23  C17 UNL     1      29.500   9.199  49.406  1.00  0.00     0.017 A 
HETATM   24  C18 UNL     1      30.635  10.013  49.385  1.00  0.00     0.001 A 
HETATM   25  C19 UNL     1      30.561  11.358  49.105  1.00  0.00     0.000 A 
HETATM   26  C20 UNL     1      29.287  11.846  48.846  1.00  0.00     0.001 A 
HETATM   27  C21 UNL     1      28.142  11.080  48.855  1.00  0.00     0.017 A 
ENDBRANCH  19  22
ENDBRANCH   1  18
TORSDOF 3
ENDMDL
MODEL 9
REMARK VINA RESULT:      -8.2      5.056      6.102
REMARK  3 active torsions:
REMARK  status: ('A' for Active; 'I' for Inactive)
REMARK       I    between atoms: C1_2  and  N1_3 
REMARK    1  A    between atoms: C1_2  and  C16_21 
REMARK    2  A    between atoms: N1_3  and  C2_4 
REMARK    3  A    between atoms: N2_8  and  C6_9 
ROOT
HETATM    1  C2  UNL     1      24.698   3.578  50.623  1.00  0.00     0.041 C 
HETATM    2  C3  UNL     1      24.516   3.347  49.378  1.00  0.00    -0.002 C 
HETATM    3  C4  UNL     1      23.362   3.117  48.824  1.00  0.00     0.007 C 
HETATM    4  C5  UNL     1      22.203   3.102  49.786  1.00  0.00     0.153 C 
HETATM    5  N2  UNL     1      22.389   4.314  50.597  1.00  0.00    -0.356 N 
HETATM    6  C15 UNL     1      23.626   4.303  51.390  1.00  0.00     0.182 C 
ENDROOT
BRANCH   5   7
HETATM    7  C6  UNL     1      21.407   5.341  50.548  1.00  0.00     0.138 C 
HETATM    8  C7  UNL     1      21.727   6.407  51.266  1.00  0.00     0.025 C 
HETATM    9  C8  UNL     1      21.697   7.546  50.592  1.00  0.00     0.031 C 
HETATM   10  C9  UNL     1      20.608   7.656  49.596  1.00  0.00     0.013 C 
HETATM   11  C10 UNL     1      20.568   8.862  48.826  1.00  0.00     0.017 A 
HETATM   12  C14 UNL     1      19.775   6.660  49.494  1.00  0.00     0.100 C 
HETATM   13  C11 UNL     1      20.192   9.990  49.511  1.00  0.00     0.020 A 
HETATM   14  S1  UNL     1      20.852   9.475  47.183  1.00  0.00    -0.101 SA
HETATM   15  C12 UNL     1      20.033  11.296  49.157  1.00  0.00     0.008 A 
HETATM   16  C13 UNL     1      20.403  11.276  47.645  1.00  0.00     0.050 A 
HETATM   17  N3  UNL     1      20.130   5.509  49.896  1.00  0.00    -0.227 NA
ENDBRANCH   5   7
BRANCH   1  18
HETATM   18  N1  UNL     1      25.879   3.171  51.298  1.00  0.00    -0.324 N 
HETATM   19  C1  UNL     1      25.905   1.898  51.927  1.00  0.00     0.256 C 
HETATM   20  O1  UNL     1      24.885   1.194  51.857  1.00  0.00    -0.267 OA
HETATM   21  H1  UNL     1      26.721   3.786  51.339  1.00  0.00     0.169 HD
BRANCH  19  22
HETATM   22  C16 UNL     1      27.063   1.382  52.647  1.00  0.00     0.032 A 
HETATM   23  C17 UNL     1      27.280   0.021  52.584  1.00  0.00     0.017 A 
HETATM   24  C18 UNL     1      28.370  -0.546  53.249  1.00  0.00     0.001 A 
HETATM   25  C19 UNL     1      29.254   0.215  53.978  1.00  0.00     0.000 A 
HETATM   26  C20 UNL     1      28.989   1.577  54.008  1.00  0.00     0.001 A 
HETATM   27  C21 UNL     1      27.927   2.178  53.368  1.00  0.00     0.017 A 
ENDBRANCH  19  22
ENDBRANCH   1  18
TORSDOF 3
ENDMDL
