MODEL 1
REMARK VINA RESULT:      -8.8      0.000      0.000
REMARK  2 active torsions:
REMARK  status: ('A' for Active; 'I' for Inactive)
REMARK    1  A    between atoms: C2_2  and  C3_3 
REMARK    2  A    between atoms: C3_3  and  C4_4 
ROOT
HETATM    1  C4  UNL     1      24.027   0.710  53.482  1.00  0.00     0.225 C 
HETATM    2  C5  UNL     1      24.456   1.146  51.864  1.00  0.00     0.053 C 
HETATM    3  C6  UNL     1      23.292   1.655  51.190  1.00  0.00    -0.047 C 
HETATM    4  C7  UNL     1      23.529   2.931  50.779  1.00  0.00     0.138 C 
HETATM    5  O1  UNL     1      23.242   4.170  50.169  1.00  0.00    -0.361 OA
HETATM    6  C8  UNL     1      23.829   4.486  48.900  1.00  0.00     0.201 C 
HETATM    7  C9  UNL     1      22.724   4.855  47.911  1.00  0.00     0.201 C 
HETATM    8  O2  UNL     1      21.857   3.703  47.848  1.00  0.00    -0.361 OA
HETATM    9  C10 UNL     1      22.329   2.560  47.246  1.00  0.00     0.130 C 
HETATM   10  C11 UNL     1      21.937   1.874  48.303  1.00  0.00    -0.002 C 
HETATM   11  C12 UNL     1      21.308   1.927  49.614  1.00  0.00     0.044 C 
HETATM   12  C13 UNL     1      21.975   1.207  50.733  1.00  0.00     0.069 C 
HETATM   13  C14 UNL     1      21.053   0.943  51.850  1.00  0.00     0.043 C 
HETATM   14  N1  UNL     1      20.207  -0.046  51.772  1.00  0.00    -0.187 NA
HETATM   15  N2  UNL     1      19.094   0.097  52.584  1.00  0.00    -0.308 N 
HETATM   16  C15 UNL     1      20.028   0.238  53.747  1.00  0.00     0.119 C 
HETATM   17  C16 UNL     1      20.959  -0.941  53.757  1.00  0.00     0.068 A 
HETATM   18  C17 UNL     1      21.859  -1.979  53.762  1.00  0.00    -0.005 A 
HETATM   19  C18 UNL     1      22.585  -1.051  53.676  1.00  0.00    -0.033 A 
HETATM   20  P1  UNL     1      23.365  -0.089  53.582  1.00  0.00    -0.006 P 
HETATM   21 CL1  UNL     1      25.406   2.486  53.396  1.00  0.00    -0.230 Cl
HETATM   22  C19 UNL     1      20.701   1.503  53.199  1.00  0.00     0.085 C 
HETATM   23  H19 UNL     1      18.067   0.149  52.756  1.00  0.00     0.182 HD
ENDROOT
BRANCH   1  24
HETATM   24  C3  UNL     1      25.693   0.353  53.799  1.00  0.00    -0.018 C 
BRANCH  24  25
HETATM   25  C2  UNL     1      26.390  -0.762  53.390  1.00  0.00    -0.034 C 
HETATM   26  C1  UNL     1      26.975  -1.826  52.618  1.00  0.00     0.036 C 
ENDBRANCH  24  25
ENDBRANCH   1  24
TORSDOF 2
ENDMDL
MODEL 2
REMARK VINA RESULT:      -8.8      3.147      5.844
REMARK  2 active torsions:
REMARK  status: ('A' for Active; 'I' for Inactive)
REMARK    1  A    between atoms: C2_2  and  C3_3 
REMARK    2  A    between atoms: C3_3  and  C4_4 
ROOT
HETATM    1  C4  UNL     1      21.228   0.411  52.967  1.00  0.00     0.225 C 
HETATM    2  C5  UNL     1      22.640  -0.548  53.254  1.00  0.00     0.053 C 
HETATM    3  C6  UNL     1      23.809   0.246  52.988  1.00  0.00    -0.047 C 
HETATM    4  C7  UNL     1      24.570   0.323  54.115  1.00  0.00     0.138 C 
HETATM    5  O1  UNL     1      25.664   0.710  54.915  1.00  0.00    -0.361 OA
HETATM    6  C8  UNL     1      26.676  -0.251  55.241  1.00  0.00     0.201 C 
HETATM    7  C9  UNL     1      28.043   0.294  54.828  1.00  0.00     0.201 C 
HETATM    8  O2  UNL     1      27.951   0.540  53.409  1.00  0.00    -0.361 OA
HETATM    9  C10 UNL     1      27.871  -0.539  52.561  1.00  0.00     0.130 C 
HETATM   10  C11 UNL     1      26.834   0.031  51.976  1.00  0.00    -0.002 C 
HETATM   11  C12 UNL     1      25.941   1.180  51.951  1.00  0.00     0.044 C 
HETATM   12  C13 UNL     1      24.477   0.920  51.873  1.00  0.00     0.069 C 
HETATM   13  C14 UNL     1      23.730   2.096  51.398  1.00  0.00     0.043 C 
HETATM   14  N1  UNL     1      23.706   2.377  50.125  1.00  0.00    -0.187 NA
HETATM   15  N2  UNL     1      23.442   3.708  49.845  1.00  0.00    -0.308 N 
HETATM   16  C15 UNL     1      22.179   3.567  50.639  1.00  0.00     0.119 C 
HETATM   17  C16 UNL     1      21.403   2.400  50.099  1.00  0.00     0.068 A 
HETATM   18  C17 UNL     1      20.696   1.305  49.662  1.00  0.00    -0.005 A 
HETATM   19  C18 UNL     1      20.877   1.019  50.794  1.00  0.00    -0.033 A 
HETATM   20  P1  UNL     1      21.062   0.698  51.980  1.00  0.00    -0.006 P 
HETATM   21 CL1  UNL     1      21.512  -0.091  55.142  1.00  0.00    -0.230 Cl
HETATM   22  C19 UNL     1      22.905   3.225  51.946  1.00  0.00     0.085 C 
HETATM   23  H19 UNL     1      23.662   4.631  49.413  1.00  0.00     0.182 HD
ENDROOT
BRANCH   1  24
HETATM   24  C3  UNL     1      20.253  -0.901  53.545  1.00  0.00    -0.018 C 
BRANCH  24  25
HETATM   25  C2  UNL     1      18.899  -1.067  53.358  1.00  0.00    -0.034 C 
HETATM   26  C1  UNL     1      17.578  -1.613  53.190  1.00  0.00     0.036 C 
ENDBRANCH  24  25
ENDBRANCH   1  24
TORSDOF 2
ENDMDL
MODEL 3
REMARK VINA RESULT:      -8.8      2.727      5.703
REMARK  2 active torsions:
REMARK  status: ('A' for Active; 'I' for Inactive)
REMARK    1  A    between atoms: C2_2  and  C3_3 
REMARK    2  A    between atoms: C3_3  and  C4_4 
ROOT
HETATM    1  C4  UNL     1      23.073   4.087  50.948  1.00  0.00     0.225 C 
HETATM    2  C5  UNL     1      24.252   3.577  52.108  1.00  0.00     0.053 C 
HETATM    3  C6  UNL     1      24.188   2.147  52.246  1.00  0.00    -0.047 C 
HETATM    4  C7  UNL     1      25.396   1.607  51.923  1.00  0.00     0.138 C 
HETATM    5  O1  UNL     1      26.344   0.584  51.719  1.00  0.00    -0.361 OA
HETATM    6  C8  UNL     1      27.397   0.396  52.674  1.00  0.00     0.201 C 
HETATM    7  C9  UNL     1      27.388  -1.054  53.157  1.00  0.00     0.201 C 
HETATM    8  O2  UNL     1      26.079  -1.266  53.728  1.00  0.00    -0.361 OA
HETATM    9  C10 UNL     1      25.769  -0.632  54.907  1.00  0.00     0.130 C 
HETATM   10  C11 UNL     1      24.646  -0.212  54.354  1.00  0.00    -0.002 C 
HETATM   11  C12 UNL     1      23.817  -0.203  53.159  1.00  0.00     0.044 C 
HETATM   12  C13 UNL     1      23.268   1.105  52.705  1.00  0.00     0.069 C 
HETATM   13  C14 UNL     1      22.114   0.939  51.805  1.00  0.00     0.043 C 
HETATM   14  N1  UNL     1      20.940   0.666  52.303  1.00  0.00    -0.187 NA
HETATM   15  N2  UNL     1      20.080   0.045  51.413  1.00  0.00    -0.308 N 
HETATM   16  C15 UNL     1      20.287   1.205  50.488  1.00  0.00     0.119 C 
HETATM   17  C16 UNL     1      19.988   2.472  51.236  1.00  0.00     0.068 A 
HETATM   18  C17 UNL     1      19.773   3.651  51.909  1.00  0.00    -0.005 A 
HETATM   19  C18 UNL     1      20.894   3.788  51.565  1.00  0.00    -0.033 A 
HETATM   20  P1  UNL     1      22.076   3.950  51.218  1.00  0.00    -0.006 P 
HETATM   21 CL1  UNL     1      25.186   4.373  50.227  1.00  0.00    -0.230 Cl
HETATM   22  C19 UNL     1      21.794   0.962  50.338  1.00  0.00     0.085 C 
HETATM   23  H19 UNL     1      19.448  -0.729  51.114  1.00  0.00     0.182 HD
ENDROOT
BRANCH   1  24
HETATM   24  C3  UNL     1      23.676   5.706  51.087  1.00  0.00    -0.018 C 
BRANCH  24  25
HETATM   25  C2  UNL     1      22.993   6.867  50.807  1.00  0.00    -0.034 C 
HETATM   26  C1  UNL     1      21.996   7.834  50.427  1.00  0.00     0.036 C 
ENDBRANCH  24  25
ENDBRANCH   1  24
TORSDOF 2
ENDMDL
MODEL 4
REMARK VINA RESULT:      -8.8      3.018      4.113
REMARK  2 active torsions:
REMARK  status: ('A' for Active; 'I' for Inactive)
REMARK    1  A    between atoms: C2_2  and  C3_3 
REMARK    2  A    between atoms: C3_3  and  C4_4 
ROOT
HETATM    1  C4  UNL     1      22.849   2.490  52.580  1.00  0.00     0.225 C 
HETATM    2  C5  UNL     1      21.683   2.661  51.313  1.00  0.00     0.053 C 
HETATM    3  C6  UNL     1      20.471   1.988  51.696  1.00  0.00    -0.047 C 
HETATM    4  C7  UNL     1      19.445   2.883  51.716  1.00  0.00     0.138 C 
HETATM    5  O1  UNL     1      18.118   3.328  51.889  1.00  0.00    -0.361 OA
HETATM    6  C8  UNL     1      17.316   3.624  50.738  1.00  0.00     0.201 C 
HETATM    7  C9  UNL     1      16.018   2.821  50.808  1.00  0.00     0.201 C 
HETATM    8  O2  UNL     1      16.419   1.435  50.861  1.00  0.00    -0.361 OA
HETATM    9  C10 UNL     1      16.975   0.871  49.738  1.00  0.00     0.130 C 
HETATM   10  C11 UNL     1      17.963   0.417  50.487  1.00  0.00    -0.002 C 
HETATM   11  C12 UNL     1      18.529   0.343  51.826  1.00  0.00     0.044 C 
HETATM   12  C13 UNL     1      19.980   0.639  51.982  1.00  0.00     0.069 C 
HETATM   13  C14 UNL     1      20.522   0.100  53.241  1.00  0.00     0.043 C 
HETATM   14  N1  UNL     1      20.813  -1.169  53.329  1.00  0.00    -0.187 NA
HETATM   15  N2  UNL     1      20.816  -1.658  54.625  1.00  0.00    -0.308 N 
HETATM   16  C15 UNL     1      21.821  -0.600  54.964  1.00  0.00     0.119 C 
HETATM   17  C16 UNL     1      22.967  -0.702  53.999  1.00  0.00     0.068 A 
HETATM   18  C17 UNL     1      24.004  -0.736  53.098  1.00  0.00    -0.005 A 
HETATM   19  C18 UNL     1      23.605   0.364  52.941  1.00  0.00    -0.033 A 
HETATM   20  P1  UNL     1      23.196   1.523  52.756  1.00  0.00    -0.006 P 
HETATM   21 CL1  UNL     1      22.129   4.608  52.339  1.00  0.00    -0.230 Cl
HETATM   22  C19 UNL     1      20.879   0.563  54.624  1.00  0.00     0.085 C 
HETATM   23  H19 UNL     1      20.503  -2.312  55.375  1.00  0.00     0.182 HD
ENDROOT
BRANCH   1  24
HETATM   24  C3  UNL     1      23.921   3.526  51.697  1.00  0.00    -0.018 C 
BRANCH  24  25
HETATM   25  C2  UNL     1      25.212   3.242  51.311  1.00  0.00    -0.034 C 
HETATM   26  C1  UNL     1      26.397   2.617  50.785  1.00  0.00     0.036 C 
ENDBRANCH  24  25
ENDBRANCH   1  24
TORSDOF 2
ENDMDL
MODEL 5
REMARK VINA RESULT:      -8.5      3.626      6.894
REMARK  2 active torsions:
REMARK  status: ('A' for Active; 'I' for Inactive)
REMARK    1  A    between atoms: C2_2  and  C3_3 
REMARK    2  A    between atoms: C3_3  and  C4_4 
ROOT
HETATM    1  C4  UNL     1      21.515   3.251  49.745  1.00  0.00     0.225 C 
HETATM    2  C5  UNL     1      22.340   1.761  50.056  1.00  0.00     0.053 C 
HETATM    3  C6  UNL     1      23.465   2.018  50.914  1.00  0.00    -0.047 C 
HETATM    4  C7  UNL     1      23.333   1.295  52.061  1.00  0.00     0.138 C 
HETATM    5  O1  UNL     1      23.690   0.816  53.338  1.00  0.00    -0.361 OA
HETATM    6  C8  UNL     1      24.183  -0.523  53.479  1.00  0.00     0.201 C 
HETATM    7  C9  UNL     1      25.534  -0.490  54.192  1.00  0.00     0.201 C 
HETATM    8  O2  UNL     1      26.390   0.331  53.369  1.00  0.00    -0.361 OA
HETATM    9  C10 UNL     1      26.789  -0.158  52.148  1.00  0.00     0.130 C 
HETATM   10  C11 UNL     1      26.411   0.981  51.598  1.00  0.00    -0.002 C 
HETATM   11  C12 UNL     1      25.831   2.297  51.821  1.00  0.00     0.044 C 
HETATM   12  C13 UNL     1      24.740   2.737  50.908  1.00  0.00     0.069 C 
HETATM   13  C14 UNL     1      24.560   4.199  50.924  1.00  0.00     0.043 C 
HETATM   14  N1  UNL     1      25.377   4.959  50.249  1.00  0.00    -0.187 NA
HETATM   15  N2  UNL     1      25.454   6.261  50.718  1.00  0.00    -0.308 N 
HETATM   16  C15 UNL     1      23.969   6.354  50.538  1.00  0.00     0.119 C 
HETATM   17  C16 UNL     1      23.633   5.962  49.129  1.00  0.00     0.068 A 
HETATM   18  C17 UNL     1      23.288   5.556  47.861  1.00  0.00    -0.005 A 
HETATM   19  C18 UNL     1      22.682   4.784  48.518  1.00  0.00    -0.033 A 
HETATM   20  P1  UNL     1      22.041   3.959  49.190  1.00  0.00    -0.006 P 
HETATM   21 CL1  UNL     1      20.305   1.830  51.003  1.00  0.00    -0.230 Cl
HETATM   22  C19 UNL     1      23.664   5.234  51.540  1.00  0.00     0.085 C 
HETATM   23  H19 UNL     1      25.968   7.091  51.084  1.00  0.00     0.182 HD
ENDROOT
BRANCH   1  24
HETATM   24  C3  UNL     1      20.301   2.366  48.880  1.00  0.00    -0.018 C 
BRANCH  24  25
HETATM   25  C2  UNL     1      19.452   2.859  47.916  1.00  0.00    -0.034 C 
HETATM   26  C1  UNL     1      18.862   3.293  46.676  1.00  0.00     0.036 C 
ENDBRANCH  24  25
ENDBRANCH   1  24
TORSDOF 2
ENDMDL
MODEL 6
REMARK VINA RESULT:      -8.3      3.569      7.037
REMARK  2 active torsions:
REMARK  status: ('A' for Active; 'I' for Inactive)
REMARK    1  A    between atoms: C2_2  and  C3_3 
REMARK    2  A    between atoms: C3_3  and  C4_4 
ROOT
HETATM    1  C4  UNL     1      21.896   3.887  48.428  1.00  0.00     0.225 C 
HETATM    2  C5  UNL     1      22.514   2.359  48.956  1.00  0.00     0.053 C 
HETATM    3  C6  UNL     1      22.923   2.468  50.330  1.00  0.00    -0.047 C 
HETATM    4  C7  UNL     1      22.220   1.577  51.083  1.00  0.00     0.138 C 
HETATM    5  O1  UNL     1      21.822   0.902  52.255  1.00  0.00    -0.361 OA
HETATM    6  C8  UNL     1      22.254  -0.447  52.475  1.00  0.00     0.201 C 
HETATM    7  C9  UNL     1      22.949  -0.539  53.833  1.00  0.00     0.201 C 
HETATM    8  O2  UNL     1      24.052   0.391  53.770  1.00  0.00    -0.361 OA
HETATM    9  C10 UNL     1      25.114   0.093  52.950  1.00  0.00     0.130 C 
HETATM   10  C11 UNL     1      25.026   1.307  52.440  1.00  0.00    -0.002 C 
HETATM   11  C12 UNL     1      24.318   2.578  52.460  1.00  0.00     0.044 C 
HETATM   12  C13 UNL     1      23.911   3.166  51.154  1.00  0.00     0.069 C 
HETATM   13  C14 UNL     1      23.637   4.610  51.258  1.00  0.00     0.043 C 
HETATM   14  N1  UNL     1      24.628   5.457  51.284  1.00  0.00    -0.187 NA
HETATM   15  N2  UNL     1      24.318   6.669  51.878  1.00  0.00    -0.308 N 
HETATM   16  C15 UNL     1      23.199   6.805  50.892  1.00  0.00     0.119 C 
HETATM   17  C16 UNL     1      23.759   6.639  49.508  1.00  0.00     0.068 A 
HETATM   18  C17 UNL     1      24.232   6.438  48.233  1.00  0.00    -0.005 A 
HETATM   19  C18 UNL     1      23.425   5.580  48.312  1.00  0.00    -0.033 A 
HETATM   20  P1  UNL     1      22.584   4.667  48.376  1.00  0.00    -0.006 P 
HETATM   21 CL1  UNL     1      20.304   2.301  48.558  1.00  0.00    -0.230 Cl
HETATM   22  C19 UNL     1      22.468   5.546  51.376  1.00  0.00     0.085 C 
HETATM   23  H19 UNL     1      24.463   7.427  52.580  1.00  0.00     0.182 HD
ENDROOT
BRANCH   1  24
HETATM   24  C3  UNL     1      21.467   3.160  46.914  1.00  0.00    -0.018 C 
BRANCH  24  25
HETATM   25  C2  UNL     1      21.193   3.813  45.733  1.00  0.00    -0.034 C 
HETATM   26  C1  UNL     1      21.064   4.177  44.347  1.00  0.00     0.036 C 
ENDBRANCH  24  25
ENDBRANCH   1  24
TORSDOF 2
ENDMDL
MODEL 7
REMARK VINA RESULT:      -8.0      9.057     11.751
REMARK  2 active torsions:
REMARK  status: ('A' for Active; 'I' for Inactive)
REMARK    1  A    between atoms: C2_2  and  C3_3 
REMARK    2  A    between atoms: C3_3  and  C4_4 
ROOT
HETATM    1  C4  UNL     1      28.526   6.581  47.829  1.00  0.00     0.225 C 
HETATM    2  C5  UNL     1      28.285   8.058  48.696  1.00  0.00     0.053 C 
HETATM    3  C6  UNL     1      29.150   9.069  48.152  1.00  0.00    -0.047 C 
HETATM    4  C7  UNL     1      28.399  10.110  47.697  1.00  0.00     0.138 C 
HETATM    5  O1  UNL     1      28.148  11.366  47.107  1.00  0.00    -0.361 OA
HETATM    6  C8  UNL     1      27.762  12.471  47.934  1.00  0.00     0.201 C 
HETATM    7  C9  UNL     1      28.713  13.642  47.688  1.00  0.00     0.201 C 
HETATM    8  O2  UNL     1      30.030  13.147  48.007  1.00  0.00    -0.361 OA
HETATM    9  C10 UNL     1      30.330  12.883  49.323  1.00  0.00     0.130 C 
HETATM   10  C11 UNL     1      30.782  11.699  48.954  1.00  0.00    -0.002 C 
HETATM   11  C12 UNL     1      31.011  10.784  47.846  1.00  0.00     0.044 C 
HETATM   12  C13 UNL     1      30.576   9.370  48.013  1.00  0.00     0.069 C 
HETATM   13  C14 UNL     1      31.250   8.467  47.065  1.00  0.00     0.043 C 
HETATM   14  N1  UNL     1      32.472   8.076  47.300  1.00  0.00    -0.187 NA
HETATM   15  N2  UNL     1      33.167   7.684  46.167  1.00  0.00    -0.308 N 
HETATM   16  C15 UNL     1      32.069   6.701  45.901  1.00  0.00     0.119 C 
HETATM   17  C16 UNL     1      31.873   5.859  47.128  1.00  0.00     0.068 A 
HETATM   18  C17 UNL     1      31.634   5.108  48.255  1.00  0.00    -0.005 A 
HETATM   19  C18 UNL     1      30.578   5.611  48.090  1.00  0.00    -0.033 A 
HETATM   20  P1  UNL     1      29.461   6.133  47.937  1.00  0.00    -0.006 P 
HETATM   21 CL1  UNL     1      26.497   7.483  47.465  1.00  0.00    -0.230 Cl
HETATM   22  C19 UNL     1      30.986   7.777  45.757  1.00  0.00     0.085 C 
HETATM   23  H19 UNL     1      33.969   7.733  45.502  1.00  0.00     0.182 HD
ENDROOT
BRANCH   1  24
HETATM   24  C3  UNL     1      27.238   5.866  48.741  1.00  0.00    -0.018 C 
BRANCH  24  25
HETATM   25  C2  UNL     1      27.048   4.525  48.990  1.00  0.00    -0.034 C 
HETATM   26  C1  UNL     1      26.592   3.260  49.503  1.00  0.00     0.036 C 
ENDBRANCH  24  25
ENDBRANCH   1  24
TORSDOF 2
ENDMDL
MODEL 8
REMARK VINA RESULT:      -8.0      3.295      5.340
REMARK  2 active torsions:
REMARK  status: ('A' for Active; 'I' for Inactive)
REMARK    1  A    between atoms: C2_2  and  C3_3 
REMARK    2  A    between atoms: C3_3  and  C4_4 
ROOT
HETATM    1  C4  UNL     1      22.855   0.944  51.722  1.00  0.00     0.225 C 
HETATM    2  C5  UNL     1      21.342   1.130  52.542  1.00  0.00     0.053 C 
HETATM    3  C6  UNL     1      20.289   1.228  51.567  1.00  0.00    -0.047 C 
HETATM    4  C7  UNL     1      19.396   0.219  51.763  1.00  0.00     0.138 C 
HETATM    5  O1  UNL     1      18.242  -0.554  51.521  1.00  0.00    -0.361 OA
HETATM    6  C8  UNL     1      17.119  -0.443  52.405  1.00  0.00     0.201 C 
HETATM    7  C9  UNL     1      15.869  -0.105  51.593  1.00  0.00     0.201 C 
HETATM    8  O2  UNL     1      16.167   1.136  50.918  1.00  0.00    -0.361 OA
HETATM    9  C10 UNL     1      16.267   2.283  51.671  1.00  0.00     0.130 C 
HETATM   10  C11 UNL     1      17.416   2.541  51.075  1.00  0.00    -0.002 C 
HETATM   11  C12 UNL     1      18.398   2.097  50.097  1.00  0.00     0.044 C 
HETATM   12  C13 UNL     1      19.832   2.115  50.496  1.00  0.00     0.069 C 
HETATM   13  C14 UNL     1      20.732   2.098  49.330  1.00  0.00     0.043 C 
HETATM   14  N1  UNL     1      20.946   3.197  48.662  1.00  0.00    -0.187 NA
HETATM   15  N2  UNL     1      21.356   2.991  47.355  1.00  0.00    -0.308 N 
HETATM   16  C15 UNL     1      22.487   2.172  47.896  1.00  0.00     0.119 C 
HETATM   17  C16 UNL     1      23.226   2.991  48.914  1.00  0.00     0.068 A 
HETATM   18  C17 UNL     1      23.890   3.697  49.890  1.00  0.00    -0.005 A 
HETATM   19  C18 UNL     1      23.538   2.748  50.498  1.00  0.00    -0.033 A 
HETATM   20  P1  UNL     1      23.173   1.759  51.157  1.00  0.00    -0.006 P 
HETATM   21 CL1  UNL     1      22.246  -0.902  52.856  1.00  0.00    -0.230 Cl
HETATM   22  C19 UNL     1      21.570   1.129  48.547  1.00  0.00     0.085 C 
HETATM   23  H19 UNL     1      21.273   3.111  46.322  1.00  0.00     0.182 HD
ENDROOT
BRANCH   1  24
HETATM   24  C3  UNL     1      23.632   0.744  53.259  1.00  0.00    -0.018 C 
BRANCH  24  25
HETATM   25  C2  UNL     1      24.942   0.386  53.480  1.00  0.00    -0.034 C 
HETATM   26  C1  UNL     1      26.312  -0.029  53.328  1.00  0.00     0.036 C 
ENDBRANCH  24  25
ENDBRANCH   1  24
TORSDOF 2
ENDMDL
MODEL 9
REMARK VINA RESULT:      -8.0      3.493      6.635
REMARK  2 active torsions:
REMARK  status: ('A' for Active; 'I' for Inactive)
REMARK    1  A    between atoms: C2_2  and  C3_3 
REMARK    2  A    between atoms: C3_3  and  C4_4 
ROOT
HETATM    1  C4  UNL     1      20.353   2.029  50.827  1.00  0.00     0.225 C 
HETATM    2  C5  UNL     1      21.227   0.596  51.250  1.00  0.00     0.053 C 
HETATM    3  C6  UNL     1      22.353   0.958  52.068  1.00  0.00    -0.047 C 
HETATM    4  C7  UNL     1      22.256   0.330  53.273  1.00  0.00     0.138 C 
HETATM    5  O1  UNL     1      22.641  -0.029  54.581  1.00  0.00    -0.361 OA
HETATM    6  C8  UNL     1      23.178  -1.335  54.827  1.00  0.00     0.201 C 
HETATM    7  C9  UNL     1      24.535  -1.202  55.516  1.00  0.00     0.201 C 
HETATM    8  O2  UNL     1      25.355  -0.428  54.616  1.00  0.00    -0.361 OA
HETATM    9  C10 UNL     1      25.756  -1.006  53.434  1.00  0.00     0.130 C 
HETATM   10  C11 UNL     1      25.337   0.071  52.796  1.00  0.00    -0.002 C 
HETATM   11  C12 UNL     1      24.719   1.383  52.916  1.00  0.00     0.044 C 
HETATM   12  C13 UNL     1      23.605   1.712  51.984  1.00  0.00     0.069 C 
HETATM   13  C14 UNL     1      23.380   3.164  51.881  1.00  0.00     0.043 C 
HETATM   14  N1  UNL     1      24.165   3.888  51.133  1.00  0.00    -0.187 NA
HETATM   15  N2  UNL     1      24.206   5.227  51.490  1.00  0.00    -0.308 N 
HETATM   16  C15 UNL     1      22.718   5.260  51.324  1.00  0.00     0.119 C 
HETATM   17  C16 UNL     1      22.378   4.740  49.956  1.00  0.00     0.068 A 
HETATM   18  C17 UNL     1      22.032   4.219  48.732  1.00  0.00    -0.005 A 
HETATM   19  C18 UNL     1      21.458   3.487  49.460  1.00  0.00    -0.033 A 
HETATM   20  P1  UNL     1      20.850   2.703  50.208  1.00  0.00    -0.006 P 
HETATM   21 CL1  UNL     1      19.202   0.684  52.216  1.00  0.00    -0.230 Cl
HETATM   22  C19 UNL     1      22.458   4.219  52.420  1.00  0.00     0.085 C 
HETATM   23  H19 UNL     1      24.699   6.100  51.778  1.00  0.00     0.182 HD
ENDROOT
BRANCH   1  24
HETATM   24  C3  UNL     1      19.157   1.038  50.056  1.00  0.00    -0.018 C 
BRANCH  24  25
HETATM   25  C2  UNL     1      17.897   1.425  49.659  1.00  0.00    -0.034 C 
HETATM   26  C1  UNL     1      16.752   1.852  48.899  1.00  0.00     0.036 C 
ENDBRANCH  24  25
ENDBRANCH   1  24
TORSDOF 2
ENDMDL
