MODEL 1
REMARK VINA RESULT:      -9.9      0.000      0.000
REMARK  2 active torsions:
REMARK  status: ('A' for Active; 'I' for Inactive)
REMARK    1  A    between atoms: O1_2  and  C2_3 
REMARK    2  A    between atoms: C10_11  and  C11_12 
ROOT
HETATM    1  C2  UNL     1      22.108   0.214  52.328  1.00  0.00     0.069 A 
HETATM    2  C3  UNL     1      21.173   0.284  51.333  1.00  0.00     0.044 A 
HETATM    3  C4  UNL     1      21.478   1.074  50.287  1.00  0.00    -0.045 A 
HETATM    4  C5  UNL     1      22.616   1.882  49.978  1.00  0.00    -0.038 A 
HETATM    5  C6  UNL     1      23.468   1.714  51.102  1.00  0.00    -0.033 A 
HETATM    6  C7  UNL     1      23.282   0.942  52.224  1.00  0.00     0.045 A 
HETATM    7  C8  UNL     1      24.493   2.719  51.362  1.00  0.00     0.121 A 
HETATM    8  C9  UNL     1      25.535   3.132  50.535  1.00  0.00     0.023 A 
HETATM    9  C10 UNL     1      25.472   4.405  50.193  1.00  0.00     0.067 A 
HETATM   10  N1  UNL     1      24.281   4.932  50.767  1.00  0.00    -0.227 NA
HETATM   11  C17 UNL     1      23.624   4.049  51.447  1.00  0.00     0.158 A 
HETATM   12  O2  UNL     1      22.332   4.414  52.089  1.00  0.00    -0.295 OA
HETATM   13  C18 UNL     1      21.461   4.733  50.956  1.00  0.00     0.075 C 
HETATM   14  C19 UNL     1      21.308   6.032  50.741  1.00  0.00     0.043 C 
HETATM   15  C20 UNL     1      20.608   6.691  49.695  1.00  0.00     0.200 C 
HETATM   16  N2  UNL     1      20.939   5.877  48.707  1.00  0.00    -0.130 NA
HETATM   17  N3  UNL     1      21.669   4.835  48.612  1.00  0.00    -0.322 NA
HETATM   18  C21 UNL     1      22.452   3.910  48.391  1.00  0.00     0.188 C 
HETATM   19  C22 UNL     1      22.934   2.566  48.733  1.00  0.00     0.101 C 
HETATM   20  C23 UNL     1      20.779   3.627  50.168  1.00  0.00     0.033 C 
HETATM   21  C24 UNL     1      20.069   2.788  49.355  1.00  0.00    -0.019 C 
HETATM   22  C25 UNL     1      20.232   1.288  49.436  1.00  0.00     0.066 C 
ENDROOT
BRANCH   9  23
HETATM   23  C11 UNL     1      26.375   5.182  49.355  1.00  0.00    -0.007 A 
HETATM   24  C12 UNL     1      27.591   4.737  48.954  1.00  0.00     0.015 A 
HETATM   25  C13 UNL     1      28.489   5.425  48.166  1.00  0.00     0.024 A 
HETATM   26  C14 UNL     1      28.128   6.704  47.730  1.00  0.00     0.034 A 
HETATM   27 CL1  UNL     1      29.178   7.679  46.728  1.00  0.00    -0.084 Cl
HETATM   28  C15 UNL     1      26.879   7.184  48.132  1.00  0.00     0.024 A 
HETATM   29  C16 UNL     1      26.012   6.443  48.930  1.00  0.00     0.015 A 
ENDBRANCH   9  23
BRANCH   1  30
HETATM   30  O1  UNL     1      21.918  -0.566  53.444  1.00  0.00    -0.356 OA
HETATM   31  C1  UNL     1      21.194  -0.277  54.591  1.00  0.00     0.210 C 
ENDBRANCH   1  30
TORSDOF 2
ENDMDL
MODEL 2
REMARK VINA RESULT:      -9.9      3.606      5.080
REMARK  2 active torsions:
REMARK  status: ('A' for Active; 'I' for Inactive)
REMARK    1  A    between atoms: O1_2  and  C2_3 
REMARK    2  A    between atoms: C10_11  and  C11_12 
ROOT
HETATM    1  C2  UNL     1      17.640   0.272  51.257  1.00  0.00     0.069 A 
HETATM    2  C3  UNL     1      17.849   0.981  50.108  1.00  0.00     0.044 A 
HETATM    3  C4  UNL     1      19.133   1.232  49.790  1.00  0.00    -0.045 A 
HETATM    4  C5  UNL     1      20.373   0.897  50.419  1.00  0.00    -0.038 A 
HETATM    5  C6  UNL     1      19.982   0.190  51.587  1.00  0.00    -0.033 A 
HETATM    6  C7  UNL     1      18.719  -0.136  52.023  1.00  0.00     0.045 A 
HETATM    7  C8  UNL     1      20.925   0.091  52.696  1.00  0.00     0.121 A 
HETATM    8  C9  UNL     1      22.209  -0.452  52.700  1.00  0.00     0.023 A 
HETATM    9  C10 UNL     1      23.156   0.421  52.987  1.00  0.00     0.067 A 
HETATM   10  N1  UNL     1      22.523   1.685  53.149  1.00  0.00    -0.227 NA
HETATM   11  C17 UNL     1      21.241   1.624  52.985  1.00  0.00     0.158 A 
HETATM   12  O2  UNL     1      20.417   2.860  53.082  1.00  0.00    -0.295 OA
HETATM   13  C18 UNL     1      20.895   3.680  51.967  1.00  0.00     0.075 C 
HETATM   14  C19 UNL     1      21.733   4.643  52.325  1.00  0.00     0.043 C 
HETATM   15  C20 UNL     1      22.444   5.562  51.508  1.00  0.00     0.200 C 
HETATM   16  N2  UNL     1      22.743   4.739  50.516  1.00  0.00    -0.130 NA
HETATM   17  N3  UNL     1      22.538   3.501  50.289  1.00  0.00    -0.322 NA
HETATM   18  C21 UNL     1      22.509   2.294  50.040  1.00  0.00     0.188 C 
HETATM   19  C22 UNL     1      21.726   1.060  49.905  1.00  0.00     0.101 C 
HETATM   20  C23 UNL     1      20.393   3.434  50.554  1.00  0.00     0.033 C 
HETATM   21  C24 UNL     1      20.054   3.383  49.231  1.00  0.00    -0.019 C 
HETATM   22  C25 UNL     1      19.184   2.276  48.682  1.00  0.00     0.066 C 
ENDROOT
BRANCH   9  23
HETATM   23  C11 UNL     1      24.595   0.222  53.088  1.00  0.00    -0.007 A 
HETATM   24  C12 UNL     1      25.474   0.635  52.142  1.00  0.00     0.015 A 
HETATM   25  C13 UNL     1      26.843   0.475  52.180  1.00  0.00     0.024 A 
HETATM   26  C14 UNL     1      27.393  -0.173  53.291  1.00  0.00     0.034 A 
HETATM   27 CL1  UNL     1      29.114  -0.440  53.457  1.00  0.00    -0.084 Cl
HETATM   28  C15 UNL     1      26.506  -0.609  54.278  1.00  0.00     0.024 A 
HETATM   29  C16 UNL     1      25.129  -0.418  54.186  1.00  0.00     0.015 A 
ENDBRANCH   9  23
BRANCH   1  30
HETATM   30  O1  UNL     1      16.375  -0.057  51.683  1.00  0.00    -0.356 OA
HETATM   31  C1  UNL     1      15.363   0.783  52.122  1.00  0.00     0.210 C 
ENDBRANCH   1  30
TORSDOF 2
ENDMDL
MODEL 3
REMARK VINA RESULT:      -9.6      3.377      6.828
REMARK  2 active torsions:
REMARK  status: ('A' for Active; 'I' for Inactive)
REMARK    1  A    between atoms: O1_2  and  C2_3 
REMARK    2  A    between atoms: C10_11  and  C11_12 
ROOT
HETATM    1  C2  UNL     1      26.679   6.477  48.729  1.00  0.00     0.069 A 
HETATM    2  C3  UNL     1      25.883   7.441  49.281  1.00  0.00     0.044 A 
HETATM    3  C4  UNL     1      24.962   7.016  50.167  1.00  0.00    -0.045 A 
HETATM    4  C5  UNL     1      24.630   5.722  50.678  1.00  0.00    -0.038 A 
HETATM    5  C6  UNL     1      25.523   4.849  50.001  1.00  0.00    -0.033 A 
HETATM    6  C7  UNL     1      26.504   5.150  49.086  1.00  0.00     0.045 A 
HETATM    7  C8  UNL     1      25.186   3.433  49.912  1.00  0.00     0.121 A 
HETATM    8  C9  UNL     1      24.959   2.526  50.947  1.00  0.00     0.023 A 
HETATM    9  C10 UNL     1      23.740   2.022  50.955  1.00  0.00     0.067 A 
HETATM   10  N1  UNL     1      23.025   2.640  49.891  1.00  0.00    -0.227 NA
HETATM   11  C17 UNL     1      23.748   3.486  49.232  1.00  0.00     0.158 A 
HETATM   12  O2  UNL     1      23.154   4.256  48.105  1.00  0.00    -0.295 OA
HETATM   13  C18 UNL     1      22.124   5.072  48.751  1.00  0.00     0.075 C 
HETATM   14  C19 UNL     1      20.893   4.603  48.606  1.00  0.00     0.043 C 
HETATM   15  C20 UNL     1      19.678   5.088  49.158  1.00  0.00     0.200 C 
HETATM   16  N2  UNL     1      20.137   5.424  50.353  1.00  0.00    -0.130 NA
HETATM   17  N3  UNL     1      21.272   5.346  50.929  1.00  0.00    -0.322 NA
HETATM   18  C21 UNL     1      22.285   5.193  51.614  1.00  0.00     0.188 C 
HETATM   19  C22 UNL     1      23.732   5.381  51.772  1.00  0.00     0.101 C 
HETATM   20  C23 UNL     1      22.492   6.363  49.463  1.00  0.00     0.033 C 
HETATM   21  C24 UNL     1      22.616   7.550  50.130  1.00  0.00    -0.019 C 
HETATM   22  C25 UNL     1      23.972   8.140  50.444  1.00  0.00     0.066 C 
ENDROOT
BRANCH   9  23
HETATM   23  C11 UNL     1      23.147   1.054  51.868  1.00  0.00    -0.007 A 
HETATM   24  C12 UNL     1      21.836   0.709  51.842  1.00  0.00     0.015 A 
HETATM   25  C13 UNL     1      21.216  -0.195  52.678  1.00  0.00     0.024 A 
HETATM   26  C14 UNL     1      21.999  -0.825  53.652  1.00  0.00     0.034 A 
HETATM   27 CL1  UNL     1      21.334  -1.989  54.774  1.00  0.00    -0.084 Cl
HETATM   28  C15 UNL     1      23.353  -0.484  53.698  1.00  0.00     0.024 A 
HETATM   29  C16 UNL     1      23.925   0.438  52.825  1.00  0.00     0.015 A 
ENDBRANCH   9  23
BRANCH   1  30
HETATM   30  O1  UNL     1      27.663   6.786  47.820  1.00  0.00    -0.356 OA
HETATM   31  C1  UNL     1      29.025   6.539  47.900  1.00  0.00     0.210 C 
ENDBRANCH   1  30
TORSDOF 2
ENDMDL
MODEL 4
REMARK VINA RESULT:      -9.2      3.132      4.851
REMARK  2 active torsions:
REMARK  status: ('A' for Active; 'I' for Inactive)
REMARK    1  A    between atoms: O1_2  and  C2_3 
REMARK    2  A    between atoms: C10_11  and  C11_12 
ROOT
HETATM    1  C2  UNL     1      19.173   3.484  50.135  1.00  0.00     0.069 A 
HETATM    2  C3  UNL     1      19.699   3.931  48.955  1.00  0.00     0.044 A 
HETATM    3  C4  UNL     1      21.016   3.722  48.774  1.00  0.00    -0.045 A 
HETATM    4  C5  UNL     1      22.021   3.103  49.582  1.00  0.00    -0.038 A 
HETATM    5  C6  UNL     1      21.324   2.718  50.758  1.00  0.00    -0.033 A 
HETATM    6  C7  UNL     1      19.992   2.866  51.065  1.00  0.00     0.045 A 
HETATM    7  C8  UNL     1      22.086   2.479  51.978  1.00  0.00     0.121 A 
HETATM    8  C9  UNL     1      23.117   1.566  52.196  1.00  0.00     0.023 A 
HETATM    9  C10 UNL     1      24.269   2.128  52.508  1.00  0.00     0.067 A 
HETATM   10  N1  UNL     1      24.071   3.537  52.464  1.00  0.00    -0.227 NA
HETATM   11  C17 UNL     1      22.858   3.859  52.150  1.00  0.00     0.158 A 
HETATM   12  O2  UNL     1      22.478   5.292  52.020  1.00  0.00    -0.295 OA
HETATM   13  C18 UNL     1      23.289   5.764  50.897  1.00  0.00     0.075 C 
HETATM   14  C19 UNL     1      24.362   6.454  51.257  1.00  0.00     0.043 C 
HETATM   15  C20 UNL     1      25.400   6.986  50.446  1.00  0.00     0.200 C 
HETATM   16  N2  UNL     1      25.497   5.985  49.587  1.00  0.00    -0.130 NA
HETATM   17  N3  UNL     1      24.919   4.855  49.461  1.00  0.00    -0.322 NA
HETATM   18  C21 UNL     1      24.520   3.697  49.332  1.00  0.00     0.188 C 
HETATM   19  C22 UNL     1      23.392   2.764  49.225  1.00  0.00     0.101 C 
HETATM   20  C23 UNL     1      22.856   5.500  49.464  1.00  0.00     0.033 C 
HETATM   21  C24 UNL     1      22.632   5.381  48.121  1.00  0.00    -0.019 C 
HETATM   22  C25 UNL     1      21.499   4.539  47.582  1.00  0.00     0.066 C 
ENDROOT
BRANCH   9  23
HETATM   23  C11 UNL     1      25.551   1.504  52.806  1.00  0.00    -0.007 A 
HETATM   24  C12 UNL     1      26.535   2.118  53.508  1.00  0.00     0.015 A 
HETATM   25  C13 UNL     1      27.767   1.582  53.819  1.00  0.00     0.024 A 
HETATM   26  C14 UNL     1      28.044   0.285  53.376  1.00  0.00     0.034 A 
HETATM   27 CL1  UNL     1      29.569  -0.506  53.703  1.00  0.00    -0.084 Cl
HETATM   28  C15 UNL     1      27.045  -0.367  52.649  1.00  0.00     0.024 A 
HETATM   29  C16 UNL     1      25.817   0.225  52.365  1.00  0.00     0.015 A 
ENDBRANCH   9  23
BRANCH   1  30
HETATM   30  O1  UNL     1      17.839   3.629  50.432  1.00  0.00    -0.356 OA
HETATM   31  C1  UNL     1      17.157   3.234  51.572  1.00  0.00     0.210 C 
ENDBRANCH   1  30
TORSDOF 2
ENDMDL
MODEL 5
REMARK VINA RESULT:      -9.1      5.364     10.247
REMARK  2 active torsions:
REMARK  status: ('A' for Active; 'I' for Inactive)
REMARK    1  A    between atoms: O1_2  and  C2_3 
REMARK    2  A    between atoms: C10_11  and  C11_12 
ROOT
HETATM    1  C2  UNL     1      32.539  10.443  46.774  1.00  0.00     0.069 A 
HETATM    2  C3  UNL     1      32.145  11.391  47.676  1.00  0.00     0.044 A 
HETATM    3  C4  UNL     1      31.120  11.055  48.482  1.00  0.00    -0.045 A 
HETATM    4  C5  UNL     1      30.329   9.870  48.606  1.00  0.00    -0.038 A 
HETATM    5  C6  UNL     1      30.848   9.009  47.603  1.00  0.00    -0.033 A 
HETATM    6  C7  UNL     1      31.883   9.224  46.724  1.00  0.00     0.045 A 
HETATM    7  C8  UNL     1      30.016   7.911  47.122  1.00  0.00     0.121 A 
HETATM    8  C9  UNL     1      29.458   6.860  47.848  1.00  0.00     0.023 A 
HETATM    9  C10 UNL     1      28.139   6.843  47.832  1.00  0.00     0.067 A 
HETATM   10  N1  UNL     1      27.716   7.981  47.090  1.00  0.00    -0.227 NA
HETATM   11  C17 UNL     1      28.708   8.684  46.648  1.00  0.00     0.158 A 
HETATM   12  O2  UNL     1      28.453   9.933  45.881  1.00  0.00    -0.295 OA
HETATM   13  C18 UNL     1      27.786  10.804  46.851  1.00  0.00     0.075 C 
HETATM   14  C19 UNL     1      26.471  10.871  46.701  1.00  0.00     0.043 C 
HETATM   15  C20 UNL     1      25.511  11.545  47.502  1.00  0.00     0.200 C 
HETATM   16  N2  UNL     1      26.045  11.293  48.686  1.00  0.00    -0.130 NA
HETATM   17  N3  UNL     1      27.064  10.639  49.086  1.00  0.00    -0.322 NA
HETATM   18  C21 UNL     1      27.941   9.927  49.580  1.00  0.00     0.188 C 
HETATM   19  C22 UNL     1      29.353   9.532  49.632  1.00  0.00     0.101 C 
HETATM   20  C23 UNL     1      28.593  11.578  47.880  1.00  0.00     0.033 C 
HETATM   21  C24 UNL     1      29.135  12.361  48.860  1.00  0.00    -0.019 C 
HETATM   22  C25 UNL     1      30.607  12.301  49.193  1.00  0.00     0.066 C 
ENDROOT
BRANCH   9  23
HETATM   23  C11 UNL     1      27.219   5.906  48.463  1.00  0.00    -0.007 A 
HETATM   24  C12 UNL     1      27.558   4.635  48.792  1.00  0.00     0.015 A 
HETATM   25  C13 UNL     1      26.734   3.703  49.388  1.00  0.00     0.024 A 
HETATM   26  C14 UNL     1      25.423   4.088  49.687  1.00  0.00     0.034 A 
HETATM   27 CL1  UNL     1      24.280   3.000  50.440  1.00  0.00    -0.084 Cl
HETATM   28  C15 UNL     1      25.052   5.394  49.356  1.00  0.00     0.024 A 
HETATM   29  C16 UNL     1      25.928   6.293  48.755  1.00  0.00     0.015 A 
ENDBRANCH   9  23
BRANCH   1  30
HETATM   30  O1  UNL     1      33.579  10.662  45.903  1.00  0.00    -0.356 OA
HETATM   31  C1  UNL     1      34.438   9.738  45.328  1.00  0.00     0.210 C 
ENDBRANCH   1  30
TORSDOF 2
ENDMDL
MODEL 6
REMARK VINA RESULT:      -8.6      4.477      7.359
REMARK  2 active torsions:
REMARK  status: ('A' for Active; 'I' for Inactive)
REMARK    1  A    between atoms: O1_2  and  C2_3 
REMARK    2  A    between atoms: C10_11  and  C11_12 
ROOT
HETATM    1  C2  UNL     1      24.904   1.620  52.689  1.00  0.00     0.069 A 
HETATM    2  C3  UNL     1      24.686   2.965  52.791  1.00  0.00     0.044 A 
HETATM    3  C4  UNL     1      23.410   3.372  52.654  1.00  0.00    -0.045 A 
HETATM    4  C5  UNL     1      22.186   2.670  52.422  1.00  0.00    -0.038 A 
HETATM    5  C6  UNL     1      22.585   1.311  52.324  1.00  0.00    -0.033 A 
HETATM    6  C7  UNL     1      23.841   0.765  52.448  1.00  0.00     0.045 A 
HETATM    7  C8  UNL     1      21.704   0.367  51.646  1.00  0.00     0.121 A 
HETATM    8  C9  UNL     1      20.383   0.039  51.948  1.00  0.00     0.023 A 
HETATM    9  C10 UNL     1      19.528   0.336  50.989  1.00  0.00     0.067 A 
HETATM   10  N1  UNL     1      20.268   0.965  49.949  1.00  0.00    -0.227 NA
HETATM   11  C17 UNL     1      21.530   1.057  50.223  1.00  0.00     0.158 A 
HETATM   12  O2  UNL     1      22.454   1.721  49.263  1.00  0.00    -0.295 OA
HETATM   13  C18 UNL     1      21.980   3.106  49.230  1.00  0.00     0.075 C 
HETATM   14  C19 UNL     1      21.244   3.399  48.167  1.00  0.00     0.043 C 
HETATM   15  C20 UNL     1      20.563   4.606  47.854  1.00  0.00     0.200 C 
HETATM   16  N2  UNL     1      20.142   4.905  49.072  1.00  0.00    -0.130 NA
HETATM   17  N3  UNL     1      20.233   4.342  50.213  1.00  0.00    -0.322 NA
HETATM   18  C21 UNL     1      20.150   3.816  51.325  1.00  0.00     0.188 C 
HETATM   19  C22 UNL     1      20.823   3.182  52.465  1.00  0.00     0.101 C 
HETATM   20  C23 UNL     1      22.377   4.087  50.321  1.00  0.00     0.033 C 
HETATM   21  C24 UNL     1      22.633   5.113  51.186  1.00  0.00    -0.019 C 
HETATM   22  C25 UNL     1      23.378   4.885  52.481  1.00  0.00     0.066 C 
ENDROOT
BRANCH   9  23
HETATM   23  C11 UNL     1      18.085   0.138  50.944  1.00  0.00    -0.007 A 
HETATM   24  C12 UNL     1      17.294   0.638  49.963  1.00  0.00     0.015 A 
HETATM   25  C13 UNL     1      15.926   0.488  49.866  1.00  0.00     0.024 A 
HETATM   26  C14 UNL     1      15.279  -0.247  50.865  1.00  0.00     0.034 A 
HETATM   27 CL1  UNL     1      13.550  -0.508  50.859  1.00  0.00    -0.084 Cl
HETATM   28  C15 UNL     1      16.075  -0.771  51.887  1.00  0.00     0.024 A 
HETATM   29  C16 UNL     1      17.455  -0.587  51.933  1.00  0.00     0.015 A 
ENDBRANCH   9  23
BRANCH   1  30
HETATM   30  O1  UNL     1      26.161   1.080  52.821  1.00  0.00    -0.356 OA
HETATM   31  C1  UNL     1      26.680  -0.063  52.232  1.00  0.00     0.210 C 
ENDBRANCH   1  30
TORSDOF 2
ENDMDL
MODEL 7
REMARK VINA RESULT:      -8.6      3.696      7.523
REMARK  2 active torsions:
REMARK  status: ('A' for Active; 'I' for Inactive)
REMARK    1  A    between atoms: O1_2  and  C2_3 
REMARK    2  A    between atoms: C10_11  and  C11_12 
ROOT
HETATM    1  C2  UNL     1      25.024   7.444  50.245  1.00  0.00     0.069 A 
HETATM    2  C3  UNL     1      25.790   6.451  49.703  1.00  0.00     0.044 A 
HETATM    3  C4  UNL     1      25.187   5.259  49.534  1.00  0.00    -0.045 A 
HETATM    4  C5  UNL     1      23.861   4.795  49.805  1.00  0.00    -0.038 A 
HETATM    5  C6  UNL     1      23.213   5.924  50.371  1.00  0.00    -0.033 A 
HETATM    6  C7  UNL     1      23.708   7.188  50.593  1.00  0.00     0.045 A 
HETATM    7  C8  UNL     1      22.020   5.715  51.183  1.00  0.00     0.121 A 
HETATM    8  C9  UNL     1      20.818   5.107  50.822  1.00  0.00     0.023 A 
HETATM    9  C10 UNL     1      20.540   4.022  51.518  1.00  0.00     0.067 A 
HETATM   10  N1  UNL     1      21.632   3.801  52.402  1.00  0.00    -0.227 NA
HETATM   11  C17 UNL     1      22.555   4.701  52.286  1.00  0.00     0.158 A 
HETATM   12  O2  UNL     1      23.793   4.609  53.108  1.00  0.00    -0.295 OA
HETATM   13  C18 UNL     1      24.422   3.371  52.647  1.00  0.00     0.075 C 
HETATM   14  C19 UNL     1      24.239   2.338  53.457  1.00  0.00     0.043 C 
HETATM   15  C20 UNL     1      24.635   0.984  53.287  1.00  0.00     0.200 C 
HETATM   16  N2  UNL     1      24.389   0.879  51.991  1.00  0.00    -0.130 NA
HETATM   17  N3  UNL     1      23.919   1.665  51.104  1.00  0.00    -0.322 NA
HETATM   18  C21 UNL     1      23.354   2.297  50.209  1.00  0.00     0.188 C 
HETATM   19  C22 UNL     1      23.245   3.532  49.423  1.00  0.00     0.101 C 
HETATM   20  C23 UNL     1      25.247   3.350  51.370  1.00  0.00     0.033 C 
HETATM   21  C24 UNL     1      26.031   3.131  50.273  1.00  0.00    -0.019 C 
HETATM   22  C25 UNL     1      26.237   4.200  49.225  1.00  0.00     0.066 C 
ENDROOT
BRANCH   9  23
HETATM   23  C11 UNL     1      19.386   3.137  51.427  1.00  0.00    -0.007 A 
HETATM   24  C12 UNL     1      18.105   3.567  51.539  1.00  0.00     0.015 A 
HETATM   25  C13 UNL     1      16.974   2.781  51.465  1.00  0.00     0.024 A 
HETATM   26  C14 UNL     1      17.147   1.409  51.256  1.00  0.00     0.034 A 
HETATM   27 CL1  UNL     1      15.795   0.305  51.145  1.00  0.00    -0.084 Cl
HETATM   28  C15 UNL     1      18.459   0.943  51.139  1.00  0.00     0.024 A 
HETATM   29  C16 UNL     1      19.565   1.785  51.221  1.00  0.00     0.015 A 
ENDBRANCH   9  23
BRANCH   1  30
HETATM   30  O1  UNL     1      25.523   8.707  50.458  1.00  0.00    -0.356 OA
HETATM   31  C1  UNL     1      26.752   9.228  50.083  1.00  0.00     0.210 C 
ENDBRANCH   1  30
TORSDOF 2
ENDMDL
MODEL 8
REMARK VINA RESULT:      -8.3      5.905      8.740
REMARK  2 active torsions:
REMARK  status: ('A' for Active; 'I' for Inactive)
REMARK    1  A    between atoms: O1_2  and  C2_3 
REMARK    2  A    between atoms: C10_11  and  C11_12 
ROOT
HETATM    1  C2  UNL     1      25.045   8.336  48.475  1.00  0.00     0.069 A 
HETATM    2  C3  UNL     1      25.186   9.267  47.484  1.00  0.00     0.044 A 
HETATM    3  C4  UNL     1      26.311   9.187  46.749  1.00  0.00    -0.045 A 
HETATM    4  C5  UNL     1      27.430   8.297  46.780  1.00  0.00    -0.038 A 
HETATM    5  C6  UNL     1      27.138   7.419  47.858  1.00  0.00    -0.033 A 
HETATM    6  C7  UNL     1      26.035   7.389  48.678  1.00  0.00     0.045 A 
HETATM    7  C8  UNL     1      28.233   6.684  48.481  1.00  0.00     0.121 A 
HETATM    8  C9  UNL     1      29.128   5.792  47.892  1.00  0.00     0.023 A 
HETATM    9  C10 UNL     1      30.386   6.184  47.947  1.00  0.00     0.067 A 
HETATM   10  N1  UNL     1      30.397   7.463  48.569  1.00  0.00    -0.227 NA
HETATM   11  C17 UNL     1      29.214   7.865  48.902  1.00  0.00     0.158 A 
HETATM   12  O2  UNL     1      29.030   9.201  49.532  1.00  0.00    -0.295 OA
HETATM   13  C18 UNL     1      29.458  10.136  48.490  1.00  0.00     0.075 C 
HETATM   14  C19 UNL     1      30.680  10.620  48.668  1.00  0.00     0.043 C 
HETATM   15  C20 UNL     1      31.436  11.476  47.824  1.00  0.00     0.200 C 
HETATM   16  N2  UNL     1      31.077  10.957  46.661  1.00  0.00    -0.130 NA
HETATM   17  N3  UNL     1      30.330   9.985  46.308  1.00  0.00    -0.322 NA
HETATM   18  C21 UNL     1      29.743   8.993  45.872  1.00  0.00     0.188 C 
HETATM   19  C22 UNL     1      28.523   8.179  45.825  1.00  0.00     0.101 C 
HETATM   20  C23 UNL     1      28.519  10.519  47.359  1.00  0.00     0.033 C 
HETATM   21  C24 UNL     1      27.825  10.998  46.283  1.00  0.00    -0.019 C 
HETATM   22  C25 UNL     1      26.463  10.454  45.918  1.00  0.00     0.066 C 
ENDROOT
BRANCH   9  23
HETATM   23  C11 UNL     1      31.583   5.520  47.449  1.00  0.00    -0.007 A 
HETATM   24  C12 UNL     1      31.726   4.172  47.406  1.00  0.00     0.015 A 
HETATM   25  C13 UNL     1      32.831   3.486  46.949  1.00  0.00     0.024 A 
HETATM   26  C14 UNL     1      33.917   4.235  46.484  1.00  0.00     0.034 A 
HETATM   27 CL1  UNL     1      35.378   3.486  45.882  1.00  0.00    -0.084 Cl
HETATM   28  C15 UNL     1      33.793   5.626  46.521  1.00  0.00     0.024 A 
HETATM   29  C16 UNL     1      32.649   6.265  46.993  1.00  0.00     0.015 A 
ENDBRANCH   9  23
BRANCH   1  30
HETATM   30  O1  UNL     1      23.936   8.307  49.286  1.00  0.00    -0.356 OA
HETATM   31  C1  UNL     1      23.785   7.709  50.528  1.00  0.00     0.210 C 
ENDBRANCH   1  30
TORSDOF 2
ENDMDL
MODEL 9
REMARK VINA RESULT:      -7.9      2.290      4.397
REMARK  2 active torsions:
REMARK  status: ('A' for Active; 'I' for Inactive)
REMARK    1  A    between atoms: O1_2  and  C2_3 
REMARK    2  A    between atoms: C10_11  and  C11_12 
ROOT
HETATM    1  C2  UNL     1      19.212   3.541  48.370  1.00  0.00     0.069 A 
HETATM    2  C3  UNL     1      18.990   3.523  49.718  1.00  0.00     0.044 A 
HETATM    3  C4  UNL     1      19.911   4.142  50.480  1.00  0.00    -0.045 A 
HETATM    4  C5  UNL     1      21.116   4.847  50.167  1.00  0.00    -0.038 A 
HETATM    5  C6  UNL     1      21.205   4.758  48.753  1.00  0.00    -0.033 A 
HETATM    6  C7  UNL     1      20.340   4.165  47.864  1.00  0.00     0.045 A 
HETATM    7  C8  UNL     1      22.505   4.950  48.119  1.00  0.00     0.121 A 
HETATM    8  C9  UNL     1      23.347   6.059  48.181  1.00  0.00     0.023 A 
HETATM    9  C10 UNL     1      24.519   5.808  48.732  1.00  0.00     0.067 A 
HETATM   10  N1  UNL     1      24.504   4.445  49.141  1.00  0.00    -0.227 NA
HETATM   11  C17 UNL     1      23.389   3.853  48.858  1.00  0.00     0.158 A 
HETATM   12  O2  UNL     1      23.180   2.431  49.246  1.00  0.00    -0.295 OA
HETATM   13  C18 UNL     1      23.222   2.463  50.709  1.00  0.00     0.075 C 
HETATM   14  C19 UNL     1      24.375   2.058  51.225  1.00  0.00     0.043 C 
HETATM   15  C20 UNL     1      24.790   2.035  52.583  1.00  0.00     0.200 C 
HETATM   16  N2  UNL     1      24.241   3.177  52.966  1.00  0.00    -0.130 NA
HETATM   17  N3  UNL     1      23.570   4.088  52.377  1.00  0.00    -0.322 NA
HETATM   18  C21 UNL     1      23.036   5.079  51.876  1.00  0.00     0.188 C 
HETATM   19  C22 UNL     1      21.960   5.640  51.050  1.00  0.00     0.101 C 
HETATM   20  C23 UNL     1      22.001   2.880  51.510  1.00  0.00     0.033 C 
HETATM   21  C24 UNL     1      21.016   3.205  52.401  1.00  0.00    -0.019 C 
HETATM   22  C25 UNL     1      19.692   3.770  51.941  1.00  0.00     0.066 C 
ENDROOT
BRANCH   9  23
HETATM   23  C11 UNL     1      25.644   6.704  48.961  1.00  0.00    -0.007 A 
HETATM   24  C12 UNL     1      25.606   7.742  49.833  1.00  0.00     0.015 A 
HETATM   25  C13 UNL     1      26.634   8.624  50.092  1.00  0.00     0.024 A 
HETATM   26  C14 UNL     1      27.835   8.448  49.397  1.00  0.00     0.034 A 
HETATM   27 CL1  UNL     1      29.212   9.499  49.632  1.00  0.00    -0.084 Cl
HETATM   28  C15 UNL     1      27.896   7.385  48.492  1.00  0.00     0.024 A 
HETATM   29  C16 UNL     1      26.825   6.523  48.272  1.00  0.00     0.015 A 
ENDBRANCH   9  23
BRANCH   1  30
HETATM   30  O1  UNL     1      18.338   2.952  47.486  1.00  0.00    -0.356 OA
HETATM   31  C1  UNL     1      18.216   3.158  46.121  1.00  0.00     0.210 C 
ENDBRANCH   1  30
TORSDOF 2
ENDMDL
