MODEL 1
REMARK VINA RESULT:      -7.8      0.000      0.000
REMARK  3 active torsions:
REMARK  status: ('A' for Active; 'I' for Inactive)
REMARK    1  A    between atoms: C5_7  and  N3_8 
REMARK    2  A    between atoms: N4_19  and  C15_20 
REMARK    3  A    between atoms: C15_20  and  C16_21 
ROOT
HETATM    1  C1  UNL     1      23.669   4.176  52.584  1.00  0.00     0.045 C 
HETATM    2  C2  UNL     1      23.640   3.641  51.170  1.00  0.00     0.249 C 
HETATM    3  C3  UNL     1      23.797   2.141  51.292  1.00  0.00     0.178 A 
HETATM    4  N1  UNL     1      22.843   1.524  52.155  1.00  0.00    -0.271 NA
HETATM    5  C4  UNL     1      23.133   0.730  53.132  1.00  0.00     0.229 A 
HETATM    6  N2  UNL     1      24.500   0.388  53.445  1.00  0.00    -0.224 NA
HETATM    7  C5  UNL     1      25.499   0.862  52.761  1.00  0.00     0.136 A 
HETATM    8  C12 UNL     1      25.173   1.765  51.667  1.00  0.00     0.013 A 
HETATM    9  C13 UNL     1      26.111   2.337  50.911  1.00  0.00     0.016 C 
HETATM   10  C14 UNL     1      25.592   3.248  49.828  1.00  0.00     0.301 C 
HETATM   11  N4  UNL     1      24.692   4.241  50.396  1.00  0.00     0.102 N 
ENDROOT
BRANCH   7  12
HETATM   12  N3  UNL     1      26.859   0.543  53.042  1.00  0.00    -0.356 N 
HETATM   13  C6  UNL     1      27.609   1.513  53.843  1.00  0.00     0.149 C 
HETATM   14  C7  UNL     1      29.096   1.182  53.812  1.00  0.00     0.122 C 
HETATM   15 CL1  UNL     1      29.942   2.318  54.848  1.00  0.00    -0.119 Cl
HETATM   16  C8  UNL     1      29.171  -0.236  54.327  1.00  0.00    -0.007 C 
HETATM   17  C9  UNL     1      28.393  -1.125  53.718  1.00  0.00    -0.005 C 
HETATM   18  C10 UNL     1      27.531  -0.648  52.597  1.00  0.00     0.104 C 
HETATM   19  C11 UNL     1      26.586  -1.706  52.114  1.00  0.00     0.037 C 
ENDBRANCH   7  12
BRANCH  11  20
HETATM   20  C15 UNL     1      24.109   4.938  49.270  1.00  0.00     0.311 C 
BRANCH  20  21
HETATM   21  C16 UNL     1      24.988   5.986  48.702  1.00  0.00    -0.030 A 
HETATM   22  C17 UNL     1      24.705   7.071  47.960  1.00  0.00     0.009 A 
HETATM   23  C18 UNL     1      26.104   7.466  47.884  1.00  0.00     0.001 A 
HETATM   24  C19 UNL     1      26.377   6.403  48.610  1.00  0.00     0.009 A 
ENDBRANCH  20  21
ENDBRANCH  11  20
TORSDOF 3
ENDMDL
MODEL 2
REMARK VINA RESULT:      -7.6      1.675      2.269
REMARK  3 active torsions:
REMARK  status: ('A' for Active; 'I' for Inactive)
REMARK    1  A    between atoms: C5_7  and  N3_8 
REMARK    2  A    between atoms: N4_19  and  C15_20 
REMARK    3  A    between atoms: C15_20  and  C16_21 
ROOT
HETATM    1  C1  UNL     1      23.845   4.641  51.709  1.00  0.00     0.045 C 
HETATM    2  C2  UNL     1      24.283   4.204  50.328  1.00  0.00     0.249 C 
HETATM    3  C3  UNL     1      24.179   2.694  50.320  1.00  0.00     0.178 A 
HETATM    4  N1  UNL     1      22.896   2.197  50.696  1.00  0.00    -0.271 NA
HETATM    5  C4  UNL     1      22.684   1.308  51.610  1.00  0.00     0.229 A 
HETATM    6  N2  UNL     1      23.771   0.722  52.357  1.00  0.00    -0.224 NA
HETATM    7  C5  UNL     1      25.009   1.060  52.147  1.00  0.00     0.136 A 
HETATM    8  C12 UNL     1      25.246   2.070  51.125  1.00  0.00     0.013 A 
HETATM    9  C13 UNL     1      26.468   2.519  50.837  1.00  0.00     0.016 C 
HETATM   10  C14 UNL     1      26.526   3.568  49.755  1.00  0.00     0.301 C 
HETATM   11  N4  UNL     1      25.620   4.663  50.070  1.00  0.00     0.102 N 
ENDROOT
BRANCH   7  12
HETATM   12  N3  UNL     1      26.104   0.500  52.865  1.00  0.00    -0.356 N 
HETATM   13  C6  UNL     1      26.654  -0.755  52.349  1.00  0.00     0.149 C 
HETATM   14  C7  UNL     1      27.606  -1.370  53.368  1.00  0.00     0.122 C 
HETATM   15 CL1  UNL     1      28.303  -2.823  52.675  1.00  0.00    -0.119 Cl
HETATM   16  C8  UNL     1      28.639  -0.292  53.607  1.00  0.00    -0.007 C 
HETATM   17  C9  UNL     1      28.172   0.907  53.938  1.00  0.00    -0.005 C 
HETATM   18  C10 UNL     1      26.693   1.077  54.044  1.00  0.00     0.104 C 
HETATM   19  C11 UNL     1      26.296   2.506  54.255  1.00  0.00     0.037 C 
ENDBRANCH   7  12
BRANCH  11  20
HETATM   20  C15 UNL     1      25.607   5.514  48.899  1.00  0.00     0.311 C 
BRANCH  20  21
HETATM   21  C16 UNL     1      26.888   6.220  48.666  1.00  0.00    -0.030 A 
HETATM   22  C17 UNL     1      27.252   7.492  48.903  1.00  0.00     0.009 A 
HETATM   23  C18 UNL     1      28.596   7.274  48.386  1.00  0.00     0.001 A 
HETATM   24  C19 UNL     1      28.235   6.030  48.155  1.00  0.00     0.009 A 
ENDBRANCH  20  21
ENDBRANCH  11  20
TORSDOF 3
ENDMDL
MODEL 3
REMARK VINA RESULT:      -7.5      3.538      7.017
REMARK  3 active torsions:
REMARK  status: ('A' for Active; 'I' for Inactive)
REMARK    1  A    between atoms: C5_7  and  N3_8 
REMARK    2  A    between atoms: N4_19  and  C15_20 
REMARK    3  A    between atoms: C15_20  and  C16_21 
ROOT
HETATM    1  C1  UNL     1      25.373  -1.135  52.429  1.00  0.00     0.045 C 
HETATM    2  C2  UNL     1      25.379  -0.174  53.597  1.00  0.00     0.249 C 
HETATM    3  C3  UNL     1      23.934   0.220  53.816  1.00  0.00     0.178 A 
HETATM    4  N1  UNL     1      23.049  -0.885  53.991  1.00  0.00    -0.271 NA
HETATM    5  C4  UNL     1      21.958  -1.073  53.324  1.00  0.00     0.229 A 
HETATM    6  N2  UNL     1      21.528  -0.144  52.307  1.00  0.00    -0.224 NA
HETATM    7  C5  UNL     1      22.215   0.919  52.014  1.00  0.00     0.136 A 
HETATM    8  C12 UNL     1      23.450   1.125  52.757  1.00  0.00     0.013 A 
HETATM    9  C13 UNL     1      24.254   2.163  52.529  1.00  0.00     0.016 C 
HETATM   10  C14 UNL     1      25.493   2.214  53.388  1.00  0.00     0.301 C 
HETATM   11  N4  UNL     1      26.216   0.955  53.299  1.00  0.00     0.102 N 
ENDROOT
BRANCH   7  12
HETATM   12  N3  UNL     1      21.817   1.856  51.017  1.00  0.00    -0.356 N 
HETATM   13  C6  UNL     1      22.254   1.582  49.647  1.00  0.00     0.149 C 
HETATM   14  C7  UNL     1      22.007   2.799  48.763  1.00  0.00     0.122 C 
HETATM   15 CL1  UNL     1      22.467   2.397  47.118  1.00  0.00    -0.119 Cl
HETATM   16  C8  UNL     1      20.526   3.062  48.900  1.00  0.00    -0.007 C 
HETATM   17  C9  UNL     1      20.061   3.175  50.140  1.00  0.00    -0.005 C 
HETATM   18  C10 UNL     1      21.030   3.034  51.266  1.00  0.00     0.104 C 
HETATM   19  C11 UNL     1      20.354   3.012  52.603  1.00  0.00     0.037 C 
ENDBRANCH   7  12
BRANCH  11  20
HETATM   20  C15 UNL     1      27.270   1.033  54.289  1.00  0.00     0.311 C 
BRANCH  20  21
HETATM   21  C16 UNL     1      28.466   0.231  53.945  1.00  0.00    -0.030 A 
HETATM   22  C17 UNL     1      29.764   0.569  53.862  1.00  0.00     0.009 A 
HETATM   23  C18 UNL     1      30.161  -0.781  53.488  1.00  0.00     0.001 A 
HETATM   24  C19 UNL     1      28.890  -1.108  53.570  1.00  0.00     0.009 A 
ENDBRANCH  20  21
ENDBRANCH  11  20
TORSDOF 3
ENDMDL
MODEL 4
REMARK VINA RESULT:      -7.4      1.466      2.220
REMARK  3 active torsions:
REMARK  status: ('A' for Active; 'I' for Inactive)
REMARK    1  A    between atoms: C5_7  and  N3_8 
REMARK    2  A    between atoms: N4_19  and  C15_20 
REMARK    3  A    between atoms: C15_20  and  C16_21 
ROOT
HETATM    1  C1  UNL     1      23.448   3.651  52.982  1.00  0.00     0.045 C 
HETATM    2  C2  UNL     1      23.362   3.138  51.561  1.00  0.00     0.249 C 
HETATM    3  C3  UNL     1      23.648   1.654  51.639  1.00  0.00     0.178 A 
HETATM    4  N1  UNL     1      22.811   0.946  52.553  1.00  0.00    -0.271 NA
HETATM    5  C4  UNL     1      23.233   0.163  53.490  1.00  0.00     0.229 A 
HETATM    6  N2  UNL     1      24.641  -0.070  53.699  1.00  0.00    -0.224 NA
HETATM    7  C5  UNL     1      25.548   0.495  52.959  1.00  0.00     0.136 A 
HETATM    8  C12 UNL     1      25.073   1.387  51.910  1.00  0.00     0.013 A 
HETATM    9  C13 UNL     1      25.905   2.046  51.104  1.00  0.00     0.016 C 
HETATM   10  C14 UNL     1      25.239   2.929  50.080  1.00  0.00     0.301 C 
HETATM   11  N4  UNL     1      24.305   3.835  50.731  1.00  0.00     0.102 N 
ENDROOT
BRANCH   7  12
HETATM   12  N3  UNL     1      26.945   0.285  53.138  1.00  0.00    -0.356 N 
HETATM   13  C6  UNL     1      27.668   1.297  53.911  1.00  0.00     0.149 C 
HETATM   14  C7  UNL     1      29.171   1.092  53.770  1.00  0.00     0.122 C 
HETATM   15 CL1  UNL     1      29.992   2.271  54.777  1.00  0.00    -0.119 Cl
HETATM   16  C8  UNL     1      29.398  -0.326  54.241  1.00  0.00    -0.007 C 
HETATM   17  C9  UNL     1      28.654  -1.264  53.663  1.00  0.00    -0.005 C 
HETATM   18  C10 UNL     1      27.680  -0.837  52.617  1.00  0.00     0.104 C 
HETATM   19  C11 UNL     1      26.792  -1.958  52.171  1.00  0.00     0.037 C 
ENDBRANCH   7  12
BRANCH  11  20
HETATM   20  C15 UNL     1      23.589   4.500  49.663  1.00  0.00     0.311 C 
BRANCH  20  21
HETATM   21  C16 UNL     1      22.662   3.609  48.926  1.00  0.00    -0.030 A 
HETATM   22  C17 UNL     1      21.323   3.627  48.811  1.00  0.00     0.009 A 
HETATM   23  C18 UNL     1      21.315   2.449  47.955  1.00  0.00     0.001 A 
HETATM   24  C19 UNL     1      22.625   2.435  48.071  1.00  0.00     0.009 A 
ENDBRANCH  20  21
ENDBRANCH  11  20
TORSDOF 3
ENDMDL
MODEL 5
REMARK VINA RESULT:      -7.3      2.983      6.833
REMARK  3 active torsions:
REMARK  status: ('A' for Active; 'I' for Inactive)
REMARK    1  A    between atoms: C5_7  and  N3_8 
REMARK    2  A    between atoms: N4_19  and  C15_20 
REMARK    3  A    between atoms: C15_20  and  C16_21 
ROOT
HETATM    1  C1  UNL     1      22.667  -1.333  52.708  1.00  0.00     0.045 C 
HETATM    2  C2  UNL     1      23.283  -0.403  53.730  1.00  0.00     0.249 C 
HETATM    3  C3  UNL     1      22.398   0.824  53.759  1.00  0.00     0.178 A 
HETATM    4  N1  UNL     1      21.020   0.543  54.000  1.00  0.00    -0.271 NA
HETATM    5  C4  UNL     1      20.040   0.958  53.267  1.00  0.00     0.229 A 
HETATM    6  N2  UNL     1      20.266   1.772  52.098  1.00  0.00    -0.224 NA
HETATM    7  C5  UNL     1      21.461   2.124  51.727  1.00  0.00     0.136 A 
HETATM    8  C12 UNL     1      22.567   1.647  52.545  1.00  0.00     0.013 A 
HETATM    9  C13 UNL     1      23.839   1.917  52.253  1.00  0.00     0.016 C 
HETATM   10  C14 UNL     1      24.852   1.337  53.208  1.00  0.00     0.301 C 
HETATM   11  N4  UNL     1      24.637  -0.094  53.359  1.00  0.00     0.102 N 
ENDROOT
BRANCH   7  12
HETATM   12  N3  UNL     1      21.719   2.928  50.579  1.00  0.00    -0.356 N 
HETATM   13  C6  UNL     1      22.124   4.313  50.825  1.00  0.00     0.149 C 
HETATM   14  C7  UNL     1      22.078   5.113  49.528  1.00  0.00     0.122 C 
HETATM   15 CL1  UNL     1      22.650   6.739  49.855  1.00  0.00    -0.119 Cl
HETATM   16  C8  UNL     1      22.994   4.356  48.594  1.00  0.00    -0.007 C 
HETATM   17  C9  UNL     1      22.747   3.057  48.454  1.00  0.00    -0.005 C 
HETATM   18  C10 UNL     1      21.606   2.475  49.218  1.00  0.00     0.104 C 
HETATM   19  C11 UNL     1      21.543   0.982  49.104  1.00  0.00     0.037 C 
ENDBRANCH   7  12
BRANCH  11  20
HETATM   20  C15 UNL     1      25.523  -0.518  54.421  1.00  0.00     0.311 C 
BRANCH  20  21
HETATM   21  C16 UNL     1      26.959  -0.400  54.077  1.00  0.00    -0.030 A 
HETATM   22  C17 UNL     1      27.678  -0.948  53.082  1.00  0.00     0.009 A 
HETATM   23  C18 UNL     1      28.906  -0.304  53.525  1.00  0.00     0.001 A 
HETATM   24  C19 UNL     1      28.199   0.231  54.497  1.00  0.00     0.009 A 
ENDBRANCH  20  21
ENDBRANCH  11  20
TORSDOF 3
ENDMDL
MODEL 6
REMARK VINA RESULT:      -7.3      3.197      7.179
REMARK  3 active torsions:
REMARK  status: ('A' for Active; 'I' for Inactive)
REMARK    1  A    between atoms: C5_7  and  N3_8 
REMARK    2  A    between atoms: N4_19  and  C15_20 
REMARK    3  A    between atoms: C15_20  and  C16_21 
ROOT
HETATM    1  C1  UNL     1      26.714   2.650  53.554  1.00  0.00     0.045 C 
HETATM    2  C2  UNL     1      26.563   1.263  52.971  1.00  0.00     0.249 C 
HETATM    3  C3  UNL     1      26.050   1.460  51.561  1.00  0.00     0.178 A 
HETATM    4  N1  UNL     1      26.854   2.329  50.765  1.00  0.00    -0.271 NA
HETATM    5  C4  UNL     1      26.414   3.350  50.107  1.00  0.00     0.229 A 
HETATM    6  N2  UNL     1      25.017   3.711  50.123  1.00  0.00    -0.224 NA
HETATM    7  C5  UNL     1      24.140   3.030  50.798  1.00  0.00     0.136 A 
HETATM    8  C12 UNL     1      24.637   1.886  51.550  1.00  0.00     0.013 A 
HETATM    9  C13 UNL     1      23.842   1.126  52.302  1.00  0.00     0.016 C 
HETATM   10  C14 UNL     1      24.529  -0.012  53.014  1.00  0.00     0.301 C 
HETATM   11  N4  UNL     1      25.662   0.487  53.779  1.00  0.00     0.102 N 
ENDROOT
BRANCH   7  12
HETATM   12  N3  UNL     1      22.754   3.358  50.834  1.00  0.00    -0.356 N 
HETATM   13  C6  UNL     1      21.879   2.616  49.924  1.00  0.00     0.149 C 
HETATM   14  C7  UNL     1      20.504   3.269  49.867  1.00  0.00     0.122 C 
HETATM   15 CL1  UNL     1      19.469   2.300  48.833  1.00  0.00    -0.119 Cl
HETATM   16  C8  UNL     1      20.038   3.277  51.304  1.00  0.00    -0.007 C 
HETATM   17  C9  UNL     1      20.871   3.816  52.189  1.00  0.00    -0.005 C 
HETATM   18  C10 UNL     1      22.169   4.356  51.689  1.00  0.00     0.104 C 
HETATM   19  C11 UNL     1      23.080   4.776  52.802  1.00  0.00     0.037 C 
ENDBRANCH   7  12
BRANCH  11  20
HETATM   20  C15 UNL     1      26.357  -0.685  54.265  1.00  0.00     0.311 C 
BRANCH  20  21
HETATM   21  C16 UNL     1      27.816  -0.659  54.007  1.00  0.00    -0.030 A 
HETATM   22  C17 UNL     1      28.569  -1.330  53.120  1.00  0.00     0.009 A 
HETATM   23  C18 UNL     1      29.795  -0.694  53.579  1.00  0.00     0.001 A 
HETATM   24  C19 UNL     1      29.055  -0.039  54.446  1.00  0.00     0.009 A 
ENDBRANCH  20  21
ENDBRANCH  11  20
TORSDOF 3
ENDMDL
MODEL 7
REMARK VINA RESULT:      -7.2      2.787      6.873
REMARK  3 active torsions:
REMARK  status: ('A' for Active; 'I' for Inactive)
REMARK    1  A    between atoms: C5_7  and  N3_8 
REMARK    2  A    between atoms: N4_19  and  C15_20 
REMARK    3  A    between atoms: C15_20  and  C16_21 
ROOT
HETATM    1  C1  UNL     1      21.547   0.264  51.211  1.00  0.00     0.045 C 
HETATM    2  C2  UNL     1      22.172   0.710  52.515  1.00  0.00     0.249 C 
HETATM    3  C3  UNL     1      21.708   2.134  52.731  1.00  0.00     0.178 A 
HETATM    4  N1  UNL     1      20.291   2.297  52.693  1.00  0.00    -0.271 NA
HETATM    5  C4  UNL     1      19.663   3.155  51.959  1.00  0.00     0.229 A 
HETATM    6  N2  UNL     1      20.371   4.056  51.082  1.00  0.00    -0.224 NA
HETATM    7  C5  UNL     1      21.667   4.046  50.988  1.00  0.00     0.136 A 
HETATM    8  C12 UNL     1      22.374   3.071  51.805  1.00  0.00     0.013 A 
HETATM    9  C13 UNL     1      23.701   2.944  51.777  1.00  0.00     0.016 C 
HETATM   10  C14 UNL     1      24.262   1.879  52.685  1.00  0.00     0.301 C 
HETATM   11  N4  UNL     1      23.604   0.607  52.432  1.00  0.00     0.102 N 
ENDROOT
BRANCH   7  12
HETATM   12  N3  UNL     1      22.396   4.923  50.133  1.00  0.00    -0.356 N 
HETATM   13  C6  UNL     1      22.950   6.130  50.749  1.00  0.00     0.149 C 
HETATM   14  C7  UNL     1      23.438   7.093  49.673  1.00  0.00     0.122 C 
HETATM   15 CL1  UNL     1      24.167   8.482  50.457  1.00  0.00    -0.119 Cl
HETATM   16  C8  UNL     1      24.440   6.285  48.882  1.00  0.00    -0.007 C 
HETATM   17  C9  UNL     1      24.020   5.110  48.424  1.00  0.00    -0.005 C 
HETATM   18  C10 UNL     1      22.617   4.703  48.729  1.00  0.00     0.104 C 
HETATM   19  C11 UNL     1      22.326   3.296  48.306  1.00  0.00     0.037 C 
ENDBRANCH   7  12
BRANCH  11  20
HETATM   20  C15 UNL     1      24.070  -0.293  53.466  1.00  0.00     0.311 C 
BRANCH  20  21
HETATM   21  C16 UNL     1      25.544  -0.440  53.503  1.00  0.00    -0.030 A 
HETATM   22  C17 UNL     1      26.398  -1.001  52.630  1.00  0.00     0.009 A 
HETATM   23  C18 UNL     1      27.553  -0.691  53.460  1.00  0.00     0.001 A 
HETATM   24  C19 UNL     1      26.714  -0.143  54.311  1.00  0.00     0.009 A 
ENDBRANCH  20  21
ENDBRANCH  11  20
TORSDOF 3
ENDMDL
MODEL 8
REMARK VINA RESULT:      -7.2      3.664      7.332
REMARK  3 active torsions:
REMARK  status: ('A' for Active; 'I' for Inactive)
REMARK    1  A    between atoms: C5_7  and  N3_8 
REMARK    2  A    between atoms: N4_19  and  C15_20 
REMARK    3  A    between atoms: C15_20  and  C16_21 
ROOT
HETATM    1  C1  UNL     1      23.481   1.663  51.980  1.00  0.00     0.045 C 
HETATM    2  C2  UNL     1      24.553   2.731  51.959  1.00  0.00     0.249 C 
HETATM    3  C3  UNL     1      23.844   4.022  51.611  1.00  0.00     0.178 A 
HETATM    4  N1  UNL     1      22.746   4.332  52.467  1.00  0.00    -0.271 NA
HETATM    5  C4  UNL     1      21.551   4.619  52.065  1.00  0.00     0.229 A 
HETATM    6  N2  UNL     1      21.215   4.649  50.663  1.00  0.00    -0.224 NA
HETATM    7  C5  UNL     1      22.094   4.389  49.741  1.00  0.00     0.136 A 
HETATM    8  C12 UNL     1      23.437   4.055  50.193  1.00  0.00     0.013 A 
HETATM    9  C13 UNL     1      24.418   3.743  49.346  1.00  0.00     0.016 C 
HETATM   10  C14 UNL     1      25.742   3.420  49.991  1.00  0.00     0.301 C 
HETATM   11  N4  UNL     1      25.568   2.388  51.002  1.00  0.00     0.102 N 
ENDROOT
BRANCH   7  12
HETATM   12  N3  UNL     1      21.796   4.412  48.348  1.00  0.00    -0.356 N 
HETATM   13  C6  UNL     1      22.085   5.657  47.634  1.00  0.00     0.149 C 
HETATM   14  C7  UNL     1      21.453   5.628  46.248  1.00  0.00     0.122 C 
HETATM   15 CL1  UNL     1      21.894   7.100  45.402  1.00  0.00    -0.119 Cl
HETATM   16  C8  UNL     1      22.036   4.393  45.601  1.00  0.00    -0.007 C 
HETATM   17  C9  UNL     1      21.922   3.260  46.286  1.00  0.00    -0.005 C 
HETATM   18  C10 UNL     1      21.236   3.310  47.611  1.00  0.00     0.104 C 
HETATM   19  C11 UNL     1      21.325   2.009  48.349  1.00  0.00     0.037 C 
ENDBRANCH   7  12
BRANCH  11  20
HETATM   20  C15 UNL     1      26.841   2.283  51.683  1.00  0.00     0.311 C 
BRANCH  20  21
HETATM   21  C16 UNL     1      27.081   0.953  52.290  1.00  0.00    -0.030 A 
HETATM   22  C17 UNL     1      26.637  -0.268  51.946  1.00  0.00     0.009 A 
HETATM   23  C18 UNL     1      27.347  -0.908  53.044  1.00  0.00     0.001 A 
HETATM   24  C19 UNL     1      27.778   0.289  53.377  1.00  0.00     0.009 A 
ENDBRANCH  20  21
ENDBRANCH  11  20
TORSDOF 3
ENDMDL
MODEL 9
REMARK VINA RESULT:      -7.2      2.883      3.983
REMARK  3 active torsions:
REMARK  status: ('A' for Active; 'I' for Inactive)
REMARK    1  A    between atoms: C5_7  and  N3_8 
REMARK    2  A    between atoms: N4_19  and  C15_20 
REMARK    3  A    between atoms: C15_20  and  C16_21 
ROOT
HETATM    1  C1  UNL     1      23.545   4.630  49.066  1.00  0.00     0.045 C 
HETATM    2  C2  UNL     1      22.224   3.944  49.333  1.00  0.00     0.249 C 
HETATM    3  C3  UNL     1      22.158   3.743  50.832  1.00  0.00     0.178 A 
HETATM    4  N1  UNL     1      22.343   4.938  51.588  1.00  0.00    -0.271 NA
HETATM    5  C4  UNL     1      23.193   5.082  52.550  1.00  0.00     0.229 A 
HETATM    6  N2  UNL     1      24.062   4.004  52.954  1.00  0.00    -0.224 NA
HETATM    7  C5  UNL     1      24.031   2.842  52.372  1.00  0.00     0.136 A 
HETATM    8  C12 UNL     1      23.080   2.683  51.281  1.00  0.00     0.013 A 
HETATM    9  C13 UNL     1      22.972   1.549  50.589  1.00  0.00     0.016 C 
HETATM   10  C14 UNL     1      21.940   1.565  49.490  1.00  0.00     0.301 C 
HETATM   11  N4  UNL     1      22.161   2.703  48.611  1.00  0.00     0.102 N 
ENDROOT
BRANCH   7  12
HETATM   12  N3  UNL     1      24.873   1.756  52.749  1.00  0.00    -0.356 N 
HETATM   13  C6  UNL     1      24.306   0.777  53.679  1.00  0.00     0.149 C 
HETATM   14  C7  UNL     1      25.402  -0.143  54.205  1.00  0.00     0.122 C 
HETATM   15 CL1  UNL     1      24.665  -1.347  55.247  1.00  0.00    -0.119 Cl
HETATM   16  C8  UNL     1      26.007  -0.749  52.960  1.00  0.00    -0.007 C 
HETATM   17  C9  UNL     1      26.404   0.106  52.023  1.00  0.00    -0.005 C 
HETATM   18  C10 UNL     1      26.221   1.564  52.284  1.00  0.00     0.104 C 
HETATM   19  C11 UNL     1      26.550   2.404  51.088  1.00  0.00     0.037 C 
ENDBRANCH   7  12
BRANCH  11  20
HETATM   20  C15 UNL     1      21.025   2.737  47.715  1.00  0.00     0.311 C 
BRANCH  20  21
HETATM   21  C16 UNL     1      21.179   3.699  46.599  1.00  0.00    -0.030 A 
HETATM   22  C17 UNL     1      21.989   3.686  45.526  1.00  0.00     0.009 A 
HETATM   23  C18 UNL     1      21.465   4.952  45.033  1.00  0.00     0.001 A 
HETATM   24  C19 UNL     1      20.675   4.961  46.084  1.00  0.00     0.009 A 
ENDBRANCH  20  21
ENDBRANCH  11  20
TORSDOF 3
ENDMDL
