MODEL 1
REMARK VINA RESULT:      -8.0      0.000      0.000
REMARK  7 active torsions:
REMARK  status: ('A' for Active; 'I' for Inactive)
REMARK       I    between atoms: C1_2  and  N1_3 
REMARK       I    between atoms: C1_2  and  N3_12 
REMARK    1  A    between atoms: N1_3  and  C2_4 
REMARK    2  A    between atoms: C2_4  and  C3_5 
REMARK    3  A    between atoms: C3_5  and  N2_6 
REMARK    4  A    between atoms: N3_12  and  C8_13 
REMARK    5  A    between atoms: C11_16  and  O3_17 
REMARK    6  A    between atoms: O3_17  and  C12_18 
REMARK    7  A    between atoms: C12_18  and  C13_19 
ROOT
HETATM    1  C8  UNL     1      20.316  -0.632  53.796  1.00  0.00     0.038 A 
HETATM    2  C9  UNL     1      21.078  -1.652  54.321  1.00  0.00     0.032 A 
HETATM    3  C10 UNL     1      22.437  -1.485  54.295  1.00  0.00     0.041 A 
HETATM    4  C11 UNL     1      23.146  -0.421  53.809  1.00  0.00     0.091 A 
HETATM    5  C18 UNL     1      22.326   0.602  53.281  1.00  0.00     0.069 A 
HETATM    6 CL1  UNL     1      22.771   2.151  52.549  1.00  0.00    -0.081 Cl
HETATM    7  C19 UNL     1      20.925   0.508  53.268  1.00  0.00     0.056 A 
ENDROOT
BRANCH   1   8
HETATM    8  N3  UNL     1      18.908  -0.844  53.841  1.00  0.00    -0.309 N 
HETATM    9  C1  UNL     1      17.940  -0.837  52.801  1.00  0.00     0.320 C 
HETATM   10  O1  UNL     1      18.332  -0.614  51.628  1.00  0.00    -0.247 OA
HETATM   11  N1  UNL     1      16.607  -1.088  53.197  1.00  0.00    -0.341 N 
HETATM   12  H1  UNL     1      16.349  -1.266  54.187  1.00  0.00     0.164 HD
HETATM   13  H14 UNL     1      18.708  -1.016  54.853  1.00  0.00     0.170 HD
BRANCH  11  14
HETATM   14  C2  UNL     1      15.578  -1.093  52.173  1.00  0.00     0.154 C 
BRANCH  14  15
HETATM   15  C3  UNL     1      15.050   0.291  51.946  1.00  0.00     0.292 C 
BRANCH  15  16
HETATM   16  N2  UNL     1      14.573   0.953  53.122  1.00  0.00     0.094 N 
HETATM   17  C4  UNL     1      13.368   0.399  53.655  1.00  0.00     0.298 C 
HETATM   18  C5  UNL     1      12.382   1.402  54.153  1.00  0.00     0.198 C 
HETATM   19  O2  UNL     1      12.206   2.507  53.358  1.00  0.00    -0.388 OA
HETATM   20  C6  UNL     1      13.066   2.581  52.276  1.00  0.00     0.198 C 
HETATM   21  C7  UNL     1      14.465   2.363  52.818  1.00  0.00     0.298 C 
ENDBRANCH  15  16
ENDBRANCH  14  15
ENDBRANCH  11  14
ENDBRANCH   1   8
BRANCH   4  22
HETATM   22  O3  UNL     1      24.387   0.040  53.637  1.00  0.00    -0.344 OA
BRANCH  22  23
HETATM   23  C12 UNL     1      25.559  -0.572  53.356  1.00  0.00     0.235 C 
BRANCH  23  24
HETATM   24  C13 UNL     1      26.746   0.270  53.607  1.00  0.00     0.058 A 
HETATM   25  C14 UNL     1      27.123   1.506  53.189  1.00  0.00     0.029 A 
HETATM   26  C15 UNL     1      28.292   2.137  53.504  1.00  0.00     0.003 A 
HETATM   27  C16 UNL     1      29.177   1.470  54.318  1.00  0.00     0.019 A 
HETATM   28  C17 UNL     1      28.818   0.217  54.752  1.00  0.00     0.117 A 
HETATM   29  N4  UNL     1      27.666  -0.339  54.409  1.00  0.00    -0.263 NA
ENDBRANCH  23  24
ENDBRANCH  22  23
ENDBRANCH   4  22
TORSDOF 7
ENDMDL
MODEL 2
REMARK VINA RESULT:      -7.9      2.464      2.937
REMARK  7 active torsions:
REMARK  status: ('A' for Active; 'I' for Inactive)
REMARK       I    between atoms: C1_2  and  N1_3 
REMARK       I    between atoms: C1_2  and  N3_12 
REMARK    1  A    between atoms: N1_3  and  C2_4 
REMARK    2  A    between atoms: C2_4  and  C3_5 
REMARK    3  A    between atoms: C3_5  and  N2_6 
REMARK    4  A    between atoms: N3_12  and  C8_13 
REMARK    5  A    between atoms: C11_16  and  O3_17 
REMARK    6  A    between atoms: O3_17  and  C12_18 
REMARK    7  A    between atoms: C12_18  and  C13_19 
ROOT
HETATM    1  C8  UNL     1      21.457   0.760  52.380  1.00  0.00     0.038 A 
HETATM    2  C9  UNL     1      22.515   1.315  51.696  1.00  0.00     0.032 A 
HETATM    3  C10 UNL     1      23.771   1.028  52.162  1.00  0.00     0.041 A 
HETATM    4  C11 UNL     1      24.116   0.251  53.233  1.00  0.00     0.091 A 
HETATM    5  C18 UNL     1      23.000  -0.298  53.906  1.00  0.00     0.069 A 
HETATM    6 CL1  UNL     1      22.936  -1.351  55.328  1.00  0.00    -0.081 Cl
HETATM    7  C19 UNL     1      21.680  -0.053  53.493  1.00  0.00     0.056 A 
ENDROOT
BRANCH   1   8
HETATM    8  N3  UNL     1      20.168   1.081  51.866  1.00  0.00    -0.309 N 
HETATM    9  C1  UNL     1      19.378   2.252  52.019  1.00  0.00     0.320 C 
HETATM   10  O1  UNL     1      19.842   3.192  52.712  1.00  0.00    -0.247 OA
HETATM   11  N1  UNL     1      18.126   2.243  51.365  1.00  0.00    -0.341 N 
HETATM   12  H1  UNL     1      17.802   1.430  50.806  1.00  0.00     0.164 HD
HETATM   13  H14 UNL     1      19.894   0.234  51.317  1.00  0.00     0.170 HD
BRANCH  11  14
HETATM   14  C2  UNL     1      17.280   3.415  51.489  1.00  0.00     0.154 C 
BRANCH  14  15
HETATM   15  C3  UNL     1      15.857   3.018  51.739  1.00  0.00     0.292 C 
BRANCH  15  16
HETATM   16  N2  UNL     1      14.981   4.100  52.071  1.00  0.00     0.094 N 
HETATM   17  C4  UNL     1      14.624   4.158  53.454  1.00  0.00     0.298 C 
HETATM   18  C5  UNL     1      13.198   4.511  53.722  1.00  0.00     0.198 C 
HETATM   19  O2  UNL     1      12.274   3.899  52.913  1.00  0.00    -0.388 OA
HETATM   20  C6  UNL     1      12.815   3.143  51.887  1.00  0.00     0.198 C 
HETATM   21  C7  UNL     1      13.835   4.022  51.191  1.00  0.00     0.298 C 
ENDBRANCH  15  16
ENDBRANCH  14  15
ENDBRANCH  11  14
ENDBRANCH   1   8
BRANCH   4  22
HETATM   22  O3  UNL     1      25.165  -0.208  53.920  1.00  0.00    -0.344 OA
BRANCH  22  23
HETATM   23  C12 UNL     1      26.202   0.409  54.527  1.00  0.00     0.235 C 
BRANCH  23  24
HETATM   24  C13 UNL     1      27.522  -0.137  54.156  1.00  0.00     0.058 A 
HETATM   25  C14 UNL     1      28.795   0.312  54.301  1.00  0.00     0.029 A 
HETATM   26  C15 UNL     1      29.924  -0.323  53.868  1.00  0.00     0.003 A 
HETATM   27  C16 UNL     1      29.769  -1.528  53.223  1.00  0.00     0.019 A 
HETATM   28  C17 UNL     1      28.490  -2.001  53.063  1.00  0.00     0.117 A 
HETATM   29  N4  UNL     1      27.436  -1.334  53.508  1.00  0.00    -0.263 NA
ENDBRANCH  23  24
ENDBRANCH  22  23
ENDBRANCH   4  22
TORSDOF 7
ENDMDL
MODEL 3
REMARK VINA RESULT:      -7.5      7.155     10.392
REMARK  7 active torsions:
REMARK  status: ('A' for Active; 'I' for Inactive)
REMARK       I    between atoms: C1_2  and  N1_3 
REMARK       I    between atoms: C1_2  and  N3_12 
REMARK    1  A    between atoms: N1_3  and  C2_4 
REMARK    2  A    between atoms: C2_4  and  C3_5 
REMARK    3  A    between atoms: C3_5  and  N2_6 
REMARK    4  A    between atoms: N3_12  and  C8_13 
REMARK    5  A    between atoms: C11_16  and  O3_17 
REMARK    6  A    between atoms: O3_17  and  C12_18 
REMARK    7  A    between atoms: C12_18  and  C13_19 
ROOT
HETATM    1  C8  UNL     1      25.201   3.418  50.170  1.00  0.00     0.038 A 
HETATM    2  C9  UNL     1      26.464   2.981  50.503  1.00  0.00     0.032 A 
HETATM    3  C10 UNL     1      26.542   1.891  51.330  1.00  0.00     0.041 A 
HETATM    4  C11 UNL     1      25.515   1.172  51.876  1.00  0.00     0.091 A 
HETATM    5  C18 UNL     1      24.238   1.655  51.509  1.00  0.00     0.069 A 
HETATM    6 CL1  UNL     1      22.630   1.067  51.955  1.00  0.00    -0.081 Cl
HETATM    7  C19 UNL     1      24.071   2.766  50.666  1.00  0.00     0.056 A 
ENDROOT
BRANCH   1   8
HETATM    8  N3  UNL     1      25.162   4.552  49.309  1.00  0.00    -0.309 N 
HETATM    9  C1  UNL     1      24.982   5.930  49.604  1.00  0.00     0.320 C 
HETATM   10  O1  UNL     1      24.827   6.263  50.806  1.00  0.00    -0.247 OA
HETATM   11  N1  UNL     1      24.994   6.806  48.495  1.00  0.00    -0.341 N 
HETATM   12  H1  UNL     1      25.127   6.465  47.524  1.00  0.00     0.164 HD
HETATM   13  H14 UNL     1      25.299   4.152  48.352  1.00  0.00     0.170 HD
BRANCH  11  14
HETATM   14  C2  UNL     1      24.815   8.225  48.742  1.00  0.00     0.154 C 
BRANCH  14  15
HETATM   15  C3  UNL     1      25.901   9.019  48.083  1.00  0.00     0.292 C 
BRANCH  15  16
HETATM   16  N2  UNL     1      26.566   9.954  48.939  1.00  0.00     0.094 N 
HETATM   17  C4  UNL     1      27.300  10.963  48.242  1.00  0.00     0.298 C 
HETATM   18  C5  UNL     1      28.621  11.310  48.846  1.00  0.00     0.198 C 
HETATM   19  O2  UNL     1      29.373  10.247  49.280  1.00  0.00    -0.388 OA
HETATM   20  C6  UNL     1      28.734   9.021  49.206  1.00  0.00     0.198 C 
HETATM   21  C7  UNL     1      27.380   9.196  49.865  1.00  0.00     0.298 C 
ENDBRANCH  15  16
ENDBRANCH  14  15
ENDBRANCH  11  14
ENDBRANCH   1   8
BRANCH   4  22
HETATM   22  O3  UNL     1      25.250   0.130  52.668  1.00  0.00    -0.344 OA
BRANCH  22  23
HETATM   23  C12 UNL     1      25.767  -0.276  53.849  1.00  0.00     0.235 C 
BRANCH  23  24
HETATM   24  C13 UNL     1      27.240  -0.366  53.857  1.00  0.00     0.058 A 
HETATM   25  C14 UNL     1      28.227   0.473  54.264  1.00  0.00     0.029 A 
HETATM   26  C15 UNL     1      29.569   0.237  54.174  1.00  0.00     0.003 A 
HETATM   27  C16 UNL     1      29.970  -0.957  53.620  1.00  0.00     0.019 A 
HETATM   28  C17 UNL     1      28.989  -1.820  53.199  1.00  0.00     0.117 A 
HETATM   29  N4  UNL     1      27.702  -1.529  53.316  1.00  0.00    -0.263 NA
ENDBRANCH  23  24
ENDBRANCH  22  23
ENDBRANCH   4  22
TORSDOF 7
ENDMDL
MODEL 4
REMARK VINA RESULT:      -7.5      7.111     11.623
REMARK  7 active torsions:
REMARK  status: ('A' for Active; 'I' for Inactive)
REMARK       I    between atoms: C1_2  and  N1_3 
REMARK       I    between atoms: C1_2  and  N3_12 
REMARK    1  A    between atoms: N1_3  and  C2_4 
REMARK    2  A    between atoms: C2_4  and  C3_5 
REMARK    3  A    between atoms: C3_5  and  N2_6 
REMARK    4  A    between atoms: N3_12  and  C8_13 
REMARK    5  A    between atoms: C11_16  and  O3_17 
REMARK    6  A    between atoms: O3_17  and  C12_18 
REMARK    7  A    between atoms: C12_18  and  C13_19 
ROOT
HETATM    1  C8  UNL     1      25.708   3.941  50.464  1.00  0.00     0.038 A 
HETATM    2  C9  UNL     1      26.721   3.012  50.553  1.00  0.00     0.032 A 
HETATM    3  C10 UNL     1      26.432   1.844  51.209  1.00  0.00     0.041 A 
HETATM    4  C11 UNL     1      25.253   1.476  51.796  1.00  0.00     0.091 A 
HETATM    5  C18 UNL     1      24.242   2.458  51.681  1.00  0.00     0.069 A 
HETATM    6 CL1  UNL     1      22.573   2.444  52.271  1.00  0.00    -0.081 Cl
HETATM    7  C19 UNL     1      24.456   3.681  51.025  1.00  0.00     0.056 A 
ENDROOT
BRANCH   1   8
HETATM    8  N3  UNL     1      26.046   5.140  49.775  1.00  0.00    -0.309 N 
HETATM    9  C1  UNL     1      27.173   5.456  48.970  1.00  0.00     0.320 C 
HETATM   10  O1  UNL     1      28.048   4.570  48.802  1.00  0.00    -0.247 OA
HETATM   11  N1  UNL     1      27.199   6.761  48.427  1.00  0.00    -0.341 N 
HETATM   12  H1  UNL     1      26.440   7.447  48.605  1.00  0.00     0.164 HD
HETATM   13  H14 UNL     1      25.255   5.790  49.989  1.00  0.00     0.170 HD
BRANCH  11  14
HETATM   14  C2  UNL     1      28.328   7.134  47.596  1.00  0.00     0.154 C 
BRANCH  14  15
HETATM   15  C3  UNL     1      29.360   7.864  48.401  1.00  0.00     0.292 C 
BRANCH  15  16
HETATM   16  N2  UNL     1      30.710   7.667  47.969  1.00  0.00     0.094 N 
HETATM   17  C4  UNL     1      30.887   6.544  47.103  1.00  0.00     0.298 C 
HETATM   18  C5  UNL     1      32.123   5.745  47.351  1.00  0.00     0.198 C 
HETATM   19  O2  UNL     1      32.422   5.509  48.669  1.00  0.00    -0.388 OA
HETATM   20  C6  UNL     1      31.596   6.156  49.573  1.00  0.00     0.198 C 
HETATM   21  C7  UNL     1      31.544   7.610  49.149  1.00  0.00     0.298 C 
ENDBRANCH  15  16
ENDBRANCH  14  15
ENDBRANCH  11  14
ENDBRANCH   1   8
BRANCH   4  22
HETATM   22  O3  UNL     1      24.666   0.486  52.472  1.00  0.00    -0.344 OA
BRANCH  22  23
HETATM   23  C12 UNL     1      25.062  -0.263  53.525  1.00  0.00     0.235 C 
BRANCH  23  24
HETATM   24  C13 UNL     1      26.523  -0.455  53.605  1.00  0.00     0.058 A 
HETATM   25  C14 UNL     1      27.399  -1.260  52.949  1.00  0.00     0.029 A 
HETATM   26  C15 UNL     1      28.744  -1.329  53.170  1.00  0.00     0.003 A 
HETATM   27  C16 UNL     1      29.273  -0.514  54.144  1.00  0.00     0.019 A 
HETATM   28  C17 UNL     1      28.406   0.307  54.822  1.00  0.00     0.117 A 
HETATM   29  N4  UNL     1      27.108   0.326  54.557  1.00  0.00    -0.263 NA
ENDBRANCH  23  24
ENDBRANCH  22  23
ENDBRANCH   4  22
TORSDOF 7
ENDMDL
MODEL 5
REMARK VINA RESULT:      -7.5      2.197      2.708
REMARK  7 active torsions:
REMARK  status: ('A' for Active; 'I' for Inactive)
REMARK       I    between atoms: C1_2  and  N1_3 
REMARK       I    between atoms: C1_2  and  N3_12 
REMARK    1  A    between atoms: N1_3  and  C2_4 
REMARK    2  A    between atoms: C2_4  and  C3_5 
REMARK    3  A    between atoms: C3_5  and  N2_6 
REMARK    4  A    between atoms: N3_12  and  C8_13 
REMARK    5  A    between atoms: C11_16  and  O3_17 
REMARK    6  A    between atoms: O3_17  and  C12_18 
REMARK    7  A    between atoms: C12_18  and  C13_19 
ROOT
HETATM    1  C8  UNL     1      20.725   1.253  51.569  1.00  0.00     0.038 A 
HETATM    2  C9  UNL     1      20.656   0.214  52.470  1.00  0.00     0.032 A 
HETATM    3  C10 UNL     1      21.845  -0.257  52.962  1.00  0.00     0.041 A 
HETATM    4  C11 UNL     1      23.109   0.175  52.669  1.00  0.00     0.091 A 
HETATM    5  C18 UNL     1      23.133   1.242  51.741  1.00  0.00     0.069 A 
HETATM    6 CL1  UNL     1      24.508   2.126  51.062  1.00  0.00    -0.081 Cl
HETATM    7  C19 UNL     1      21.960   1.782  51.190  1.00  0.00     0.056 A 
ENDROOT
BRANCH   1   8
HETATM    8  N3  UNL     1      19.469   1.714  51.081  1.00  0.00    -0.309 N 
HETATM    9  C1  UNL     1      18.693   2.845  51.453  1.00  0.00     0.320 C 
HETATM   10  O1  UNL     1      19.138   3.598  52.355  1.00  0.00    -0.247 OA
HETATM   11  N1  UNL     1      17.474   3.014  50.758  1.00  0.00    -0.341 N 
HETATM   12  H1  UNL     1      17.163   2.352  50.020  1.00  0.00     0.164 HD
HETATM   13  H14 UNL     1      19.206   1.016  50.348  1.00  0.00     0.170 HD
BRANCH  11  14
HETATM   14  C2  UNL     1      16.644   4.154  51.099  1.00  0.00     0.154 C 
BRANCH  14  15
HETATM   15  C3  UNL     1      15.217   3.734  51.283  1.00  0.00     0.292 C 
BRANCH  15  16
HETATM   16  N2  UNL     1      14.921   3.156  52.558  1.00  0.00     0.094 N 
HETATM   17  C4  UNL     1      13.967   2.092  52.509  1.00  0.00     0.298 C 
HETATM   18  C5  UNL     1      12.974   2.085  53.623  1.00  0.00     0.198 C 
HETATM   19  O2  UNL     1      12.455   3.309  53.963  1.00  0.00    -0.388 OA
HETATM   20  C6  UNL     1      13.028   4.382  53.302  1.00  0.00     0.198 C 
HETATM   21  C7  UNL     1      14.529   4.229  53.446  1.00  0.00     0.298 C 
ENDBRANCH  15  16
ENDBRANCH  14  15
ENDBRANCH  11  14
ENDBRANCH   1   8
BRANCH   4  22
HETATM   22  O3  UNL     1      24.397  -0.041  52.945  1.00  0.00    -0.344 OA
BRANCH  22  23
HETATM   23  C12 UNL     1      25.039  -0.426  54.070  1.00  0.00     0.235 C 
BRANCH  23  24
HETATM   24  C13 UNL     1      26.501  -0.553  53.908  1.00  0.00     0.058 A 
HETATM   25  C14 UNL     1      27.292  -1.199  53.013  1.00  0.00     0.029 A 
HETATM   26  C15 UNL     1      28.656  -1.232  53.026  1.00  0.00     0.003 A 
HETATM   27  C16 UNL     1      29.301  -0.553  54.034  1.00  0.00     0.019 A 
HETATM   28  C17 UNL     1      28.522   0.106  54.952  1.00  0.00     0.117 A 
HETATM   29  N4  UNL     1      27.199   0.099  54.882  1.00  0.00    -0.263 NA
ENDBRANCH  23  24
ENDBRANCH  22  23
ENDBRANCH   4  22
TORSDOF 7
ENDMDL
MODEL 6
REMARK VINA RESULT:      -7.3      6.359     10.150
REMARK  7 active torsions:
REMARK  status: ('A' for Active; 'I' for Inactive)
REMARK       I    between atoms: C1_2  and  N1_3 
REMARK       I    between atoms: C1_2  and  N3_12 
REMARK    1  A    between atoms: N1_3  and  C2_4 
REMARK    2  A    between atoms: C2_4  and  C3_5 
REMARK    3  A    between atoms: C3_5  and  N2_6 
REMARK    4  A    between atoms: N3_12  and  C8_13 
REMARK    5  A    between atoms: C11_16  and  O3_17 
REMARK    6  A    between atoms: O3_17  and  C12_18 
REMARK    7  A    between atoms: C12_18  and  C13_19 
ROOT
HETATM    1  C8  UNL     1      25.306   4.118  49.432  1.00  0.00     0.038 A 
HETATM    2  C9  UNL     1      26.670   4.027  49.264  1.00  0.00     0.032 A 
HETATM    3  C10 UNL     1      27.305   5.130  48.755  1.00  0.00     0.041 A 
HETATM    4  C11 UNL     1      26.752   6.326  48.387  1.00  0.00     0.091 A 
HETATM    5  C18 UNL     1      25.352   6.375  48.576  1.00  0.00     0.069 A 
HETATM    6 CL1  UNL     1      24.207   7.686  48.252  1.00  0.00    -0.081 Cl
HETATM    7  C19 UNL     1      24.626   5.289  49.091  1.00  0.00     0.056 A 
ENDROOT
BRANCH   1   8
HETATM    8  N3  UNL     1      24.684   2.952  49.962  1.00  0.00    -0.309 N 
HETATM    9  C1  UNL     1      24.292   2.639  51.291  1.00  0.00     0.320 C 
HETATM   10  O1  UNL     1      24.504   3.492  52.189  1.00  0.00    -0.247 OA
HETATM   11  N1  UNL     1      23.690   1.373  51.476  1.00  0.00    -0.341 N 
HETATM   12  H1  UNL     1      23.543   0.712  50.688  1.00  0.00     0.164 HD
HETATM   13  H14 UNL     1      24.561   2.327  49.132  1.00  0.00     0.170 HD
BRANCH  11  14
HETATM   14  C2  UNL     1      23.271   1.003  52.815  1.00  0.00     0.154 C 
BRANCH  14  15
HETATM   15  C3  UNL     1      24.252   0.056  53.435  1.00  0.00     0.292 C 
BRANCH  15  16
HETATM   16  N2  UNL     1      25.608   0.236  53.015  1.00  0.00     0.094 N 
HETATM   17  C4  UNL     1      26.298  -0.983  52.732  1.00  0.00     0.298 C 
HETATM   18  C5  UNL     1      27.716  -1.027  53.197  1.00  0.00     0.198 C 
HETATM   19  O2  UNL     1      27.946  -0.511  54.448  1.00  0.00    -0.388 OA
HETATM   20  C6  UNL     1      26.845   0.087  55.037  1.00  0.00     0.198 C 
HETATM   21  C7  UNL     1      26.272   1.046  54.013  1.00  0.00     0.298 C 
ENDBRANCH  15  16
ENDBRANCH  14  15
ENDBRANCH  11  14
ENDBRANCH   1   8
BRANCH   4  22
HETATM   22  O3  UNL     1      27.053   7.528  47.890  1.00  0.00    -0.344 OA
BRANCH  22  23
HETATM   23  C12 UNL     1      28.126   7.996  47.215  1.00  0.00     0.235 C 
BRANCH  23  24
HETATM   24  C13 UNL     1      29.303   8.253  48.069  1.00  0.00     0.058 A 
HETATM   25  C14 UNL     1      29.684   9.298  48.848  1.00  0.00     0.029 A 
HETATM   26  C15 UNL     1      30.842   9.382  49.567  1.00  0.00     0.003 A 
HETATM   27  C16 UNL     1      31.710   8.317  49.503  1.00  0.00     0.019 A 
HETATM   28  C17 UNL     1      31.346   7.250  48.719  1.00  0.00     0.117 A 
HETATM   29  N4  UNL     1      30.205   7.231  48.047  1.00  0.00    -0.263 NA
ENDBRANCH  23  24
ENDBRANCH  22  23
ENDBRANCH   4  22
TORSDOF 7
ENDMDL
MODEL 7
REMARK VINA RESULT:      -7.2      7.208     13.021
REMARK  7 active torsions:
REMARK  status: ('A' for Active; 'I' for Inactive)
REMARK       I    between atoms: C1_2  and  N1_3 
REMARK       I    between atoms: C1_2  and  N3_12 
REMARK    1  A    between atoms: N1_3  and  C2_4 
REMARK    2  A    between atoms: C2_4  and  C3_5 
REMARK    3  A    between atoms: C3_5  and  N2_6 
REMARK    4  A    between atoms: N3_12  and  C8_13 
REMARK    5  A    between atoms: C11_16  and  O3_17 
REMARK    6  A    between atoms: O3_17  and  C12_18 
REMARK    7  A    between atoms: C12_18  and  C13_19 
ROOT
HETATM    1  C8  UNL     1      25.249   7.056  50.546  1.00  0.00     0.038 A 
HETATM    2  C9  UNL     1      24.031   7.605  50.881  1.00  0.00     0.032 A 
HETATM    3  C10 UNL     1      22.931   6.798  50.744  1.00  0.00     0.041 A 
HETATM    4  C11 UNL     1      22.885   5.502  50.311  1.00  0.00     0.091 A 
HETATM    5  C18 UNL     1      24.156   4.979  49.978  1.00  0.00     0.069 A 
HETATM    6 CL1  UNL     1      24.603   3.374  49.380  1.00  0.00    -0.081 Cl
HETATM    7  C19 UNL     1      25.332   5.739  50.090  1.00  0.00     0.056 A 
ENDROOT
BRANCH   1   8
HETATM    8  N3  UNL     1      26.366   7.924  50.702  1.00  0.00    -0.309 N 
HETATM    9  C1  UNL     1      27.161   8.590  49.731  1.00  0.00     0.320 C 
HETATM   10  O1  UNL     1      26.878   8.423  48.518  1.00  0.00    -0.247 OA
HETATM   11  N1  UNL     1      28.212   9.390  50.235  1.00  0.00    -0.341 N 
HETATM   12  H1  UNL     1      28.393   9.486  51.253  1.00  0.00     0.164 HD
HETATM   13  H14 UNL     1      26.502   7.983  51.738  1.00  0.00     0.170 HD
BRANCH  11  14
HETATM   14  C2  UNL     1      29.054  10.092  49.284  1.00  0.00     0.154 C 
BRANCH  14  15
HETATM   15  C3  UNL     1      30.468   9.602  49.365  1.00  0.00     0.292 C 
BRANCH  15  16
HETATM   16  N2  UNL     1      30.637   8.209  49.087  1.00  0.00     0.094 N 
HETATM   17  C4  UNL     1      31.858   7.659  49.585  1.00  0.00     0.298 C 
HETATM   18  C5  UNL     1      32.531   6.689  48.671  1.00  0.00     0.198 C 
HETATM   19  O2  UNL     1      32.556   7.043  47.346  1.00  0.00    -0.388 OA
HETATM   20  C6  UNL     1      31.842   8.189  47.041  1.00  0.00     0.198 C 
HETATM   21  C7  UNL     1      30.469   8.023  47.662  1.00  0.00     0.298 C 
ENDBRANCH  15  16
ENDBRANCH  14  15
ENDBRANCH  11  14
ENDBRANCH   1   8
BRANCH   4  22
HETATM   22  O3  UNL     1      22.048   4.490  50.072  1.00  0.00    -0.344 OA
BRANCH  22  23
HETATM   23  C12 UNL     1      21.122   3.869  50.836  1.00  0.00     0.235 C 
BRANCH  23  24
HETATM   24  C13 UNL     1      21.612   2.635  51.481  1.00  0.00     0.058 A 
HETATM   25  C14 UNL     1      22.687   2.349  52.260  1.00  0.00     0.029 A 
HETATM   26  C15 UNL     1      23.010   1.121  52.762  1.00  0.00     0.003 A 
HETATM   27  C16 UNL     1      22.177   0.069  52.458  1.00  0.00     0.019 A 
HETATM   28  C17 UNL     1      21.085   0.335  51.670  1.00  0.00     0.117 A 
HETATM   29  N4  UNL     1      20.828   1.552  51.215  1.00  0.00    -0.263 NA
ENDBRANCH  23  24
ENDBRANCH  22  23
ENDBRANCH   4  22
TORSDOF 7
ENDMDL
MODEL 8
REMARK VINA RESULT:      -7.2      6.562     13.185
REMARK  7 active torsions:
REMARK  status: ('A' for Active; 'I' for Inactive)
REMARK       I    between atoms: C1_2  and  N1_3 
REMARK       I    between atoms: C1_2  and  N3_12 
REMARK    1  A    between atoms: N1_3  and  C2_4 
REMARK    2  A    between atoms: C2_4  and  C3_5 
REMARK    3  A    between atoms: C3_5  and  N2_6 
REMARK    4  A    between atoms: N3_12  and  C8_13 
REMARK    5  A    between atoms: C11_16  and  O3_17 
REMARK    6  A    between atoms: O3_17  and  C12_18 
REMARK    7  A    between atoms: C12_18  and  C13_19 
ROOT
HETATM    1  C8  UNL     1      26.122   4.635  49.698  1.00  0.00     0.038 A 
HETATM    2  C9  UNL     1      24.831   4.811  49.254  1.00  0.00     0.032 A 
HETATM    3  C10 UNL     1      23.919   3.851  49.609  1.00  0.00     0.041 A 
HETATM    4  C11 UNL     1      24.128   2.726  50.358  1.00  0.00     0.091 A 
HETATM    5  C18 UNL     1      25.466   2.585  50.793  1.00  0.00     0.069 A 
HETATM    6 CL1  UNL     1      26.215   1.314  51.771  1.00  0.00    -0.081 Cl
HETATM    7  C19 UNL     1      26.461   3.523  50.472  1.00  0.00     0.056 A 
ENDROOT
BRANCH   1   8
HETATM    8  N3  UNL     1      27.039   5.652  49.309  1.00  0.00    -0.309 N 
HETATM    9  C1  UNL     1      28.262   5.568  48.589  1.00  0.00     0.320 C 
HETATM   10  O1  UNL     1      28.647   4.434  48.208  1.00  0.00    -0.247 OA
HETATM   11  N1  UNL     1      28.936   6.791  48.370  1.00  0.00    -0.341 N 
HETATM   12  H1  UNL     1      28.561   7.696  48.713  1.00  0.00     0.164 HD
HETATM   13  H14 UNL     1      26.615   6.534  49.679  1.00  0.00     0.170 HD
BRANCH  11  14
HETATM   14  C2  UNL     1      30.189   6.760  47.639  1.00  0.00     0.154 C 
BRANCH  14  15
HETATM   15  C3  UNL     1      31.327   6.422  48.553  1.00  0.00     0.292 C 
BRANCH  15  16
HETATM   16  N2  UNL     1      32.575   6.183  47.895  1.00  0.00     0.094 N 
HETATM   17  C4  UNL     1      33.528   5.474  48.690  1.00  0.00     0.298 C 
HETATM   18  C5  UNL     1      34.934   5.958  48.568  1.00  0.00     0.198 C 
HETATM   19  O2  UNL     1      35.094   7.321  48.558  1.00  0.00    -0.388 OA
HETATM   20  C6  UNL     1      33.910   8.040  48.535  1.00  0.00     0.198 C 
HETATM   21  C7  UNL     1      33.070   7.456  47.417  1.00  0.00     0.298 C 
ENDBRANCH  15  16
ENDBRANCH  14  15
ENDBRANCH  11  14
ENDBRANCH   1   8
BRANCH   4  22
HETATM   22  O3  UNL     1      23.511   1.654  50.859  1.00  0.00    -0.344 OA
BRANCH  22  23
HETATM   23  C12 UNL     1      22.262   1.456  51.335  1.00  0.00     0.235 C 
BRANCH  23  24
HETATM   24  C13 UNL     1      22.201   0.535  52.488  1.00  0.00     0.058 A 
HETATM   25  C14 UNL     1      21.181  -0.069  53.150  1.00  0.00     0.029 A 
HETATM   26  C15 UNL     1      21.304  -0.888  54.235  1.00  0.00     0.003 A 
HETATM   27  C16 UNL     1      22.572  -1.131  54.711  1.00  0.00     0.019 A 
HETATM   28  C17 UNL     1      23.619  -0.528  54.058  1.00  0.00     0.117 A 
HETATM   29  N4  UNL     1      23.430   0.257  53.008  1.00  0.00    -0.263 NA
ENDBRANCH  23  24
ENDBRANCH  22  23
ENDBRANCH   4  22
TORSDOF 7
ENDMDL
MODEL 9
REMARK VINA RESULT:      -7.1      7.214     13.499
REMARK  7 active torsions:
REMARK  status: ('A' for Active; 'I' for Inactive)
REMARK       I    between atoms: C1_2  and  N1_3 
REMARK       I    between atoms: C1_2  and  N3_12 
REMARK    1  A    between atoms: N1_3  and  C2_4 
REMARK    2  A    between atoms: C2_4  and  C3_5 
REMARK    3  A    between atoms: C3_5  and  N2_6 
REMARK    4  A    between atoms: N3_12  and  C8_13 
REMARK    5  A    between atoms: C11_16  and  O3_17 
REMARK    6  A    between atoms: O3_17  and  C12_18 
REMARK    7  A    between atoms: C12_18  and  C13_19 
ROOT
HETATM    1  C8  UNL     1      27.154   5.526  48.811  1.00  0.00     0.038 A 
HETATM    2  C9  UNL     1      27.344   4.165  48.894  1.00  0.00     0.032 A 
HETATM    3  C10 UNL     1      26.462   3.464  49.674  1.00  0.00     0.041 A 
HETATM    4  C11 UNL     1      25.403   3.947  50.391  1.00  0.00     0.091 A 
HETATM    5  C18 UNL     1      25.245   5.348  50.278  1.00  0.00     0.069 A 
HETATM    6 CL1  UNL     1      24.039   6.418  51.010  1.00  0.00    -0.081 Cl
HETATM    7  C19 UNL     1      26.106   6.139  49.500  1.00  0.00     0.056 A 
ENDROOT
BRANCH   1   8
HETATM    8  N3  UNL     1      28.091   6.219  47.992  1.00  0.00    -0.309 N 
HETATM    9  C1  UNL     1      29.509   6.272  48.053  1.00  0.00     0.320 C 
HETATM   10  O1  UNL     1      30.088   5.621  48.959  1.00  0.00    -0.247 OA
HETATM   11  N1  UNL     1      30.140   7.068  47.071  1.00  0.00    -0.341 N 
HETATM   12  H1  UNL     1      29.601   7.583  46.348  1.00  0.00     0.164 HD
HETATM   13  H14 UNL     1      27.497   6.715  47.288  1.00  0.00     0.170 HD
BRANCH  11  14
HETATM   14  C2  UNL     1      31.589   7.157  47.089  1.00  0.00     0.154 C 
BRANCH  14  15
HETATM   15  C3  UNL     1      32.195   6.101  46.214  1.00  0.00     0.292 C 
BRANCH  15  16
HETATM   16  N2  UNL     1      33.495   5.661  46.618  1.00  0.00     0.094 N 
HETATM   17  C4  UNL     1      34.135   4.794  45.679  1.00  0.00     0.298 C 
HETATM   18  C5  UNL     1      34.883   3.653  46.284  1.00  0.00     0.198 C 
HETATM   19  O2  UNL     1      34.252   3.013  47.321  1.00  0.00    -0.388 OA
HETATM   20  C6  UNL     1      33.069   3.607  47.730  1.00  0.00     0.198 C 
HETATM   21  C7  UNL     1      33.370   5.078  47.936  1.00  0.00     0.298 C 
ENDBRANCH  15  16
ENDBRANCH  14  15
ENDBRANCH  11  14
ENDBRANCH   1   8
BRANCH   4  22
HETATM   22  O3  UNL     1      24.409   3.575  51.201  1.00  0.00    -0.344 OA
BRANCH  22  23
HETATM   23  C12 UNL     1      24.392   3.054  52.448  1.00  0.00     0.235 C 
BRANCH  23  24
HETATM   24  C13 UNL     1      25.502   2.119  52.719  1.00  0.00     0.058 A 
HETATM   25  C14 UNL     1      26.645   2.209  53.447  1.00  0.00     0.029 A 
HETATM   26  C15 UNL     1      27.594   1.236  53.573  1.00  0.00     0.003 A 
HETATM   27  C16 UNL     1      27.385   0.051  52.905  1.00  0.00     0.019 A 
HETATM   28  C17 UNL     1      26.236  -0.061  52.161  1.00  0.00     0.117 A 
HETATM   29  N4  UNL     1      25.354   0.923  52.082  1.00  0.00    -0.263 NA
ENDBRANCH  23  24
ENDBRANCH  22  23
ENDBRANCH   4  22
TORSDOF 7
ENDMDL
