MODEL 1
REMARK VINA RESULT:      -8.6      0.000      0.000
REMARK  3 active torsions:
REMARK  status: ('A' for Active; 'I' for Inactive)
REMARK       I    between atoms: N1_1  and  C1_2 
REMARK       I    between atoms: C1_2  and  N2_4 
REMARK    1  A    between atoms: N2_4  and  C2_5 
REMARK    2  A    between atoms: C7_12  and  N5_13 
REMARK    3  A    between atoms: N5_13  and  C8_14 
ROOT
HETATM    1  C2  UNL     1      21.938   0.626  51.894  1.00  0.00     0.037 A 
HETATM    2  C3  UNL     1      21.425   0.880  50.626  1.00  0.00     0.032 A 
HETATM    3  C4  UNL     1      22.081   1.706  49.730  1.00  0.00     0.035 A 
HETATM    4  C5  UNL     1      23.259   2.241  50.203  1.00  0.00     0.072 A 
HETATM    5  N3  UNL     1      23.910   3.050  49.333  1.00  0.00    -0.241 NA
HETATM    6  C6  UNL     1      25.071   3.618  49.711  1.00  0.00     0.236 A 
HETATM    7  N4  UNL     1      25.582   3.386  50.934  1.00  0.00    -0.224 NA
HETATM    8  C7  UNL     1      24.973   2.590  51.830  1.00  0.00     0.142 A 
HETATM    9  C13 UNL     1      23.792   2.009  51.450  1.00  0.00     0.041 A 
HETATM   10  C14 UNL     1      23.129   1.185  52.331  1.00  0.00     0.047 A 
ENDROOT
BRANCH   8  11
HETATM   11  N5  UNL     1      25.581   2.421  53.100  1.00  0.00    -0.339 N 
HETATM   12  H7  UNL     1      25.309   2.829  54.015  1.00  0.00     0.167 HD
BRANCH  11  13
HETATM   13  C8  UNL     1      26.729   1.588  53.212  1.00  0.00     0.048 A 
HETATM   14  C9  UNL     1      27.964   2.165  53.539  1.00  0.00     0.034 A 
HETATM   15  C10 UNL     1      29.075   1.368  53.656  1.00  0.00     0.046 A 
HETATM   16  C11 UNL     1      29.343   0.029  53.529  1.00  0.00     0.139 A 
HETATM   17  F1  UNL     1      30.566  -0.520  53.706  1.00  0.00    -0.204 F 
HETATM   18  C12 UNL     1      28.309  -0.860  53.202  1.00  0.00     0.087 A 
HETATM   19 CL1  UNL     1      28.587  -2.585  53.030  1.00  0.00    -0.079 Cl
HETATM   20  P1  UNL     1      26.746  -0.129  52.984  1.00  0.00     0.024 P 
ENDBRANCH  11  13
ENDBRANCH   8  11
BRANCH   1  21
HETATM   21  N2  UNL     1      21.181  -0.211  52.745  1.00  0.00    -0.309 N 
HETATM   22  C1  UNL     1      20.999  -0.758  54.028  1.00  0.00     0.318 C 
HETATM   23  N1  UNL     1      19.922  -1.634  54.253  1.00  0.00    -0.352 N 
HETATM   24  O1  UNL     1      21.764  -0.498  54.998  1.00  0.00    -0.247 OA
HETATM   25  H1  UNL     1      19.417  -2.319  53.653  1.00  0.00     0.160 HD
HETATM   26  H2  UNL     1      19.124  -2.305  54.360  1.00  0.00     0.160 HD
HETATM   27  H3  UNL     1      20.473  -0.498  52.000  1.00  0.00     0.170 HD
ENDBRANCH   1  21
TORSDOF 3
ENDMDL
MODEL 2
REMARK VINA RESULT:      -8.4      2.811      4.308
REMARK  3 active torsions:
REMARK  status: ('A' for Active; 'I' for Inactive)
REMARK       I    between atoms: N1_1  and  C1_2 
REMARK       I    between atoms: C1_2  and  N2_4 
REMARK    1  A    between atoms: N2_4  and  C2_5 
REMARK    2  A    between atoms: C7_12  and  N5_13 
REMARK    3  A    between atoms: N5_13  and  C8_14 
ROOT
HETATM    1  C2  UNL     1      20.509   0.429  51.757  1.00  0.00     0.037 A 
HETATM    2  C3  UNL     1      19.620  -0.156  52.653  1.00  0.00     0.032 A 
HETATM    3  C4  UNL     1      20.060  -0.778  53.810  1.00  0.00     0.035 A 
HETATM    4  C5  UNL     1      21.427  -0.764  53.981  1.00  0.00     0.072 A 
HETATM    5  N3  UNL     1      21.867  -1.370  55.111  1.00  0.00    -0.241 NA
HETATM    6  C6  UNL     1      23.191  -1.403  55.360  1.00  0.00     0.236 A 
HETATM    7  N4  UNL     1      24.065  -0.845  54.505  1.00  0.00    -0.224 NA
HETATM    8  C7  UNL     1      23.675  -0.232  53.373  1.00  0.00     0.142 A 
HETATM    9  C13 UNL     1      22.330  -0.194  53.115  1.00  0.00     0.041 A 
HETATM   10  C14 UNL     1      21.878   0.422  51.969  1.00  0.00     0.047 A 
ENDROOT
BRANCH   8  11
HETATM   11  N5  UNL     1      24.673   0.312  52.526  1.00  0.00    -0.339 N 
HETATM   12  H7  UNL     1      24.564   0.805  51.619  1.00  0.00     0.167 HD
BRANCH  11  13
HETATM   13  C8  UNL     1      26.039   0.205  52.909  1.00  0.00     0.048 A 
HETATM   14  C9  UNL     1      26.727  -0.991  52.663  1.00  0.00     0.034 A 
HETATM   15  C10 UNL     1      28.047  -1.101  53.023  1.00  0.00     0.046 A 
HETATM   16  C11 UNL     1      28.976  -0.286  53.618  1.00  0.00     0.139 A 
HETATM   17  F1  UNL     1      30.255  -0.646  53.866  1.00  0.00    -0.204 F 
HETATM   18  C12 UNL     1      28.616   1.014  54.004  1.00  0.00     0.087 A 
HETATM   19 CL1  UNL     1      29.759   2.106  54.765  1.00  0.00    -0.079 Cl
HETATM   20  P1  UNL     1      26.966   1.454  53.670  1.00  0.00     0.024 P 
ENDBRANCH  11  13
ENDBRANCH   8  11
BRANCH   1  21
HETATM   21  N2  UNL     1      19.963   1.017  50.594  1.00  0.00    -0.309 N 
HETATM   22  C1  UNL     1      20.148   1.408  49.255  1.00  0.00     0.318 C 
HETATM   23  N1  UNL     1      19.083   2.017  48.566  1.00  0.00    -0.352 N 
HETATM   24  O1  UNL     1      21.233   1.235  48.634  1.00  0.00    -0.247 OA
HETATM   25  H1  UNL     1      18.294   2.629  48.863  1.00  0.00     0.160 HD
HETATM   26  H2  UNL     1      18.271   2.496  48.110  1.00  0.00     0.160 HD
HETATM   27  H3  UNL     1      19.004   1.210  51.018  1.00  0.00     0.170 HD
ENDBRANCH   1  21
TORSDOF 3
ENDMDL
MODEL 3
REMARK VINA RESULT:      -8.2      3.835      5.481
REMARK  3 active torsions:
REMARK  status: ('A' for Active; 'I' for Inactive)
REMARK       I    between atoms: N1_1  and  C1_2 
REMARK       I    between atoms: C1_2  and  N2_4 
REMARK    1  A    between atoms: N2_4  and  C2_5 
REMARK    2  A    between atoms: C7_12  and  N5_13 
REMARK    3  A    between atoms: N5_13  and  C8_14 
ROOT
HETATM    1  C2  UNL     1      21.628  -1.004  54.217  1.00  0.00     0.037 A 
HETATM    2  C3  UNL     1      22.301  -1.632  55.260  1.00  0.00     0.032 A 
HETATM    3  C4  UNL     1      23.668  -1.494  55.428  1.00  0.00     0.035 A 
HETATM    4  C5  UNL     1      24.282  -0.698  54.486  1.00  0.00     0.072 A 
HETATM    5  N3  UNL     1      25.621  -0.556  54.643  1.00  0.00    -0.241 NA
HETATM    6  C6  UNL     1      26.304   0.206  53.767  1.00  0.00     0.236 A 
HETATM    7  N4  UNL     1      25.671   0.819  52.751  1.00  0.00    -0.224 NA
HETATM    8  C7  UNL     1      24.345   0.709  52.557  1.00  0.00     0.142 A 
HETATM    9  C13 UNL     1      23.645  -0.064  53.445  1.00  0.00     0.041 A 
HETATM   10  C14 UNL     1      22.285  -0.209  53.291  1.00  0.00     0.047 A 
ENDROOT
BRANCH   8  11
HETATM   11  N5  UNL     1      23.771   1.380  51.447  1.00  0.00    -0.339 N 
HETATM   12  H7  UNL     1      23.227   0.987  50.655  1.00  0.00     0.167 HD
BRANCH  11  13
HETATM   13  C8  UNL     1      23.922   2.790  51.338  1.00  0.00     0.048 A 
HETATM   14  C9  UNL     1      23.288   3.620  52.273  1.00  0.00     0.034 A 
HETATM   15  C10 UNL     1      23.433   4.981  52.180  1.00  0.00     0.046 A 
HETATM   16  C11 UNL     1      24.091   5.846  51.343  1.00  0.00     0.139 A 
HETATM   17  F1  UNL     1      24.076   7.191  51.476  1.00  0.00    -0.204 F 
HETATM   18  C12 UNL     1      24.842   5.341  50.272  1.00  0.00     0.087 A 
HETATM   19 CL1  UNL     1      25.710   6.394  49.168  1.00  0.00    -0.079 Cl
HETATM   20  P1  UNL     1      24.849   3.607  50.125  1.00  0.00     0.024 P 
ENDBRANCH  11  13
ENDBRANCH   8  11
BRANCH   1  21
HETATM   21  N2  UNL     1      20.236  -1.227  54.116  1.00  0.00    -0.309 N 
HETATM   22  C1  UNL     1      19.030  -0.956  53.445  1.00  0.00     0.318 C 
HETATM   23  N1  UNL     1      17.845  -1.569  53.892  1.00  0.00    -0.352 N 
HETATM   24  O1  UNL     1      18.957  -0.183  52.450  1.00  0.00    -0.247 OA
HETATM   25  H1  UNL     1      17.507  -1.880  54.827  1.00  0.00     0.160 HD
HETATM   26  H2  UNL     1      16.987  -2.025  54.285  1.00  0.00     0.160 HD
HETATM   27  H3  UNL     1      20.181  -1.898  54.943  1.00  0.00     0.170 HD
ENDBRANCH   1  21
TORSDOF 3
ENDMDL
MODEL 4
REMARK VINA RESULT:      -8.1      3.939      6.271
REMARK  3 active torsions:
REMARK  status: ('A' for Active; 'I' for Inactive)
REMARK       I    between atoms: N1_1  and  C1_2 
REMARK       I    between atoms: C1_2  and  N2_4 
REMARK    1  A    between atoms: N2_4  and  C2_5 
REMARK    2  A    between atoms: C7_12  and  N5_13 
REMARK    3  A    between atoms: N5_13  and  C8_14 
ROOT
HETATM    1  C2  UNL     1      24.902  -0.619  54.244  1.00  0.00     0.037 A 
HETATM    2  C3  UNL     1      24.204  -1.195  55.301  1.00  0.00     0.032 A 
HETATM    3  C4  UNL     1      22.820  -1.219  55.329  1.00  0.00     0.035 A 
HETATM    4  C5  UNL     1      22.216  -0.631  54.239  1.00  0.00     0.072 A 
HETATM    5  N3  UNL     1      20.861  -0.650  54.257  1.00  0.00    -0.241 NA
HETATM    6  C6  UNL     1      20.186  -0.097  53.231  1.00  0.00     0.236 A 
HETATM    7  N4  UNL     1      20.843   0.467  52.201  1.00  0.00    -0.224 NA
HETATM    8  C7  UNL     1      22.186   0.508  52.139  1.00  0.00     0.142 A 
HETATM    9  C13 UNL     1      22.878  -0.054  53.180  1.00  0.00     0.041 A 
HETATM   10  C14 UNL     1      24.254  -0.038  53.165  1.00  0.00     0.047 A 
ENDROOT
BRANCH   8  11
HETATM   11  N5  UNL     1      22.787   1.139  51.021  1.00  0.00    -0.339 N 
HETATM   12  H7  UNL     1      22.996   0.748  50.083  1.00  0.00     0.167 HD
BRANCH  11  13
HETATM   13  C8  UNL     1      23.184   2.501  51.127  1.00  0.00     0.048 A 
HETATM   14  C9  UNL     1      22.592   3.312  52.105  1.00  0.00     0.034 A 
HETATM   15  C10 UNL     1      22.974   4.625  52.220  1.00  0.00     0.046 A 
HETATM   16  C11 UNL     1      23.863   5.451  51.580  1.00  0.00     0.139 A 
HETATM   17  F1  UNL     1      24.057   6.750  51.899  1.00  0.00    -0.204 F 
HETATM   18  C12 UNL     1      24.641   4.953  50.525  1.00  0.00     0.087 A 
HETATM   19 CL1  UNL     1      25.798   5.957  49.670  1.00  0.00    -0.079 Cl
HETATM   20  P1  UNL     1      24.373   3.277  50.137  1.00  0.00     0.024 P 
ENDBRANCH  11  13
ENDBRANCH   8  11
BRANCH   1  21
HETATM   21  N2  UNL     1      26.313  -0.622  54.320  1.00  0.00    -0.309 N 
HETATM   22  C1  UNL     1      27.501   0.114  54.472  1.00  0.00     0.318 C 
HETATM   23  N1  UNL     1      28.734  -0.563  54.458  1.00  0.00    -0.352 N 
HETATM   24  O1  UNL     1      27.517   1.368  54.622  1.00  0.00    -0.247 OA
HETATM   25  H1  UNL     1      29.073  -1.425  53.981  1.00  0.00     0.160 HD
HETATM   26  H2  UNL     1      29.626  -1.111  54.408  1.00  0.00     0.160 HD
HETATM   27  H3  UNL     1      26.418  -1.677  54.202  1.00  0.00     0.170 HD
ENDBRANCH   1  21
TORSDOF 3
ENDMDL
MODEL 5
REMARK VINA RESULT:      -7.9      5.034      6.956
REMARK  3 active torsions:
REMARK  status: ('A' for Active; 'I' for Inactive)
REMARK       I    between atoms: N1_1  and  C1_2 
REMARK       I    between atoms: C1_2  and  N2_4 
REMARK    1  A    between atoms: N2_4  and  C2_5 
REMARK    2  A    between atoms: C7_12  and  N5_13 
REMARK    3  A    between atoms: N5_13  and  C8_14 
ROOT
HETATM    1  C2  UNL     1      25.471   1.783  53.529  1.00  0.00     0.037 A 
HETATM    2  C3  UNL     1      24.716   0.616  53.487  1.00  0.00     0.032 A 
HETATM    3  C4  UNL     1      23.401   0.617  53.055  1.00  0.00     0.035 A 
HETATM    4  C5  UNL     1      22.923   1.855  52.682  1.00  0.00     0.072 A 
HETATM    5  N3  UNL     1      21.637   1.867  52.257  1.00  0.00    -0.241 NA
HETATM    6  C6  UNL     1      21.087   3.035  51.872  1.00  0.00     0.236 A 
HETATM    7  N4  UNL     1      21.801   4.175  51.908  1.00  0.00    -0.224 NA
HETATM    8  C7  UNL     1      23.080   4.212  52.321  1.00  0.00     0.142 A 
HETATM    9  C13 UNL     1      23.645   3.026  52.712  1.00  0.00     0.041 A 
HETATM   10  C14 UNL     1      24.952   3.009  53.143  1.00  0.00     0.047 A 
ENDROOT
BRANCH   8  11
HETATM   11  N5  UNL     1      23.744   5.464  52.339  1.00  0.00    -0.339 N 
HETATM   12  H7  UNL     1      24.011   6.051  53.152  1.00  0.00     0.167 HD
BRANCH  11  13
HETATM   13  C8  UNL     1      24.130   6.060  51.106  1.00  0.00     0.048 A 
HETATM   14  C9  UNL     1      24.954   5.343  50.228  1.00  0.00     0.034 A 
HETATM   15  C10 UNL     1      25.325   5.906  49.033  1.00  0.00     0.046 A 
HETATM   16  C11 UNL     1      25.093   7.097  48.392  1.00  0.00     0.139 A 
HETATM   17  F1  UNL     1      25.591   7.414  47.176  1.00  0.00    -0.204 F 
HETATM   18  C12 UNL     1      24.288   8.070  49.002  1.00  0.00     0.087 A 
HETATM   19 CL1  UNL     1      23.950   9.611  48.232  1.00  0.00    -0.079 Cl
HETATM   20  P1  UNL     1      23.657   7.635  50.564  1.00  0.00     0.024 P 
ENDBRANCH  11  13
ENDBRANCH   8  11
BRANCH   1  21
HETATM   21  N2  UNL     1      26.796   1.682  54.009  1.00  0.00    -0.309 N 
HETATM   22  C1  UNL     1      28.163   1.948  53.807  1.00  0.00     0.318 C 
HETATM   23  N1  UNL     1      29.092   1.538  54.780  1.00  0.00    -0.352 N 
HETATM   24  O1  UNL     1      28.601   2.545  52.785  1.00  0.00    -0.247 OA
HETATM   25  H1  UNL     1      29.124   0.740  55.449  1.00  0.00     0.160 HD
HETATM   26  H2  UNL     1      29.745   1.182  55.518  1.00  0.00     0.160 HD
HETATM   27  H3  UNL     1      26.539   1.173  54.910  1.00  0.00     0.170 HD
ENDBRANCH   1  21
TORSDOF 3
ENDMDL
MODEL 6
REMARK VINA RESULT:      -7.8      4.594      6.291
REMARK  3 active torsions:
REMARK  status: ('A' for Active; 'I' for Inactive)
REMARK       I    between atoms: N1_1  and  C1_2 
REMARK       I    between atoms: C1_2  and  N2_4 
REMARK    1  A    between atoms: N2_4  and  C2_5 
REMARK    2  A    between atoms: C7_12  and  N5_13 
REMARK    3  A    between atoms: N5_13  and  C8_14 
ROOT
HETATM    1  C2  UNL     1      23.232   0.069  53.007  1.00  0.00     0.037 A 
HETATM    2  C3  UNL     1      24.436  -0.569  53.288  1.00  0.00     0.032 A 
HETATM    3  C4  UNL     1      25.647  -0.058  52.853  1.00  0.00     0.035 A 
HETATM    4  C5  UNL     1      25.547   1.111  52.130  1.00  0.00     0.072 A 
HETATM    5  N3  UNL     1      26.727   1.619  51.700  1.00  0.00    -0.241 NA
HETATM    6  C6  UNL     1      26.725   2.761  50.985  1.00  0.00     0.236 A 
HETATM    7  N4  UNL     1      25.570   3.391  50.701  1.00  0.00    -0.224 NA
HETATM    8  C7  UNL     1      24.377   2.925  51.108  1.00  0.00     0.142 A 
HETATM    9  C13 UNL     1      24.373   1.764  51.836  1.00  0.00     0.041 A 
HETATM   10  C14 UNL     1      23.177   1.245  52.277  1.00  0.00     0.047 A 
ENDROOT
BRANCH   8  11
HETATM   11  N5  UNL     1      23.214   3.650  50.744  1.00  0.00    -0.339 N 
HETATM   12  H7  UNL     1      22.547   4.164  51.351  1.00  0.00     0.167 HD
BRANCH  11  13
HETATM   13  C8  UNL     1      22.850   3.729  49.371  1.00  0.00     0.048 A 
HETATM   14  C9  UNL     1      22.588   2.548  48.664  1.00  0.00     0.034 A 
HETATM   15  C10 UNL     1      22.229   2.614  47.341  1.00  0.00     0.046 A 
HETATM   16  C11 UNL     1      22.036   3.615  46.423  1.00  0.00     0.139 A 
HETATM   17  F1  UNL     1      21.668   3.407  45.139  1.00  0.00    -0.204 F 
HETATM   18  C12 UNL     1      22.217   4.953  46.803  1.00  0.00     0.087 A 
HETATM   19 CL1  UNL     1      21.981   6.278  45.677  1.00  0.00    -0.079 Cl
HETATM   20  P1  UNL     1      22.687   5.194  48.461  1.00  0.00     0.024 P 
ENDBRANCH  11  13
ENDBRANCH   8  11
BRANCH   1  21
HETATM   21  N2  UNL     1      22.049  -0.545  53.474  1.00  0.00    -0.309 N 
HETATM   22  C1  UNL     1      21.433  -1.387  54.418  1.00  0.00     0.318 C 
HETATM   23  N1  UNL     1      20.050  -1.628  54.323  1.00  0.00    -0.352 N 
HETATM   24  O1  UNL     1      22.068  -1.944  55.357  1.00  0.00    -0.247 OA
HETATM   25  H1  UNL     1      19.384  -1.676  53.524  1.00  0.00     0.160 HD
HETATM   26  H2  UNL     1      19.026  -1.800  54.189  1.00  0.00     0.160 HD
HETATM   27  H3  UNL     1      21.415  -0.127  52.725  1.00  0.00     0.170 HD
ENDBRANCH   1  21
TORSDOF 3
ENDMDL
MODEL 7
REMARK VINA RESULT:      -7.6      1.997      2.358
REMARK  3 active torsions:
REMARK  status: ('A' for Active; 'I' for Inactive)
REMARK       I    between atoms: N1_1  and  C1_2 
REMARK       I    between atoms: C1_2  and  N2_4 
REMARK    1  A    between atoms: N2_4  and  C2_5 
REMARK    2  A    between atoms: C7_12  and  N5_13 
REMARK    3  A    between atoms: N5_13  and  C8_14 
ROOT
HETATM    1  C2  UNL     1      19.880   0.400  51.618  1.00  0.00     0.037 A 
HETATM    2  C3  UNL     1      19.495   0.824  50.350  1.00  0.00     0.032 A 
HETATM    3  C4  UNL     1      20.358   1.526  49.526  1.00  0.00     0.035 A 
HETATM    4  C5  UNL     1      21.603   1.759  50.069  1.00  0.00     0.072 A 
HETATM    5  N3  UNL     1      22.456   2.445  49.270  1.00  0.00    -0.241 NA
HETATM    6  C6  UNL     1      23.696   2.718  49.721  1.00  0.00     0.236 A 
HETATM    7  N4  UNL     1      24.085   2.318  50.945  1.00  0.00    -0.224 NA
HETATM    8  C7  UNL     1      23.275   1.635  51.771  1.00  0.00     0.142 A 
HETATM    9  C13 UNL     1      22.013   1.353  51.318  1.00  0.00     0.041 A 
HETATM   10  C14 UNL     1      21.144   0.655  52.126  1.00  0.00     0.047 A 
ENDROOT
BRANCH   8  11
HETATM   11  N5  UNL     1      23.771   1.272  53.049  1.00  0.00    -0.339 N 
HETATM   12  H7  UNL     1      23.286   1.282  53.966  1.00  0.00     0.167 HD
BRANCH  11  13
HETATM   13  C8  UNL     1      25.114   0.818  53.166  1.00  0.00     0.048 A 
HETATM   14  C9  UNL     1      25.445  -0.466  52.711  1.00  0.00     0.034 A 
HETATM   15  C10 UNL     1      26.739  -0.909  52.813  1.00  0.00     0.046 A 
HETATM   16  C11 UNL     1      27.921  -0.395  53.284  1.00  0.00     0.139 A 
HETATM   17  F1  UNL     1      29.099  -1.060  53.265  1.00  0.00    -0.204 F 
HETATM   18  C12 UNL     1      27.952   0.899  53.822  1.00  0.00     0.087 A 
HETATM   19 CL1  UNL     1      29.433   1.614  54.437  1.00  0.00    -0.079 Cl
HETATM   20  P1  UNL     1      26.425   1.733  53.831  1.00  0.00     0.024 P 
ENDBRANCH  11  13
ENDBRANCH   8  11
BRANCH   1  21
HETATM   21  N2  UNL     1      18.918  -0.287  52.392  1.00  0.00    -0.309 N 
HETATM   22  C1  UNL     1      18.643  -1.290  53.339  1.00  0.00     0.318 C 
HETATM   23  N1  UNL     1      17.313  -1.504  53.745  1.00  0.00    -0.352 N 
HETATM   24  O1  UNL     1      19.542  -2.016  53.849  1.00  0.00    -0.247 OA
HETATM   25  H1  UNL     1      16.393  -1.398  53.270  1.00  0.00     0.160 HD
HETATM   26  H2  UNL     1      16.304  -1.644  53.989  1.00  0.00     0.160 HD
HETATM   27  H3  UNL     1      18.082   0.267  52.029  1.00  0.00     0.170 HD
ENDBRANCH   1  21
TORSDOF 3
ENDMDL
MODEL 8
REMARK VINA RESULT:      -7.5      4.187      6.421
REMARK  3 active torsions:
REMARK  status: ('A' for Active; 'I' for Inactive)
REMARK       I    between atoms: N1_1  and  C1_2 
REMARK       I    between atoms: C1_2  and  N2_4 
REMARK    1  A    between atoms: N2_4  and  C2_5 
REMARK    2  A    between atoms: C7_12  and  N5_13 
REMARK    3  A    between atoms: N5_13  and  C8_14 
ROOT
HETATM    1  C2  UNL     1      25.407   7.145  50.285  1.00  0.00     0.037 A 
HETATM    2  C3  UNL     1      24.331   7.994  50.522  1.00  0.00     0.032 A 
HETATM    3  C4  UNL     1      23.055   7.504  50.746  1.00  0.00     0.035 A 
HETATM    4  C5  UNL     1      22.957   6.130  50.708  1.00  0.00     0.072 A 
HETATM    5  N3  UNL     1      21.712   5.640  50.926  1.00  0.00    -0.241 NA
HETATM    6  C6  UNL     1      21.523   4.306  50.908  1.00  0.00     0.236 A 
HETATM    7  N4  UNL     1      22.551   3.470  50.677  1.00  0.00    -0.224 NA
HETATM    8  C7  UNL     1      23.802   3.909  50.458  1.00  0.00     0.142 A 
HETATM    9  C13 UNL     1      24.001   5.265  50.476  1.00  0.00     0.041 A 
HETATM   10  C14 UNL     1      25.264   5.767  50.256  1.00  0.00     0.047 A 
ENDROOT
BRANCH   8  11
HETATM   11  N5  UNL     1      24.816   2.951  50.207  1.00  0.00    -0.339 N 
HETATM   12  H7  UNL     1      25.214   2.642  49.300  1.00  0.00     0.167 HD
BRANCH  11  13
HETATM   13  C8  UNL     1      25.419   2.278  51.306  1.00  0.00     0.048 A 
HETATM   14  C9  UNL     1      26.758   2.546  51.621  1.00  0.00     0.034 A 
HETATM   15  C10 UNL     1      27.346   1.908  52.684  1.00  0.00     0.046 A 
HETATM   16  C11 UNL     1      26.949   0.986  53.620  1.00  0.00     0.139 A 
HETATM   17  F1  UNL     1      27.749   0.506  54.598  1.00  0.00    -0.204 F 
HETATM   18  C12 UNL     1      25.638   0.491  53.598  1.00  0.00     0.087 A 
HETATM   19 CL1  UNL     1      25.068  -0.684  54.770  1.00  0.00    -0.079 Cl
HETATM   20  P1  UNL     1      24.628   1.129  52.332  1.00  0.00     0.024 P 
ENDBRANCH  11  13
ENDBRANCH   8  11
BRANCH   1  21
HETATM   21  N2  UNL     1      26.664   7.744  50.043  1.00  0.00    -0.309 N 
HETATM   22  C1  UNL     1      27.447   8.912  50.035  1.00  0.00     0.318 C 
HETATM   23  N1  UNL     1      28.797   8.829  49.645  1.00  0.00    -0.352 N 
HETATM   24  O1  UNL     1      26.995  10.043  50.364  1.00  0.00    -0.247 OA
HETATM   25  H1  UNL     1      29.315   8.216  48.981  1.00  0.00     0.160 HD
HETATM   26  H2  UNL     1      29.785   8.718  49.316  1.00  0.00     0.160 HD
HETATM   27  H3  UNL     1      27.151   6.841  49.748  1.00  0.00     0.170 HD
ENDBRANCH   1  21
TORSDOF 3
ENDMDL
MODEL 9
REMARK VINA RESULT:      -7.3      3.800      6.291
REMARK  3 active torsions:
REMARK  status: ('A' for Active; 'I' for Inactive)
REMARK       I    between atoms: N1_1  and  C1_2 
REMARK       I    between atoms: C1_2  and  N2_4 
REMARK    1  A    between atoms: N2_4  and  C2_5 
REMARK    2  A    between atoms: C7_12  and  N5_13 
REMARK    3  A    between atoms: N5_13  and  C8_14 
ROOT
HETATM    1  C2  UNL     1      25.824   6.294  49.777  1.00  0.00     0.037 A 
HETATM    2  C3  UNL     1      25.132   7.464  50.072  1.00  0.00     0.032 A 
HETATM    3  C4  UNL     1      23.871   7.438  50.644  1.00  0.00     0.035 A 
HETATM    4  C5  UNL     1      23.379   6.173  50.884  1.00  0.00     0.072 A 
HETATM    5  N3  UNL     1      22.146   6.137  51.444  1.00  0.00    -0.241 NA
HETATM    6  C6  UNL     1      21.587   4.941  51.714  1.00  0.00     0.236 A 
HETATM    7  N4  UNL     1      22.239   3.799  51.434  1.00  0.00    -0.224 NA
HETATM    8  C7  UNL     1      23.464   3.786  50.880  1.00  0.00     0.142 A 
HETATM    9  C13 UNL     1      24.039   4.999  50.604  1.00  0.00     0.041 A 
HETATM   10  C14 UNL     1      25.292   5.040  50.037  1.00  0.00     0.047 A 
ENDROOT
BRANCH   8  11
HETATM   11  N5  UNL     1      24.064   2.530  50.606  1.00  0.00    -0.339 N 
HETATM   12  H7  UNL     1      24.281   2.095  49.690  1.00  0.00     0.167 HD
BRANCH  11  13
HETATM   13  C8  UNL     1      24.449   1.697  51.693  1.00  0.00     0.048 A 
HETATM   14  C9  UNL     1      23.520   0.790  52.223  1.00  0.00     0.034 A 
HETATM   15  C10 UNL     1      23.885  -0.023  53.266  1.00  0.00     0.046 A 
HETATM   16  C11 UNL     1      25.020  -0.216  54.013  1.00  0.00     0.139 A 
HETATM   17  F1  UNL     1      25.123  -1.115  55.017  1.00  0.00    -0.204 F 
HETATM   18  C12 UNL     1      26.168   0.543  53.744  1.00  0.00     0.087 A 
HETATM   19 CL1  UNL     1      27.651   0.339  54.659  1.00  0.00    -0.079 Cl
HETATM   20  P1  UNL     1      26.009   1.688  52.444  1.00  0.00     0.024 P 
ENDBRANCH  11  13
ENDBRANCH   8  11
BRANCH   1  21
HETATM   21  N2  UNL     1      27.094   6.426  49.172  1.00  0.00    -0.309 N 
HETATM   22  C1  UNL     1      28.200   5.799  48.571  1.00  0.00     0.318 C 
HETATM   23  N1  UNL     1      29.277   6.588  48.126  1.00  0.00    -0.352 N 
HETATM   24  O1  UNL     1      28.276   4.549  48.409  1.00  0.00    -0.247 OA
HETATM   25  H1  UNL     1      29.688   7.488  48.451  1.00  0.00     0.160 HD
HETATM   26  H2  UNL     1      30.065   7.218  47.842  1.00  0.00     0.160 HD
HETATM   27  H3  UNL     1      27.136   7.488  49.256  1.00  0.00     0.170 HD
ENDBRANCH   1  21
TORSDOF 3
ENDMDL
