MODEL 1
REMARK VINA RESULT:      -7.0      0.000      0.000
REMARK  7 active torsions:
REMARK  status: ('A' for Active; 'I' for Inactive)
REMARK    1  A    between atoms: O1_2  and  C2_3 
REMARK    2  A    between atoms: C2_3  and  C3_4 
REMARK    3  A    between atoms: C9_10  and  N1_11 
REMARK    4  A    between atoms: N1_11  and  C10_12 
REMARK    5  A    between atoms: C10_12  and  C11_13 
REMARK    6  A    between atoms: C13_15  and  O2_16 
REMARK    7  A    between atoms: C13_15  and  O3_17 
ROOT
HETATM    1  C3  UNL     1      27.186   0.686  53.742  1.00  0.00    -0.004 A 
HETATM    2  C4  UNL     1      27.301   1.472  52.624  1.00  0.00     0.018 A 
HETATM    3  C5  UNL     1      26.250   1.727  51.787  1.00  0.00    -0.060 A 
HETATM    4  C6  UNL     1      26.457   2.604  50.608  1.00  0.00     0.048 C 
HETATM    5  C7  UNL     1      25.040   1.164  52.095  1.00  0.00     0.024 A 
HETATM    6  C8  UNL     1      24.773   0.344  53.195  1.00  0.00     0.040 A 
HETATM    7  C9  UNL     1      23.516  -0.216  53.470  1.00  0.00     0.137 A 
HETATM    8  N2  UNL     1      23.454  -0.980  54.570  1.00  0.00    -0.224 NA
HETATM    9  C15 UNL     1      24.502  -1.204  55.364  1.00  0.00     0.236 A 
HETATM   10  N3  UNL     1      25.656  -0.639  55.037  1.00  0.00    -0.241 NA
HETATM   11  C16 UNL     1      25.910   0.148  53.986  1.00  0.00     0.080 A 
ENDROOT
BRANCH   7  12
HETATM   12  N1  UNL     1      22.585   0.160  52.501  1.00  0.00    -0.370 N 
HETATM   13  H11 UNL     1      21.911  -0.642  52.747  1.00  0.00     0.161 HD
BRANCH  12  14
HETATM   14  C10 UNL     1      21.638   0.517  51.538  1.00  0.00     0.160 C 
BRANCH  14  15
HETATM   15  C11 UNL     1      21.961   1.708  50.696  1.00  0.00    -0.008 C 
HETATM   16  C12 UNL     1      21.903   1.497  49.244  1.00  0.00     0.050 C 
HETATM   17  C13 UNL     1      22.287   2.896  51.161  1.00  0.00     0.181 C 
BRANCH  17  18
HETATM   18  O2  UNL     1      22.609   4.077  50.509  1.00  0.00    -0.341 OA
HETATM   19  H17 UNL     1      23.249   3.990  49.727  1.00  0.00     0.220 HD
ENDBRANCH  17  18
BRANCH  17  20
HETATM   20  O3  UNL     1      22.494   3.638  52.283  1.00  0.00    -0.336 OA
HETATM   21  C14 UNL     1      23.451   4.635  52.481  1.00  0.00     0.212 C 
ENDBRANCH  17  20
ENDBRANCH  14  15
ENDBRANCH  12  14
ENDBRANCH   7  12
BRANCH   1  22
HETATM   22  C2  UNL     1      28.164   0.269  54.753  1.00  0.00     0.208 C 
BRANCH  22  23
HETATM   23  O1  UNL     1      28.890  -0.825  54.432  1.00  0.00    -0.391 OA
HETATM   24  C1  UNL     1      29.983  -0.736  53.634  1.00  0.00     0.201 C 
ENDBRANCH  22  23
ENDBRANCH   1  22
TORSDOF 7
ENDMDL
MODEL 2
REMARK VINA RESULT:      -6.9      2.205      3.547
REMARK  7 active torsions:
REMARK  status: ('A' for Active; 'I' for Inactive)
REMARK    1  A    between atoms: O1_2  and  C2_3 
REMARK    2  A    between atoms: C2_3  and  C3_4 
REMARK    3  A    between atoms: C9_10  and  N1_11 
REMARK    4  A    between atoms: N1_11  and  C10_12 
REMARK    5  A    between atoms: C10_12  and  C11_13 
REMARK    6  A    between atoms: C13_15  and  O2_16 
REMARK    7  A    between atoms: C13_15  and  O3_17 
ROOT
HETATM    1  C3  UNL     1      25.799  -0.207  53.012  1.00  0.00    -0.004 A 
HETATM    2  C4  UNL     1      24.664  -0.764  53.542  1.00  0.00     0.018 A 
HETATM    3  C5  UNL     1      23.411  -0.286  53.276  1.00  0.00    -0.060 A 
HETATM    4  C6  UNL     1      22.233  -0.959  53.876  1.00  0.00     0.048 C 
HETATM    5  C7  UNL     1      23.307   0.798  52.443  1.00  0.00     0.024 A 
HETATM    6  C8  UNL     1      24.370   1.468  51.833  1.00  0.00     0.040 A 
HETATM    7  C9  UNL     1      24.217   2.579  50.989  1.00  0.00     0.137 A 
HETATM    8  N2  UNL     1      25.355   3.091  50.499  1.00  0.00    -0.224 NA
HETATM    9  C15 UNL     1      26.561   2.593  50.781  1.00  0.00     0.236 A 
HETATM   10  N3  UNL     1      26.622   1.542  51.586  1.00  0.00    -0.241 NA
HETATM   11  C16 UNL     1      25.604   0.900  52.167  1.00  0.00     0.080 A 
ENDROOT
BRANCH   7  12
HETATM   12  N1  UNL     1      22.869   2.911  50.848  1.00  0.00    -0.370 N 
HETATM   13  H11 UNL     1      22.938   2.999  49.779  1.00  0.00     0.161 HD
BRANCH  12  14
HETATM   14  C10 UNL     1      21.523   3.244  50.683  1.00  0.00     0.160 C 
BRANCH  14  15
HETATM   15  C11 UNL     1      21.177   4.694  50.788  1.00  0.00    -0.008 C 
HETATM   16  C12 UNL     1      19.824   5.060  50.352  1.00  0.00     0.050 C 
HETATM   17  C13 UNL     1      21.988   5.634  51.228  1.00  0.00     0.181 C 
BRANCH  17  18
HETATM   18  O2  UNL     1      21.808   7.001  51.379  1.00  0.00    -0.341 OA
HETATM   19  H17 UNL     1      22.655   7.559  51.391  1.00  0.00     0.220 HD
ENDBRANCH  17  18
BRANCH  17  20
HETATM   20  O3  UNL     1      23.231   5.898  51.718  1.00  0.00    -0.336 OA
HETATM   21  C14 UNL     1      24.274   6.567  51.077  1.00  0.00     0.212 C 
ENDBRANCH  17  20
ENDBRANCH  14  15
ENDBRANCH  12  14
ENDBRANCH   7  12
BRANCH   1  22
HETATM   22  C2  UNL     1      27.220  -0.537  53.171  1.00  0.00     0.208 C 
BRANCH  22  23
HETATM   23  O1  UNL     1      27.670  -0.531  54.446  1.00  0.00    -0.391 OA
HETATM   24  C1  UNL     1      28.658   0.311  54.840  1.00  0.00     0.201 C 
ENDBRANCH  22  23
ENDBRANCH   1  22
TORSDOF 7
ENDMDL
MODEL 3
REMARK VINA RESULT:      -6.8      1.721      2.116
REMARK  7 active torsions:
REMARK  status: ('A' for Active; 'I' for Inactive)
REMARK    1  A    between atoms: O1_2  and  C2_3 
REMARK    2  A    between atoms: C2_3  and  C3_4 
REMARK    3  A    between atoms: C9_10  and  N1_11 
REMARK    4  A    between atoms: N1_11  and  C10_12 
REMARK    5  A    between atoms: C10_12  and  C11_13 
REMARK    6  A    between atoms: C13_15  and  O2_16 
REMARK    7  A    between atoms: C13_15  and  O3_17 
ROOT
HETATM    1  C3  UNL     1      27.194   0.679  53.686  1.00  0.00    -0.004 A 
HETATM    2  C4  UNL     1      27.310   1.506  52.598  1.00  0.00     0.018 A 
HETATM    3  C5  UNL     1      26.252   1.827  51.794  1.00  0.00    -0.060 A 
HETATM    4  C6  UNL     1      26.462   2.744  50.648  1.00  0.00     0.048 C 
HETATM    5  C7  UNL     1      25.031   1.287  52.105  1.00  0.00     0.024 A 
HETATM    6  C8  UNL     1      24.761   0.431  53.176  1.00  0.00     0.040 A 
HETATM    7  C9  UNL     1      23.493  -0.102  53.455  1.00  0.00     0.137 A 
HETATM    8  N2  UNL     1      23.430  -0.908  54.524  1.00  0.00    -0.224 NA
HETATM    9  C15 UNL     1      24.487  -1.195  55.286  1.00  0.00     0.236 A 
HETATM   10  N3  UNL     1      25.650  -0.652  54.958  1.00  0.00    -0.241 NA
HETATM   11  C16 UNL     1      25.907   0.169  53.935  1.00  0.00     0.080 A 
ENDROOT
BRANCH   7  12
HETATM   12  N1  UNL     1      22.555   0.341  52.521  1.00  0.00    -0.370 N 
HETATM   13  H11 UNL     1      22.004   0.906  53.251  1.00  0.00     0.161 HD
BRANCH  12  14
HETATM   14  C10 UNL     1      21.604   0.797  51.606  1.00  0.00     0.160 C 
BRANCH  14  15
HETATM   15  C11 UNL     1      21.026   2.150  51.863  1.00  0.00    -0.008 C 
HETATM   16  C12 UNL     1      21.996   3.213  52.155  1.00  0.00     0.050 C 
HETATM   17  C13 UNL     1      19.741   2.437  51.850  1.00  0.00     0.181 C 
BRANCH  17  18
HETATM   18  O2  UNL     1      19.067   3.630  52.069  1.00  0.00    -0.341 OA
HETATM   19  H17 UNL     1      18.082   3.631  51.830  1.00  0.00     0.220 HD
ENDBRANCH  17  18
BRANCH  17  20
HETATM   20  O3  UNL     1      18.487   1.939  51.670  1.00  0.00    -0.336 OA
HETATM   21  C14 UNL     1      17.298   2.656  51.525  1.00  0.00     0.212 C 
ENDBRANCH  17  20
ENDBRANCH  14  15
ENDBRANCH  12  14
ENDBRANCH   7  12
BRANCH   1  22
HETATM   22  C2  UNL     1      28.179   0.193  54.659  1.00  0.00     0.208 C 
BRANCH  22  23
HETATM   23  O1  UNL     1      28.831  -0.936  54.299  1.00  0.00    -0.391 OA
HETATM   24  C1  UNL     1      29.964  -0.887  53.556  1.00  0.00     0.201 C 
ENDBRANCH  22  23
ENDBRANCH   1  22
TORSDOF 7
ENDMDL
MODEL 4
REMARK VINA RESULT:      -6.8      2.277      3.724
REMARK  7 active torsions:
REMARK  status: ('A' for Active; 'I' for Inactive)
REMARK    1  A    between atoms: O1_2  and  C2_3 
REMARK    2  A    between atoms: C2_3  and  C3_4 
REMARK    3  A    between atoms: C9_10  and  N1_11 
REMARK    4  A    between atoms: N1_11  and  C10_12 
REMARK    5  A    between atoms: C10_12  and  C11_13 
REMARK    6  A    between atoms: C13_15  and  O2_16 
REMARK    7  A    between atoms: C13_15  and  O3_17 
ROOT
HETATM    1  C3  UNL     1      25.884  -0.177  52.913  1.00  0.00    -0.004 A 
HETATM    2  C4  UNL     1      24.778  -0.704  53.530  1.00  0.00     0.018 A 
HETATM    3  C5  UNL     1      23.547  -0.113  53.474  1.00  0.00    -0.060 A 
HETATM    4  C6  UNL     1      22.399  -0.760  54.154  1.00  0.00     0.048 C 
HETATM    5  C7  UNL     1      23.433   1.056  52.767  1.00  0.00     0.024 A 
HETATM    6  C8  UNL     1      24.467   1.709  52.091  1.00  0.00     0.040 A 
HETATM    7  C9  UNL     1      24.306   2.910  51.382  1.00  0.00     0.137 A 
HETATM    8  N2  UNL     1      25.415   3.388  50.800  1.00  0.00    -0.224 NA
HETATM    9  C15 UNL     1      26.601   2.780  50.876  1.00  0.00     0.236 A 
HETATM   10  N3  UNL     1      26.672   1.649  51.564  1.00  0.00    -0.241 NA
HETATM   11  C16 UNL     1      25.681   1.023  52.208  1.00  0.00     0.080 A 
ENDROOT
BRANCH   7  12
HETATM   12  N1  UNL     1      22.983   3.349  51.448  1.00  0.00    -0.370 N 
HETATM   13  H11 UNL     1      22.733   2.936  50.487  1.00  0.00     0.161 HD
BRANCH  12  14
HETATM   14  C10 UNL     1      21.655   3.778  51.492  1.00  0.00     0.160 C 
BRANCH  14  15
HETATM   15  C11 UNL     1      20.648   2.898  50.826  1.00  0.00    -0.008 C 
HETATM   16  C12 UNL     1      19.267   3.032  51.307  1.00  0.00     0.050 C 
HETATM   17  C13 UNL     1      20.915   2.034  49.869  1.00  0.00     0.181 C 
BRANCH  17  18
HETATM   18  O2  UNL     1      20.095   1.162  49.168  1.00  0.00    -0.341 OA
HETATM   19  H17 UNL     1      19.244   1.564  48.789  1.00  0.00     0.220 HD
ENDBRANCH  17  18
BRANCH  17  20
HETATM   20  O3  UNL     1      21.892   1.504  49.083  1.00  0.00    -0.336 OA
HETATM   21  C14 UNL     1      22.349   1.980  47.854  1.00  0.00     0.212 C 
ENDBRANCH  17  20
ENDBRANCH  14  15
ENDBRANCH  12  14
ENDBRANCH   7  12
BRANCH   1  22
HETATM   22  C2  UNL     1      27.281  -0.622  52.856  1.00  0.00     0.208 C 
BRANCH  22  23
HETATM   23  O1  UNL     1      27.860  -0.848  54.057  1.00  0.00    -0.391 OA
HETATM   24  C1  UNL     1      28.464   0.151  54.747  1.00  0.00     0.201 C 
ENDBRANCH  22  23
ENDBRANCH   1  22
TORSDOF 7
ENDMDL
MODEL 5
REMARK VINA RESULT:      -6.7      2.110      2.731
REMARK  7 active torsions:
REMARK  status: ('A' for Active; 'I' for Inactive)
REMARK    1  A    between atoms: O1_2  and  C2_3 
REMARK    2  A    between atoms: C2_3  and  C3_4 
REMARK    3  A    between atoms: C9_10  and  N1_11 
REMARK    4  A    between atoms: N1_11  and  C10_12 
REMARK    5  A    between atoms: C10_12  and  C11_13 
REMARK    6  A    between atoms: C13_15  and  O2_16 
REMARK    7  A    between atoms: C13_15  and  O3_17 
ROOT
HETATM    1  C3  UNL     1      27.464   1.000  53.644  1.00  0.00    -0.004 A 
HETATM    2  C4  UNL     1      27.520   1.830  52.554  1.00  0.00     0.018 A 
HETATM    3  C5  UNL     1      26.441   2.071  51.750  1.00  0.00    -0.060 A 
HETATM    4  C6  UNL     1      26.583   2.997  50.600  1.00  0.00     0.048 C 
HETATM    5  C7  UNL     1      25.261   1.447  52.064  1.00  0.00     0.024 A 
HETATM    6  C8  UNL     1      25.054   0.578  53.139  1.00  0.00     0.040 A 
HETATM    7  C9  UNL     1      23.828  -0.044  53.420  1.00  0.00     0.137 A 
HETATM    8  N2  UNL     1      23.823  -0.848  54.493  1.00  0.00    -0.224 NA
HETATM    9  C15 UNL     1      24.899  -1.056  55.255  1.00  0.00     0.236 A 
HETATM   10  N3  UNL     1      26.021  -0.432  54.923  1.00  0.00    -0.241 NA
HETATM   11  C16 UNL     1      26.217   0.401  53.897  1.00  0.00     0.080 A 
ENDROOT
BRANCH   7  12
HETATM   12  N1  UNL     1      22.860   0.328  52.487  1.00  0.00    -0.370 N 
HETATM   13  H11 UNL     1      22.245  -0.530  52.691  1.00  0.00     0.161 HD
BRANCH  12  14
HETATM   14  C10 UNL     1      21.877   0.679  51.559  1.00  0.00     0.160 C 
BRANCH  14  15
HETATM   15  C11 UNL     1      20.467   0.340  51.919  1.00  0.00    -0.008 C 
HETATM   16  C12 UNL     1      19.449   0.716  50.931  1.00  0.00     0.050 C 
HETATM   17  C13 UNL     1      20.095  -0.253  53.034  1.00  0.00     0.181 C 
BRANCH  17  18
HETATM   18  O2  UNL     1      18.842  -0.624  53.499  1.00  0.00    -0.341 OA
HETATM   19  H17 UNL     1      18.740  -0.671  54.507  1.00  0.00     0.220 HD
ENDBRANCH  17  18
BRANCH  17  20
HETATM   20  O3  UNL     1      20.521  -0.785  54.213  1.00  0.00    -0.336 OA
HETATM   21  C14 UNL     1      20.883  -2.108  54.468  1.00  0.00     0.212 C 
ENDBRANCH  17  20
ENDBRANCH  14  15
ENDBRANCH  12  14
ENDBRANCH   7  12
BRANCH   1  22
HETATM   22  C2  UNL     1      28.482   0.589  54.618  1.00  0.00     0.208 C 
BRANCH  22  23
HETATM   23  O1  UNL     1      28.936  -0.676  54.472  1.00  0.00    -0.391 OA
HETATM   24  C1  UNL     1      29.818  -0.999  53.493  1.00  0.00     0.201 C 
ENDBRANCH  22  23
ENDBRANCH   1  22
TORSDOF 7
ENDMDL
MODEL 6
REMARK VINA RESULT:      -6.7      2.575      3.773
REMARK  7 active torsions:
REMARK  status: ('A' for Active; 'I' for Inactive)
REMARK    1  A    between atoms: O1_2  and  C2_3 
REMARK    2  A    between atoms: C2_3  and  C3_4 
REMARK    3  A    between atoms: C9_10  and  N1_11 
REMARK    4  A    between atoms: N1_11  and  C10_12 
REMARK    5  A    between atoms: C10_12  and  C11_13 
REMARK    6  A    between atoms: C13_15  and  O2_16 
REMARK    7  A    between atoms: C13_15  and  O3_17 
ROOT
HETATM    1  C3  UNL     1      25.923  -0.364  53.082  1.00  0.00    -0.004 A 
HETATM    2  C4  UNL     1      24.859  -0.899  53.762  1.00  0.00     0.018 A 
HETATM    3  C5  UNL     1      23.620  -0.322  53.772  1.00  0.00    -0.060 A 
HETATM    4  C6  UNL     1      22.519  -0.977  54.520  1.00  0.00     0.048 C 
HETATM    5  C7  UNL     1      23.454   0.841  53.066  1.00  0.00     0.024 A 
HETATM    6  C8  UNL     1      24.441   1.501  52.329  1.00  0.00     0.040 A 
HETATM    7  C9  UNL     1      24.227   2.695  51.624  1.00  0.00     0.137 A 
HETATM    8  N2  UNL     1      25.297   3.182  50.978  1.00  0.00    -0.224 NA
HETATM    9  C15 UNL     1      26.491   2.587  50.991  1.00  0.00     0.236 A 
HETATM   10  N3  UNL     1      26.613   1.461  51.681  1.00  0.00    -0.241 NA
HETATM   11  C16 UNL     1      25.667   0.829  52.383  1.00  0.00     0.080 A 
ENDROOT
BRANCH   7  12
HETATM   12  N1  UNL     1      22.905   3.120  51.761  1.00  0.00    -0.370 N 
HETATM   13  H11 UNL     1      23.182   4.011  52.297  1.00  0.00     0.161 HD
BRANCH  12  14
HETATM   14  C10 UNL     1      21.591   3.566  51.910  1.00  0.00     0.160 C 
BRANCH  14  15
HETATM   15  C11 UNL     1      20.522   2.696  51.333  1.00  0.00    -0.008 C 
HETATM   16  C12 UNL     1      20.990   1.549  50.545  1.00  0.00     0.050 C 
HETATM   17  C13 UNL     1      19.228   2.891  51.480  1.00  0.00     0.181 C 
BRANCH  17  18
HETATM   18  O2  UNL     1      18.136   2.178  51.008  1.00  0.00    -0.341 OA
HETATM   19  H17 UNL     1      18.189   1.170  51.109  1.00  0.00     0.220 HD
ENDBRANCH  17  18
BRANCH  17  20
HETATM   20  O3  UNL     1      18.274   3.691  52.032  1.00  0.00    -0.336 OA
HETATM   21  C14 UNL     1      16.932   3.793  51.665  1.00  0.00     0.212 C 
ENDBRANCH  17  20
ENDBRANCH  14  15
ENDBRANCH  12  14
ENDBRANCH   7  12
BRANCH   1  22
HETATM   22  C2  UNL     1      27.320  -0.794  52.950  1.00  0.00     0.208 C 
BRANCH  22  23
HETATM   23  O1  UNL     1      27.984  -0.949  54.117  1.00  0.00    -0.391 OA
HETATM   24  C1  UNL     1      28.646   0.085  54.693  1.00  0.00     0.201 C 
ENDBRANCH  22  23
ENDBRANCH   1  22
TORSDOF 7
ENDMDL
MODEL 7
REMARK VINA RESULT:      -6.6      1.802      2.559
REMARK  7 active torsions:
REMARK  status: ('A' for Active; 'I' for Inactive)
REMARK    1  A    between atoms: O1_2  and  C2_3 
REMARK    2  A    between atoms: C2_3  and  C3_4 
REMARK    3  A    between atoms: C9_10  and  N1_11 
REMARK    4  A    between atoms: N1_11  and  C10_12 
REMARK    5  A    between atoms: C10_12  and  C11_13 
REMARK    6  A    between atoms: C13_15  and  O2_16 
REMARK    7  A    between atoms: C13_15  and  O3_17 
ROOT
HETATM    1  C3  UNL     1      26.292   0.112  52.503  1.00  0.00    -0.004 A 
HETATM    2  C4  UNL     1      26.750   1.073  51.639  1.00  0.00     0.018 A 
HETATM    3  C5  UNL     1      25.957   2.079  51.162  1.00  0.00    -0.060 A 
HETATM    4  C6  UNL     1      26.537   3.089  50.243  1.00  0.00     0.048 C 
HETATM    5  C7  UNL     1      24.651   2.111  51.576  1.00  0.00     0.024 A 
HETATM    6  C8  UNL     1      24.045   1.203  52.450  1.00  0.00     0.040 A 
HETATM    7  C9  UNL     1      22.700   1.271  52.844  1.00  0.00     0.137 A 
HETATM    8  N2  UNL     1      22.298   0.308  53.686  1.00  0.00    -0.224 NA
HETATM    9  C15 UNL     1      23.104  -0.657  54.132  1.00  0.00     0.236 A 
HETATM   10  N3  UNL     1      24.362  -0.653  53.713  1.00  0.00    -0.241 NA
HETATM   11  C16 UNL     1      24.941   0.218  52.880  1.00  0.00     0.080 A 
ENDROOT
BRANCH   7  12
HETATM   12  N1  UNL     1      22.065   2.361  52.249  1.00  0.00    -0.370 N 
HETATM   13  H11 UNL     1      21.093   2.067  52.601  1.00  0.00     0.161 HD
BRANCH  12  14
HETATM   14  C10 UNL     1      21.407   3.444  51.662  1.00  0.00     0.160 C 
BRANCH  14  15
HETATM   15  C11 UNL     1      22.025   4.790  51.866  1.00  0.00    -0.008 C 
HETATM   16  C12 UNL     1      23.121   4.847  52.841  1.00  0.00     0.050 C 
HETATM   17  C13 UNL     1      21.656   5.892  51.248  1.00  0.00     0.181 C 
BRANCH  17  18
HETATM   18  O2  UNL     1      22.129   7.193  51.335  1.00  0.00    -0.341 OA
HETATM   19  H17 UNL     1      23.138   7.297  51.330  1.00  0.00     0.220 HD
ENDBRANCH  17  18
BRANCH  17  20
HETATM   20  O3  UNL     1      20.796   6.428  50.337  1.00  0.00    -0.336 OA
HETATM   21  C14 UNL     1      20.784   6.227  48.957  1.00  0.00     0.212 C 
ENDBRANCH  17  20
ENDBRANCH  14  15
ENDBRANCH  12  14
ENDBRANCH   7  12
BRANCH   1  22
HETATM   22  C2  UNL     1      26.948  -1.048  53.117  1.00  0.00     0.208 C 
BRANCH  22  23
HETATM   23  O1  UNL     1      28.094  -0.774  53.780  1.00  0.00    -0.391 OA
HETATM   24  C1  UNL     1      28.109   0.068  54.843  1.00  0.00     0.201 C 
ENDBRANCH  22  23
ENDBRANCH   1  22
TORSDOF 7
ENDMDL
MODEL 8
REMARK VINA RESULT:      -6.5      2.913      5.328
REMARK  7 active torsions:
REMARK  status: ('A' for Active; 'I' for Inactive)
REMARK    1  A    between atoms: O1_2  and  C2_3 
REMARK    2  A    between atoms: C2_3  and  C3_4 
REMARK    3  A    between atoms: C9_10  and  N1_11 
REMARK    4  A    between atoms: N1_11  and  C10_12 
REMARK    5  A    between atoms: C10_12  and  C11_13 
REMARK    6  A    between atoms: C13_15  and  O2_16 
REMARK    7  A    between atoms: C13_15  and  O3_17 
ROOT
HETATM    1  C3  UNL     1      25.850   3.858  49.710  1.00  0.00    -0.004 A 
HETATM    2  C4  UNL     1      24.623   4.118  49.156  1.00  0.00     0.018 A 
HETATM    3  C5  UNL     1      23.478   3.494  49.567  1.00  0.00    -0.060 A 
HETATM    4  C6  UNL     1      22.187   3.848  48.926  1.00  0.00     0.048 C 
HETATM    5  C7  UNL     1      23.582   2.572  50.575  1.00  0.00     0.024 A 
HETATM    6  C8  UNL     1      24.760   2.204  51.231  1.00  0.00     0.040 A 
HETATM    7  C9  UNL     1      24.821   1.249  52.258  1.00  0.00     0.137 A 
HETATM    8  N2  UNL     1      26.042   1.026  52.765  1.00  0.00    -0.224 NA
HETATM    9  C15 UNL     1      27.137   1.658  52.338  1.00  0.00     0.236 A 
HETATM   10  N3  UNL     1      26.997   2.547  51.364  1.00  0.00    -0.241 NA
HETATM   11  C16 UNL     1      25.869   2.900  50.739  1.00  0.00     0.080 A 
ENDROOT
BRANCH   7  12
HETATM   12  N1  UNL     1      23.554   0.730  52.526  1.00  0.00    -0.370 N 
HETATM   13  H11 UNL     1      23.142   1.092  51.601  1.00  0.00     0.161 HD
BRANCH  12  14
HETATM   14  C10 UNL     1      22.278   0.218  52.772  1.00  0.00     0.160 C 
BRANCH  14  15
HETATM   15  C11 UNL     1      22.146  -0.717  53.930  1.00  0.00    -0.008 C 
HETATM   16  C12 UNL     1      20.797  -1.241  54.175  1.00  0.00     0.050 C 
HETATM   17  C13 UNL     1      23.133  -1.084  54.721  1.00  0.00     0.181 C 
BRANCH  17  18
HETATM   18  O2  UNL     1      23.159  -1.931  55.819  1.00  0.00    -0.341 OA
HETATM   19  H17 UNL     1      22.255  -2.185  56.203  1.00  0.00     0.220 HD
ENDBRANCH  17  18
BRANCH  17  20
HETATM   20  O3  UNL     1      24.463  -0.952  54.983  1.00  0.00    -0.336 OA
HETATM   21  C14 UNL     1      25.087  -0.929  56.231  1.00  0.00     0.212 C 
ENDBRANCH  17  20
ENDBRANCH  14  15
ENDBRANCH  12  14
ENDBRANCH   7  12
BRANCH   1  22
HETATM   22  C2  UNL     1      27.189   4.385  49.420  1.00  0.00     0.208 C 
BRANCH  22  23
HETATM   23  O1  UNL     1      27.259   5.216  48.356  1.00  0.00    -0.391 OA
HETATM   24  C1  UNL     1      27.945   6.384  48.419  1.00  0.00     0.201 C 
ENDBRANCH  22  23
ENDBRANCH   1  22
TORSDOF 7
ENDMDL
MODEL 9
REMARK VINA RESULT:      -6.4      2.493      3.128
REMARK  7 active torsions:
REMARK  status: ('A' for Active; 'I' for Inactive)
REMARK    1  A    between atoms: O1_2  and  C2_3 
REMARK    2  A    between atoms: C2_3  and  C3_4 
REMARK    3  A    between atoms: C9_10  and  N1_11 
REMARK    4  A    between atoms: N1_11  and  C10_12 
REMARK    5  A    between atoms: C10_12  and  C11_13 
REMARK    6  A    between atoms: C13_15  and  O2_16 
REMARK    7  A    between atoms: C13_15  and  O3_17 
ROOT
HETATM    1  C3  UNL     1      25.475   0.246  53.169  1.00  0.00    -0.004 A 
HETATM    2  C4  UNL     1      25.531   1.159  52.147  1.00  0.00     0.018 A 
HETATM    3  C5  UNL     1      24.417   1.750  51.620  1.00  0.00    -0.060 A 
HETATM    4  C6  UNL     1      24.568   2.742  50.527  1.00  0.00     0.048 C 
HETATM    5  C7  UNL     1      23.201   1.400  52.147  1.00  0.00     0.024 A 
HETATM    6  C8  UNL     1      22.989   0.487  53.184  1.00  0.00     0.040 A 
HETATM    7  C9  UNL     1      21.723   0.155  53.691  1.00  0.00     0.137 A 
HETATM    8  N2  UNL     1      21.719  -0.744  54.685  1.00  0.00    -0.224 NA
HETATM    9  C15 UNL     1      22.830  -1.297  55.175  1.00  0.00     0.236 A 
HETATM   10  N3  UNL     1      23.988  -0.931  54.643  1.00  0.00    -0.241 NA
HETATM   11  C16 UNL     1      24.190  -0.056  53.653  1.00  0.00     0.080 A 
ENDROOT
BRANCH   7  12
HETATM   12  N1  UNL     1      20.722   0.859  53.020  1.00  0.00    -0.370 N 
HETATM   13  H11 UNL     1      19.999   0.074  53.147  1.00  0.00     0.161 HD
BRANCH  12  14
HETATM   14  C10 UNL     1      19.705   1.545  52.353  1.00  0.00     0.160 C 
BRANCH  14  15
HETATM   15  C11 UNL     1      18.781   0.719  51.518  1.00  0.00    -0.008 C 
HETATM   16  C12 UNL     1      18.259  -0.496  52.156  1.00  0.00     0.050 C 
HETATM   17  C13 UNL     1      18.423   1.002  50.283  1.00  0.00     0.181 C 
BRANCH  17  18
HETATM   18  O2  UNL     1      17.587   0.338  49.398  1.00  0.00    -0.341 OA
HETATM   19  H17 UNL     1      17.415  -0.641  49.602  1.00  0.00     0.220 HD
ENDBRANCH  17  18
BRANCH  17  20
HETATM   20  O3  UNL     1      18.557   1.885  49.255  1.00  0.00    -0.336 OA
HETATM   21  C14 UNL     1      19.730   2.485  48.795  1.00  0.00     0.212 C 
ENDBRANCH  17  20
ENDBRANCH  14  15
ENDBRANCH  12  14
ENDBRANCH   7  12
BRANCH   1  22
HETATM   22  C2  UNL     1      26.521  -0.513  53.865  1.00  0.00     0.208 C 
BRANCH  22  23
HETATM   23  O1  UNL     1      27.184   0.172  54.824  1.00  0.00    -0.391 OA
HETATM   24  C1  UNL     1      28.539   0.231  54.837  1.00  0.00     0.201 C 
ENDBRANCH  22  23
ENDBRANCH   1  22
TORSDOF 7
ENDMDL
