MODEL 1
REMARK VINA RESULT:      -8.5      0.000      0.000
REMARK  8 active torsions:
REMARK  status: ('A' for Active; 'I' for Inactive)
REMARK    1  A    between atoms: C2_2  and  C3_3 
REMARK    2  A    between atoms: C4_4  and  C5_5 
REMARK    3  A    between atoms: C6_6  and  N1_7 
REMARK    4  A    between atoms: N1_7  and  C7_8 
REMARK    5  A    between atoms: C12_15  and  N4_16 
REMARK       I    between atoms: N4_16  and  C13_17 
REMARK    6  A    between atoms: C13_17  and  C14_19 
REMARK    7  A    between atoms: C14_19  and  O2_20 
REMARK    8  A    between atoms: O2_20  and  C15_21 
ROOT
HETATM    1  C7  UNL     1      23.089  -0.336  53.471  1.00  0.00     0.141 A 
HETATM    2  N2  UNL     1      22.345  -1.265  54.097  1.00  0.00    -0.224 NA
HETATM    3  C8  UNL     1      21.007  -1.176  54.194  1.00  0.00     0.236 A 
HETATM    4  N3  UNL     1      20.301  -0.147  53.670  1.00  0.00    -0.241 NA
HETATM    5  C9  UNL     1      20.987   0.817  53.030  1.00  0.00     0.072 A 
HETATM    6  C10 UNL     1      20.279   1.870  52.493  1.00  0.00     0.035 A 
HETATM    7  C11 UNL     1      21.007   2.860  51.834  1.00  0.00     0.032 A 
HETATM    8  C12 UNL     1      22.373   2.800  51.717  1.00  0.00     0.035 A 
HETATM    9  C21 UNL     1      23.077   1.728  52.263  1.00  0.00     0.047 A 
HETATM   10  C22 UNL     1      22.379   0.725  52.928  1.00  0.00     0.041 A 
ENDROOT
BRANCH   8  11
HETATM   11  N4  UNL     1      22.954   3.892  51.016  1.00  0.00    -0.325 N 
HETATM   12  C13 UNL     1      23.504   4.985  51.722  1.00  0.00     0.246 C 
HETATM   13  O1  UNL     1      23.445   4.935  52.999  1.00  0.00    -0.271 OA
HETATM   14  H14 UNL     1      23.039   4.025  49.985  1.00  0.00     0.169 HD
BRANCH  12  15
HETATM   15  C14 UNL     1      24.165   6.237  51.301  1.00  0.00     0.278 C 
BRANCH  15  16
HETATM   16  O2  UNL     1      24.516   6.294  49.956  1.00  0.00    -0.342 OA
BRANCH  16  17
HETATM   17  C15 UNL     1      25.739   5.943  49.420  1.00  0.00     0.069 A 
HETATM   18  C16 UNL     1      26.381   7.094  48.960  1.00  0.00     0.040 A 
HETATM   19  C17 UNL     1      27.642   7.035  48.369  1.00  0.00     0.045 A 
HETATM   20  C18 UNL     1      28.274   5.829  48.230  1.00  0.00     0.116 A 
HETATM   21  F1  UNL     1      29.479   5.646  47.682  1.00  0.00    -0.206 F 
HETATM   22  C19 UNL     1      27.649   4.687  48.681  1.00  0.00     0.045 A 
HETATM   23  C20 UNL     1      26.413   4.728  49.264  1.00  0.00     0.040 A 
ENDBRANCH  16  17
ENDBRANCH  15  16
ENDBRANCH  12  15
ENDBRANCH   8  11
BRANCH   1  24
HETATM   24  N1  UNL     1      24.505  -0.370  53.333  1.00  0.00    -0.350 N 
HETATM   25  H10 UNL     1      24.641  -0.254  52.301  1.00  0.00     0.166 HD
BRANCH  24  26
HETATM   26  C6  UNL     1      25.333  -0.534  54.476  1.00  0.00     0.090 C 
HETATM   27  C5  UNL     1      26.496   0.052  54.696  1.00  0.00     0.017 C 
BRANCH  27  28
HETATM   28  C4  UNL     1      27.050   0.973  53.717  1.00  0.00    -0.003 C 
HETATM   29  C3  UNL     1      28.345   1.072  53.473  1.00  0.00    -0.027 C 
BRANCH  29  30
HETATM   30  C2  UNL     1      29.449   0.322  54.098  1.00  0.00     0.022 C 
HETATM   31  C1  UNL     1      29.756  -0.968  53.372  1.00  0.00     0.009 C 
ENDBRANCH  29  30
ENDBRANCH  27  28
ENDBRANCH  24  26
ENDBRANCH   1  24
TORSDOF 8
ENDMDL
MODEL 2
REMARK VINA RESULT:      -8.4      1.080      1.155
REMARK  8 active torsions:
REMARK  status: ('A' for Active; 'I' for Inactive)
REMARK    1  A    between atoms: C2_2  and  C3_3 
REMARK    2  A    between atoms: C4_4  and  C5_5 
REMARK    3  A    between atoms: C6_6  and  N1_7 
REMARK    4  A    between atoms: N1_7  and  C7_8 
REMARK    5  A    between atoms: C12_15  and  N4_16 
REMARK       I    between atoms: N4_16  and  C13_17 
REMARK    6  A    between atoms: C13_17  and  C14_19 
REMARK    7  A    between atoms: C14_19  and  O2_20 
REMARK    8  A    between atoms: O2_20  and  C15_21 
ROOT
HETATM    1  C7  UNL     1      23.027  -0.526  53.598  1.00  0.00     0.141 A 
HETATM    2  N2  UNL     1      22.239  -1.430  54.206  1.00  0.00    -0.224 NA
HETATM    3  C8  UNL     1      20.913  -1.257  54.346  1.00  0.00     0.236 A 
HETATM    4  N3  UNL     1      20.265  -0.162  53.886  1.00  0.00    -0.241 NA
HETATM    5  C9  UNL     1      20.997   0.782  53.267  1.00  0.00     0.072 A 
HETATM    6  C10 UNL     1      20.349   1.902  52.795  1.00  0.00     0.035 A 
HETATM    7  C11 UNL     1      21.124   2.869  52.156  1.00  0.00     0.032 A 
HETATM    8  C12 UNL     1      22.479   2.724  51.998  1.00  0.00     0.035 A 
HETATM    9  C21 UNL     1      23.123   1.585  52.479  1.00  0.00     0.047 A 
HETATM   10  C22 UNL     1      22.377   0.602  53.121  1.00  0.00     0.041 A 
ENDROOT
BRANCH   8  11
HETATM   11  N4  UNL     1      23.115   3.805  51.327  1.00  0.00    -0.325 N 
HETATM   12  C13 UNL     1      23.336   3.751  49.933  1.00  0.00     0.246 C 
HETATM   13  O1  UNL     1      22.944   2.695  49.326  1.00  0.00    -0.271 OA
HETATM   14  H14 UNL     1      23.475   4.694  51.735  1.00  0.00     0.169 HD
BRANCH  12  15
HETATM   15  C14 UNL     1      23.950   4.683  48.965  1.00  0.00     0.278 C 
BRANCH  15  16
HETATM   16  O2  UNL     1      24.960   5.488  49.484  1.00  0.00    -0.342 OA
BRANCH  16  17
HETATM   17  C15 UNL     1      26.244   5.599  48.990  1.00  0.00     0.069 A 
HETATM   18  C16 UNL     1      26.434   6.893  48.502  1.00  0.00     0.040 A 
HETATM   19  C17 UNL     1      27.648   7.288  47.943  1.00  0.00     0.045 A 
HETATM   20  C18 UNL     1      28.685   6.397  47.866  1.00  0.00     0.116 A 
HETATM   21  F1  UNL     1      29.892   6.657  47.353  1.00  0.00    -0.206 F 
HETATM   22  C19 UNL     1      28.508   5.118  48.344  1.00  0.00     0.045 A 
HETATM   23  C20 UNL     1      27.323   4.715  48.896  1.00  0.00     0.040 A 
ENDBRANCH  16  17
ENDBRANCH  15  16
ENDBRANCH  12  15
ENDBRANCH   8  11
BRANCH   1  24
HETATM   24  N1  UNL     1      24.434  -0.647  53.418  1.00  0.00    -0.350 N 
HETATM   25  H10 UNL     1      24.528  -0.750  52.381  1.00  0.00     0.166 HD
BRANCH  24  26
HETATM   26  C6  UNL     1      25.306  -0.610  54.540  1.00  0.00     0.090 C 
HETATM   27  C5  UNL     1      26.443   0.057  54.631  1.00  0.00     0.017 C 
BRANCH  27  28
HETATM   28  C4  UNL     1      26.915   0.856  53.513  1.00  0.00    -0.003 C 
HETATM   29  C3  UNL     1      28.197   1.052  53.256  1.00  0.00    -0.027 C 
BRANCH  29  30
HETATM   30  C2  UNL     1      29.362   0.538  53.999  1.00  0.00     0.022 C 
HETATM   31  C1  UNL     1      29.868  -0.775  53.445  1.00  0.00     0.009 C 
ENDBRANCH  29  30
ENDBRANCH  27  28
ENDBRANCH  24  26
ENDBRANCH   1  24
TORSDOF 8
ENDMDL
MODEL 3
REMARK VINA RESULT:      -8.1      3.027      6.569
REMARK  8 active torsions:
REMARK  status: ('A' for Active; 'I' for Inactive)
REMARK    1  A    between atoms: C2_2  and  C3_3 
REMARK    2  A    between atoms: C4_4  and  C5_5 
REMARK    3  A    between atoms: C6_6  and  N1_7 
REMARK    4  A    between atoms: N1_7  and  C7_8 
REMARK    5  A    between atoms: C12_15  and  N4_16 
REMARK       I    between atoms: N4_16  and  C13_17 
REMARK    6  A    between atoms: C13_17  and  C14_19 
REMARK    7  A    between atoms: C14_19  and  O2_20 
REMARK    8  A    between atoms: O2_20  and  C15_21 
ROOT
HETATM    1  C7  UNL     1      26.961   1.909  51.961  1.00  0.00     0.141 A 
HETATM    2  N2  UNL     1      28.156   2.249  52.477  1.00  0.00    -0.224 NA
HETATM    3  C8  UNL     1      28.556   1.856  53.699  1.00  0.00     0.236 A 
HETATM    4  N3  UNL     1      27.791   1.086  54.507  1.00  0.00    -0.241 NA
HETATM    5  C9  UNL     1      26.583   0.711  54.050  1.00  0.00     0.072 A 
HETATM    6  C10 UNL     1      25.795  -0.071  54.865  1.00  0.00     0.035 A 
HETATM    7  C11 UNL     1      24.545  -0.450  54.375  1.00  0.00     0.032 A 
HETATM    8  C12 UNL     1      24.106  -0.066  53.133  1.00  0.00     0.035 A 
HETATM    9  C21 UNL     1      24.914   0.726  52.318  1.00  0.00     0.047 A 
HETATM   10  C22 UNL     1      26.166   1.120  52.779  1.00  0.00     0.041 A 
ENDROOT
BRANCH   8  11
HETATM   11  N4  UNL     1      22.809  -0.538  52.793  1.00  0.00    -0.325 N 
HETATM   12  C13 UNL     1      21.691   0.323  52.865  1.00  0.00     0.246 C 
HETATM   13  O1  UNL     1      21.911   1.523  53.250  1.00  0.00    -0.271 OA
HETATM   14  H14 UNL     1      22.532  -1.494  52.481  1.00  0.00     0.169 HD
BRANCH  12  15
HETATM   15  C14 UNL     1      20.252   0.145  52.585  1.00  0.00     0.278 C 
BRANCH  15  16
HETATM   16  O2  UNL     1      19.925   0.040  51.236  1.00  0.00    -0.342 OA
BRANCH  16  17
HETATM   17  C15 UNL     1      20.144   1.002  50.270  1.00  0.00     0.069 A 
HETATM   18  C16 UNL     1      21.226   0.613  49.479  1.00  0.00     0.040 A 
HETATM   19  C17 UNL     1      21.670   1.401  48.418  1.00  0.00     0.045 A 
HETATM   20  C18 UNL     1      21.039   2.583  48.136  1.00  0.00     0.116 A 
HETATM   21  F1  UNL     1      21.372   3.421  47.149  1.00  0.00    -0.206 F 
HETATM   22  C19 UNL     1      19.971   2.976  48.911  1.00  0.00     0.045 A 
HETATM   23  C20 UNL     1      19.522   2.214  49.954  1.00  0.00     0.040 A 
ENDBRANCH  16  17
ENDBRANCH  15  16
ENDBRANCH  12  15
ENDBRANCH   8  11
BRANCH   1  24
HETATM   24  N1  UNL     1      26.478   2.291  50.679  1.00  0.00    -0.350 N 
HETATM   25  H10 UNL     1      26.147   1.384  50.275  1.00  0.00     0.166 HD
BRANCH  24  26
HETATM   26  C6  UNL     1      26.539   3.649  50.264  1.00  0.00     0.090 C 
HETATM   27  C5  UNL     1      25.534   4.383  49.822  1.00  0.00     0.017 C 
BRANCH  27  28
HETATM   28  C4  UNL     1      24.200   3.814  49.721  1.00  0.00    -0.003 C 
HETATM   29  C3  UNL     1      23.240   4.066  50.594  1.00  0.00    -0.027 C 
BRANCH  29  30
HETATM   30  C2  UNL     1      23.301   4.925  51.790  1.00  0.00     0.022 C 
HETATM   31  C1  UNL     1      23.874   4.206  52.990  1.00  0.00     0.009 C 
ENDBRANCH  29  30
ENDBRANCH  27  28
ENDBRANCH  24  26
ENDBRANCH   1  24
TORSDOF 8
ENDMDL
MODEL 4
REMARK VINA RESULT:      -8.1      3.276      6.881
REMARK  8 active torsions:
REMARK  status: ('A' for Active; 'I' for Inactive)
REMARK    1  A    between atoms: C2_2  and  C3_3 
REMARK    2  A    between atoms: C4_4  and  C5_5 
REMARK    3  A    between atoms: C6_6  and  N1_7 
REMARK    4  A    between atoms: N1_7  and  C7_8 
REMARK    5  A    between atoms: C12_15  and  N4_16 
REMARK       I    between atoms: N4_16  and  C13_17 
REMARK    6  A    between atoms: C13_17  and  C14_19 
REMARK    7  A    between atoms: C14_19  and  O2_20 
REMARK    8  A    between atoms: O2_20  and  C15_21 
ROOT
HETATM    1  C7  UNL     1      26.199   4.052  49.535  1.00  0.00     0.141 A 
HETATM    2  N2  UNL     1      27.125   4.908  49.068  1.00  0.00    -0.224 NA
HETATM    3  C8  UNL     1      26.803   6.080  48.494  1.00  0.00     0.236 A 
HETATM    4  N3  UNL     1      25.525   6.495  48.342  1.00  0.00    -0.241 NA
HETATM    5  C9  UNL     1      24.549   5.684  48.789  1.00  0.00     0.072 A 
HETATM    6  C10 UNL     1      23.243   6.095  48.639  1.00  0.00     0.035 A 
HETATM    7  C11 UNL     1      22.245   5.241  49.108  1.00  0.00     0.032 A 
HETATM    8  C12 UNL     1      22.538   4.037  49.698  1.00  0.00     0.035 A 
HETATM    9  C21 UNL     1      23.865   3.634  49.845  1.00  0.00     0.047 A 
HETATM   10  C22 UNL     1      24.883   4.464  49.386  1.00  0.00     0.041 A 
ENDROOT
BRANCH   8  11
HETATM   11  N4  UNL     1      21.402   3.292  50.116  1.00  0.00    -0.325 N 
HETATM   12  C13 UNL     1      20.986   3.319  51.465  1.00  0.00     0.246 C 
HETATM   13  O1  UNL     1      21.678   4.034  52.269  1.00  0.00    -0.271 OA
HETATM   14  H14 UNL     1      20.787   2.678  49.540  1.00  0.00     0.169 HD
BRANCH  12  15
HETATM   15  C14 UNL     1      19.876   2.676  52.199  1.00  0.00     0.278 C 
BRANCH  15  16
HETATM   16  O2  UNL     1      19.944   1.288  52.268  1.00  0.00    -0.342 OA
BRANCH  16  17
HETATM   17  C15 UNL     1      20.953   0.552  52.858  1.00  0.00     0.069 A 
HETATM   18  C16 UNL     1      20.621   0.314  54.193  1.00  0.00     0.040 A 
HETATM   19  C17 UNL     1      21.464  -0.412  55.033  1.00  0.00     0.045 A 
HETATM   20  C18 UNL     1      22.646  -0.907  54.550  1.00  0.00     0.116 A 
HETATM   21  F1  UNL     1      23.533  -1.615  55.255  1.00  0.00    -0.206 F 
HETATM   22  C19 UNL     1      22.983  -0.677  53.235  1.00  0.00     0.045 A 
HETATM   23  C20 UNL     1      22.166   0.032  52.398  1.00  0.00     0.040 A 
ENDBRANCH  16  17
ENDBRANCH  15  16
ENDBRANCH  12  15
ENDBRANCH   8  11
BRANCH   1  24
HETATM   24  N1  UNL     1      26.471   2.798  50.151  1.00  0.00    -0.350 N 
HETATM   25  H10 UNL     1      26.281   2.115  49.381  1.00  0.00     0.166 HD
BRANCH  24  26
HETATM   26  C6  UNL     1      26.888   2.741  51.508  1.00  0.00     0.090 C 
HETATM   27  C5  UNL     1      26.901   1.671  52.283  1.00  0.00     0.017 C 
BRANCH  27  28
HETATM   28  C4  UNL     1      26.457   0.387  51.767  1.00  0.00    -0.003 C 
HETATM   29  C3  UNL     1      26.740  -0.763  52.354  1.00  0.00    -0.027 C 
BRANCH  29  30
HETATM   30  C2  UNL     1      27.519  -0.988  53.585  1.00  0.00     0.022 C 
HETATM   31  C1  UNL     1      28.981  -1.249  53.305  1.00  0.00     0.009 C 
ENDBRANCH  29  30
ENDBRANCH  27  28
ENDBRANCH  24  26
ENDBRANCH   1  24
TORSDOF 8
ENDMDL
MODEL 5
REMARK VINA RESULT:      -8.1      4.437      8.416
REMARK  8 active torsions:
REMARK  status: ('A' for Active; 'I' for Inactive)
REMARK    1  A    between atoms: C2_2  and  C3_3 
REMARK    2  A    between atoms: C4_4  and  C5_5 
REMARK    3  A    between atoms: C6_6  and  N1_7 
REMARK    4  A    between atoms: N1_7  and  C7_8 
REMARK    5  A    between atoms: C12_15  and  N4_16 
REMARK       I    between atoms: N4_16  and  C13_17 
REMARK    6  A    between atoms: C13_17  and  C14_19 
REMARK    7  A    between atoms: C14_19  and  O2_20 
REMARK    8  A    between atoms: O2_20  and  C15_21 
ROOT
HETATM    1  C7  UNL     1      26.145   1.665  52.819  1.00  0.00     0.141 A 
HETATM    2  N2  UNL     1      27.311   1.155  53.255  1.00  0.00    -0.224 NA
HETATM    3  C8  UNL     1      27.377   0.046  54.010  1.00  0.00     0.236 A 
HETATM    4  N3  UNL     1      26.281  -0.649  54.391  1.00  0.00    -0.241 NA
HETATM    5  C9  UNL     1      25.082  -0.191  53.987  1.00  0.00     0.072 A 
HETATM    6  C10 UNL     1      23.958  -0.889  54.370  1.00  0.00     0.035 A 
HETATM    7  C11 UNL     1      22.724  -0.399  53.942  1.00  0.00     0.032 A 
HETATM    8  C12 UNL     1      22.619   0.731  53.171  1.00  0.00     0.035 A 
HETATM    9  C21 UNL     1      23.766   1.428  52.790  1.00  0.00     0.047 A 
HETATM   10  C22 UNL     1      25.011   0.964  53.201  1.00  0.00     0.041 A 
ENDROOT
BRANCH   8  11
HETATM   11  N4  UNL     1      21.288   1.090  52.826  1.00  0.00    -0.325 N 
HETATM   12  C13 UNL     1      20.730   0.677  51.596  1.00  0.00     0.246 C 
HETATM   13  O1  UNL     1      21.480  -0.020  50.828  1.00  0.00    -0.271 OA
HETATM   14  H14 UNL     1      20.610   1.660  53.378  1.00  0.00     0.169 HD
BRANCH  12  15
HETATM   15  C14 UNL     1      19.412   0.876  50.960  1.00  0.00     0.278 C 
BRANCH  15  16
HETATM   16  O2  UNL     1      18.319   0.683  51.799  1.00  0.00    -0.342 OA
BRANCH  16  17
HETATM   17  C15 UNL     1      17.933  -0.515  52.367  1.00  0.00     0.069 A 
HETATM   18  C16 UNL     1      16.667  -0.857  51.890  1.00  0.00     0.040 A 
HETATM   19  C17 UNL     1      16.029  -2.027  52.298  1.00  0.00     0.045 A 
HETATM   20  C18 UNL     1      16.647  -2.867  53.186  1.00  0.00     0.116 A 
HETATM   21  F1  UNL     1      16.138  -4.012  53.650  1.00  0.00    -0.206 F 
HETATM   22  C19 UNL     1      17.896  -2.538  53.663  1.00  0.00     0.045 A 
HETATM   23  C20 UNL     1      18.536  -1.394  53.271  1.00  0.00     0.040 A 
ENDBRANCH  16  17
ENDBRANCH  15  16
ENDBRANCH  12  15
ENDBRANCH   8  11
BRANCH   1  24
HETATM   24  N1  UNL     1      26.004   2.834  52.019  1.00  0.00    -0.350 N 
HETATM   25  H10 UNL     1      25.516   3.499  52.663  1.00  0.00     0.166 HD
BRANCH  24  26
HETATM   26  C6  UNL     1      26.491   2.852  50.684  1.00  0.00     0.090 C 
HETATM   27  C5  UNL     1      25.986   3.534  49.671  1.00  0.00     0.017 C 
BRANCH  27  28
HETATM   28  C4  UNL     1      24.814   4.371  49.863  1.00  0.00    -0.003 C 
HETATM   29  C3  UNL     1      23.578   3.928  49.712  1.00  0.00    -0.027 C 
BRANCH  29  30
HETATM   30  C2  UNL     1      23.137   2.572  49.338  1.00  0.00     0.022 C 
HETATM   31  C1  UNL     1      22.539   2.521  47.951  1.00  0.00     0.009 C 
ENDBRANCH  29  30
ENDBRANCH  27  28
ENDBRANCH  24  26
ENDBRANCH   1  24
TORSDOF 8
ENDMDL
MODEL 6
REMARK VINA RESULT:      -8.0      2.904      4.586
REMARK  8 active torsions:
REMARK  status: ('A' for Active; 'I' for Inactive)
REMARK    1  A    between atoms: C2_2  and  C3_3 
REMARK    2  A    between atoms: C4_4  and  C5_5 
REMARK    3  A    between atoms: C6_6  and  N1_7 
REMARK    4  A    between atoms: N1_7  and  C7_8 
REMARK    5  A    between atoms: C12_15  and  N4_16 
REMARK       I    between atoms: N4_16  and  C13_17 
REMARK    6  A    between atoms: C13_17  and  C14_19 
REMARK    7  A    between atoms: C14_19  and  O2_20 
REMARK    8  A    between atoms: O2_20  and  C15_21 
ROOT
HETATM    1  C7  UNL     1      24.659  -0.254  53.688  1.00  0.00     0.141 A 
HETATM    2  N2  UNL     1      25.230  -0.860  54.744  1.00  0.00    -0.224 NA
HETATM    3  C8  UNL     1      24.513  -1.455  55.712  1.00  0.00     0.236 A 
HETATM    4  N3  UNL     1      23.160  -1.495  55.703  1.00  0.00    -0.241 NA
HETATM    5  C9  UNL     1      22.527  -0.906  54.673  1.00  0.00     0.072 A 
HETATM    6  C10 UNL     1      21.150  -0.938  54.653  1.00  0.00     0.035 A 
HETATM    7  C11 UNL     1      20.510  -0.322  53.578  1.00  0.00     0.032 A 
HETATM    8  C12 UNL     1      21.212   0.295  52.573  1.00  0.00     0.035 A 
HETATM    9  C21 UNL     1      22.606   0.320  52.605  1.00  0.00     0.047 A 
HETATM   10  C22 UNL     1      23.272  -0.286  53.665  1.00  0.00     0.041 A 
ENDROOT
BRANCH   8  11
HETATM   11  N4  UNL     1      20.403   0.873  51.557  1.00  0.00    -0.325 N 
HETATM   12  C13 UNL     1      19.840   2.156  51.733  1.00  0.00     0.246 C 
HETATM   13  O1  UNL     1      20.093   2.751  52.837  1.00  0.00    -0.271 OA
HETATM   14  H14 UNL     1      20.136   0.464  50.635  1.00  0.00     0.169 HD
BRANCH  12  15
HETATM   15  C14 UNL     1      18.981   3.014  50.890  1.00  0.00     0.278 C 
BRANCH  15  16
HETATM   16  O2  UNL     1      19.458   3.239  49.602  1.00  0.00    -0.342 OA
BRANCH  16  17
HETATM   17  C15 UNL     1      20.523   4.049  49.260  1.00  0.00     0.069 A 
HETATM   18  C16 UNL     1      21.421   3.316  48.482  1.00  0.00     0.040 A 
HETATM   19  C17 UNL     1      22.594   3.888  47.993  1.00  0.00     0.045 A 
HETATM   20  C18 UNL     1      22.882   5.197  48.275  1.00  0.00     0.116 A 
HETATM   21  F1  UNL     1      23.971   5.855  47.864  1.00  0.00    -0.206 F 
HETATM   22  C19 UNL     1      22.003   5.929  49.041  1.00  0.00     0.045 A 
HETATM   23  C20 UNL     1      20.848   5.382  49.528  1.00  0.00     0.040 A 
ENDBRANCH  16  17
ENDBRANCH  15  16
ENDBRANCH  12  15
ENDBRANCH   8  11
BRANCH   1  24
HETATM   24  N1  UNL     1      25.358   0.394  52.632  1.00  0.00    -0.350 N 
HETATM   25  H10 UNL     1      24.932  -0.031  51.775  1.00  0.00     0.166 HD
BRANCH  24  26
HETATM   26  C6  UNL     1      26.362   1.358  52.921  1.00  0.00     0.090 C 
HETATM   27  C5  UNL     1      26.842   2.267  52.092  1.00  0.00     0.017 C 
BRANCH  27  28
HETATM   28  C4  UNL     1      26.344   2.352  50.729  1.00  0.00    -0.003 C 
HETATM   29  C3  UNL     1      25.397   3.196  50.359  1.00  0.00    -0.027 C 
BRANCH  29  30
HETATM   30  C2  UNL     1      24.677   4.178  51.190  1.00  0.00     0.022 C 
HETATM   31  C1  UNL     1      23.366   3.639  51.717  1.00  0.00     0.009 C 
ENDBRANCH  29  30
ENDBRANCH  27  28
ENDBRANCH  24  26
ENDBRANCH   1  24
TORSDOF 8
ENDMDL
MODEL 7
REMARK VINA RESULT:      -7.9      4.999      7.250
REMARK  8 active torsions:
REMARK  status: ('A' for Active; 'I' for Inactive)
REMARK    1  A    between atoms: C2_2  and  C3_3 
REMARK    2  A    between atoms: C4_4  and  C5_5 
REMARK    3  A    between atoms: C6_6  and  N1_7 
REMARK    4  A    between atoms: N1_7  and  C7_8 
REMARK    5  A    between atoms: C12_15  and  N4_16 
REMARK       I    between atoms: N4_16  and  C13_17 
REMARK    6  A    between atoms: C13_17  and  C14_19 
REMARK    7  A    between atoms: C14_19  and  O2_20 
REMARK    8  A    between atoms: O2_20  and  C15_21 
ROOT
HETATM    1  C7  UNL     1      24.181   0.023  53.774  1.00  0.00     0.141 A 
HETATM    2  N2  UNL     1      24.722  -0.741  54.739  1.00  0.00    -0.224 NA
HETATM    3  C8  UNL     1      23.985  -1.543  55.526  1.00  0.00     0.236 A 
HETATM    4  N3  UNL     1      22.640  -1.647  55.412  1.00  0.00    -0.241 NA
HETATM    5  C9  UNL     1      22.037  -0.907  54.464  1.00  0.00     0.072 A 
HETATM    6  C10 UNL     1      20.668  -1.004  54.339  1.00  0.00     0.035 A 
HETATM    7  C11 UNL     1      20.060  -0.229  53.352  1.00  0.00     0.032 A 
HETATM    8  C12 UNL     1      20.782   0.600  52.531  1.00  0.00     0.035 A 
HETATM    9  C21 UNL     1      22.167   0.688  52.668  1.00  0.00     0.047 A 
HETATM   10  C22 UNL     1      22.803  -0.073  53.645  1.00  0.00     0.041 A 
ENDROOT
BRANCH   8  11
HETATM   11  N4  UNL     1      20.004   1.317  51.582  1.00  0.00    -0.325 N 
HETATM   12  C13 UNL     1      19.677   2.673  51.803  1.00  0.00     0.246 C 
HETATM   13  O1  UNL     1      20.110   3.203  52.885  1.00  0.00    -0.271 OA
HETATM   14  H14 UNL     1      19.602   0.971  50.685  1.00  0.00     0.169 HD
BRANCH  12  15
HETATM   15  C14 UNL     1      18.909   3.672  51.032  1.00  0.00     0.278 C 
BRANCH  15  16
HETATM   16  O2  UNL     1      17.617   3.283  50.689  1.00  0.00    -0.342 OA
BRANCH  16  17
HETATM   17  C15 UNL     1      16.520   3.284  51.527  1.00  0.00     0.069 A 
HETATM   18  C16 UNL     1      15.947   2.010  51.527  1.00  0.00     0.040 A 
HETATM   19  C17 UNL     1      14.818   1.722  52.292  1.00  0.00     0.045 A 
HETATM   20  C18 UNL     1      14.249   2.699  53.063  1.00  0.00     0.116 A 
HETATM   21  F1  UNL     1      13.170   2.545  53.836  1.00  0.00    -0.206 F 
HETATM   22  C19 UNL     1      14.806   3.959  53.070  1.00  0.00     0.045 A 
HETATM   23  C20 UNL     1      15.914   4.258  52.326  1.00  0.00     0.040 A 
ENDBRANCH  16  17
ENDBRANCH  15  16
ENDBRANCH  12  15
ENDBRANCH   8  11
BRANCH   1  24
HETATM   24  N1  UNL     1      24.903   0.892  52.908  1.00  0.00    -0.350 N 
HETATM   25  H10 UNL     1      24.459   1.823  53.090  1.00  0.00     0.166 HD
BRANCH  24  26
HETATM   26  C6  UNL     1      25.940   0.382  52.082  1.00  0.00     0.090 C 
HETATM   27  C5  UNL     1      27.230   0.354  52.364  1.00  0.00     0.017 C 
BRANCH  27  28
HETATM   28  C4  UNL     1      27.714   0.880  53.630  1.00  0.00    -0.003 C 
HETATM   29  C3  UNL     1      28.926   0.633  54.098  1.00  0.00    -0.027 C 
BRANCH  29  30
HETATM   30  C2  UNL     1      29.990  -0.181  53.482  1.00  0.00     0.022 C 
HETATM   31  C1  UNL     1      29.749  -1.665  53.642  1.00  0.00     0.009 C 
ENDBRANCH  29  30
ENDBRANCH  27  28
ENDBRANCH  24  26
ENDBRANCH   1  24
TORSDOF 8
ENDMDL
MODEL 8
REMARK VINA RESULT:      -7.9      3.599      6.702
REMARK  8 active torsions:
REMARK  status: ('A' for Active; 'I' for Inactive)
REMARK    1  A    between atoms: C2_2  and  C3_3 
REMARK    2  A    between atoms: C4_4  and  C5_5 
REMARK    3  A    between atoms: C6_6  and  N1_7 
REMARK    4  A    between atoms: N1_7  and  C7_8 
REMARK    5  A    between atoms: C12_15  and  N4_16 
REMARK       I    between atoms: N4_16  and  C13_17 
REMARK    6  A    between atoms: C13_17  and  C14_19 
REMARK    7  A    between atoms: C14_19  and  O2_20 
REMARK    8  A    between atoms: O2_20  and  C15_21 
ROOT
HETATM    1  C7  UNL     1      25.589  -0.244  53.811  1.00  0.00     0.141 A 
HETATM    2  N2  UNL     1      26.657  -0.544  54.571  1.00  0.00    -0.224 NA
HETATM    3  C8  UNL     1      27.833   0.098  54.453  1.00  0.00     0.236 A 
HETATM    4  N3  UNL     1      28.036   1.096  53.564  1.00  0.00    -0.241 NA
HETATM    5  C9  UNL     1      27.006   1.445  52.772  1.00  0.00     0.072 A 
HETATM    6  C10 UNL     1      27.202   2.460  51.861  1.00  0.00     0.035 A 
HETATM    7  C11 UNL     1      26.123   2.808  51.049  1.00  0.00     0.032 A 
HETATM    8  C12 UNL     1      24.910   2.173  51.142  1.00  0.00     0.035 A 
HETATM    9  C21 UNL     1      24.725   1.148  52.069  1.00  0.00     0.047 A 
HETATM   10  C22 UNL     1      25.783   0.778  52.893  1.00  0.00     0.041 A 
ENDROOT
BRANCH   8  11
HETATM   11  N4  UNL     1      23.922   2.651  50.239  1.00  0.00    -0.325 N 
HETATM   12  C13 UNL     1      23.079   3.724  50.601  1.00  0.00     0.246 C 
HETATM   13  O1  UNL     1      23.252   4.227  51.765  1.00  0.00    -0.271 OA
HETATM   14  H14 UNL     1      23.701   2.301  49.281  1.00  0.00     0.169 HD
BRANCH  12  15
HETATM   15  C14 UNL     1      21.986   4.437  49.909  1.00  0.00     0.278 C 
BRANCH  15  16
HETATM   16  O2  UNL     1      20.990   3.619  49.385  1.00  0.00    -0.342 OA
BRANCH  16  17
HETATM   17  C15 UNL     1      19.998   2.985  50.107  1.00  0.00     0.069 A 
HETATM   18  C16 UNL     1      20.031   1.618  49.821  1.00  0.00     0.040 A 
HETATM   19  C17 UNL     1      19.136   0.730  50.415  1.00  0.00     0.045 A 
HETATM   20  C18 UNL     1      18.200   1.196  51.299  1.00  0.00     0.116 A 
HETATM   21  F1  UNL     1      17.291   0.445  51.930  1.00  0.00    -0.206 F 
HETATM   22  C19 UNL     1      18.158   2.542  51.587  1.00  0.00     0.045 A 
HETATM   23  C20 UNL     1      19.030   3.426  51.014  1.00  0.00     0.040 A 
ENDBRANCH  16  17
ENDBRANCH  15  16
ENDBRANCH  12  15
ENDBRANCH   8  11
BRANCH   1  24
HETATM   24  N1  UNL     1      24.320  -0.883  53.884  1.00  0.00    -0.350 N 
HETATM   25  H10 UNL     1      24.105  -1.089  52.880  1.00  0.00     0.166 HD
BRANCH  24  26
HETATM   26  C6  UNL     1      23.688  -1.083  55.141  1.00  0.00     0.090 C 
HETATM   27  C5  UNL     1      22.448  -1.491  55.343  1.00  0.00     0.017 C 
BRANCH  27  28
HETATM   28  C4  UNL     1      21.581  -1.786  54.214  1.00  0.00    -0.003 C 
HETATM   29  C3  UNL     1      20.765  -0.894  53.679  1.00  0.00    -0.027 C 
BRANCH  29  30
HETATM   30  C2  UNL     1      20.562   0.510  54.081  1.00  0.00     0.022 C 
HETATM   31  C1  UNL     1      21.385   1.472  53.255  1.00  0.00     0.009 C 
ENDBRANCH  29  30
ENDBRANCH  27  28
ENDBRANCH  24  26
ENDBRANCH   1  24
TORSDOF 8
ENDMDL
MODEL 9
REMARK VINA RESULT:      -7.9      3.459      7.820
REMARK  8 active torsions:
REMARK  status: ('A' for Active; 'I' for Inactive)
REMARK    1  A    between atoms: C2_2  and  C3_3 
REMARK    2  A    between atoms: C4_4  and  C5_5 
REMARK    3  A    between atoms: C6_6  and  N1_7 
REMARK    4  A    between atoms: N1_7  and  C7_8 
REMARK    5  A    between atoms: C12_15  and  N4_16 
REMARK       I    between atoms: N4_16  and  C13_17 
REMARK    6  A    between atoms: C13_17  and  C14_19 
REMARK    7  A    between atoms: C14_19  and  O2_20 
REMARK    8  A    between atoms: O2_20  and  C15_21 
ROOT
HETATM    1  C7  UNL     1      25.929   6.920  48.688  1.00  0.00     0.141 A 
HETATM    2  N2  UNL     1      25.358   7.784  47.830  1.00  0.00    -0.224 NA
HETATM    3  C8  UNL     1      24.157   7.560  47.269  1.00  0.00     0.236 A 
HETATM    4  N3  UNL     1      23.425   6.451  47.522  1.00  0.00    -0.241 NA
HETATM    5  C9  UNL     1      23.940   5.546  48.373  1.00  0.00     0.072 A 
HETATM    6  C10 UNL     1      23.205   4.411  48.638  1.00  0.00     0.035 A 
HETATM    7  C11 UNL     1      23.755   3.483  49.522  1.00  0.00     0.032 A 
HETATM    8  C12 UNL     1      24.979   3.680  50.112  1.00  0.00     0.035 A 
HETATM    9  C21 UNL     1      25.712   4.833  49.836  1.00  0.00     0.047 A 
HETATM   10  C22 UNL     1      25.190   5.777  48.957  1.00  0.00     0.041 A 
ENDROOT
BRANCH   8  11
HETATM   11  N4  UNL     1      25.389   2.635  50.984  1.00  0.00    -0.325 N 
HETATM   12  C13 UNL     1      24.967   2.620  52.332  1.00  0.00     0.246 C 
HETATM   13  O1  UNL     1      24.214   3.582  52.712  1.00  0.00    -0.271 OA
HETATM   14  H14 UNL     1      26.004   1.820  50.769  1.00  0.00     0.169 HD
BRANCH  12  15
HETATM   15  C14 UNL     1      25.209   1.700  53.462  1.00  0.00     0.278 C 
BRANCH  15  16
HETATM   16  O2  UNL     1      25.539   0.397  53.099  1.00  0.00    -0.342 OA
BRANCH  16  17
HETATM   17  C15 UNL     1      26.778  -0.195  53.239  1.00  0.00     0.069 A 
HETATM   18  C16 UNL     1      27.585   0.621  54.033  1.00  0.00     0.040 A 
HETATM   19  C17 UNL     1      28.897   0.265  54.342  1.00  0.00     0.045 A 
HETATM   20  C18 UNL     1      29.416  -0.907  53.861  1.00  0.00     0.116 A 
HETATM   21  F1  UNL     1      30.655  -1.355  54.088  1.00  0.00    -0.206 F 
HETATM   22  C19 UNL     1      28.628  -1.719  53.076  1.00  0.00     0.045 A 
HETATM   23  C20 UNL     1      27.339  -1.385  52.766  1.00  0.00     0.040 A 
ENDBRANCH  16  17
ENDBRANCH  15  16
ENDBRANCH  12  15
ENDBRANCH   8  11
BRANCH   1  24
HETATM   24  N1  UNL     1      27.194   7.095  49.315  1.00  0.00    -0.350 N 
HETATM   25  H10 UNL     1      27.053   6.650  50.252  1.00  0.00     0.166 HD
BRANCH  24  26
HETATM   26  C6  UNL     1      28.250   7.754  48.629  1.00  0.00     0.090 C 
HETATM   27  C5  UNL     1      29.286   7.181  48.042  1.00  0.00     0.017 C 
BRANCH  27  28
HETATM   28  C4  UNL     1      29.429   5.735  48.058  1.00  0.00    -0.003 C 
HETATM   29  C3  UNL     1      30.582   5.122  47.851  1.00  0.00    -0.027 C 
BRANCH  29  30
HETATM   30  C2  UNL     1      31.898   5.728  47.575  1.00  0.00     0.022 C 
HETATM   31  C1  UNL     1      32.550   5.155  46.338  1.00  0.00     0.009 C 
ENDBRANCH  29  30
ENDBRANCH  27  28
ENDBRANCH  24  26
ENDBRANCH   1  24
TORSDOF 8
ENDMDL
