MODEL 1
REMARK VINA RESULT:      -7.6      0.000      0.000
REMARK  7 active torsions:
REMARK  status: ('A' for Active; 'I' for Inactive)
REMARK    1  A    between atoms: C2_2  and  C3_5 
REMARK    2  A    between atoms: C4_6  and  C5_7 
REMARK    3  A    between atoms: C6_8  and  C7_9 
REMARK    4  A    between atoms: C7_9  and  N1_10 
REMARK    5  A    between atoms: N1_10  and  C8_11 
REMARK    6  A    between atoms: C11_17  and  C12_18 
REMARK    7  A    between atoms: C12_18  and  C13_19 
ROOT
HETATM    1  C8  UNL     1      22.073   2.634  50.741  1.00  0.00     0.107 C 
HETATM    2  N2  UNL     1      21.346   3.690  50.511  1.00  0.00    -0.227 NA
HETATM    3  C9  UNL     1      20.173   3.697  49.695  1.00  0.00     0.256 C 
HETATM    4  N3  UNL     1      19.779   2.898  48.751  1.00  0.00    -0.173 NA
HETATM    5  N4  UNL     1      20.485   1.792  48.319  1.00  0.00    -0.312 N 
HETATM    6  C10 UNL     1      21.666   1.153  48.794  1.00  0.00     0.154 C 
HETATM    7  C11 UNL     1      21.908   1.228  50.258  1.00  0.00     0.078 C 
HETATM    8  H12 UNL     1      20.040   1.352  47.463  1.00  0.00     0.182 HD
ENDROOT
BRANCH   1   9
HETATM    9  N1  UNL     1      23.189   2.924  51.595  1.00  0.00    -0.374 N 
HETATM   10  H10 UNL     1      23.135   3.780  52.186  1.00  0.00     0.161 HD
BRANCH   9  11
HETATM   11  C7  UNL     1      24.328   2.023  51.597  1.00  0.00     0.148 C 
BRANCH  11  12
HETATM   12  C6  UNL     1      24.902   1.862  52.948  1.00  0.00    -0.007 C 
HETATM   13  C5  UNL     1      25.600   0.866  53.463  1.00  0.00    -0.002 C 
BRANCH  13  14
HETATM   14  C4  UNL     1      25.923  -0.318  52.685  1.00  0.00     0.002 C 
HETATM   15  C3  UNL     1      27.141  -0.801  52.704  1.00  0.00     0.050 C 
BRANCH  15  16
HETATM   16  C2  UNL     1      28.214  -0.152  53.519  1.00  0.00     0.258 C 
HETATM   17  C1  UNL     1      29.482  -0.943  53.477  1.00  0.00     0.095 C 
HETATM   18  F1  UNL     1      28.421   1.103  53.019  1.00  0.00    -0.202 F 
HETATM   19  F2  UNL     1      27.776  -0.131  54.842  1.00  0.00    -0.202 F 
ENDBRANCH  15  16
ENDBRANCH  13  14
ENDBRANCH  11  12
ENDBRANCH   9  11
ENDBRANCH   1   9
BRANCH   7  20
HETATM   20  C12 UNL     1      20.834   0.495  51.010  1.00  0.00     0.052 C 
BRANCH  20  21
HETATM   21  C13 UNL     1      21.247   0.053  52.365  1.00  0.00    -0.057 A 
HETATM   22  C14 UNL     1      20.508   0.630  53.402  1.00  0.00     0.007 A 
HETATM   23  C15 UNL     1      20.817   0.281  54.701  1.00  0.00     0.001 A 
HETATM   24  C16 UNL     1      21.825  -0.612  55.004  1.00  0.00     0.000 A 
HETATM   25  C17 UNL     1      22.550  -1.177  53.971  1.00  0.00     0.001 A 
HETATM   26  C18 UNL     1      22.255  -0.840  52.667  1.00  0.00     0.007 A 
ENDBRANCH  20  21
ENDBRANCH   7  20
TORSDOF 7
ENDMDL
MODEL 2
REMARK VINA RESULT:      -7.5      1.310      1.446
REMARK  7 active torsions:
REMARK  status: ('A' for Active; 'I' for Inactive)
REMARK    1  A    between atoms: C2_2  and  C3_5 
REMARK    2  A    between atoms: C4_6  and  C5_7 
REMARK    3  A    between atoms: C6_8  and  C7_9 
REMARK    4  A    between atoms: C7_9  and  N1_10 
REMARK    5  A    between atoms: N1_10  and  C8_11 
REMARK    6  A    between atoms: C11_17  and  C12_18 
REMARK    7  A    between atoms: C12_18  and  C13_19 
ROOT
HETATM    1  C8  UNL     1      23.383   3.515  51.714  1.00  0.00     0.107 C 
HETATM    2  N2  UNL     1      22.911   4.725  51.621  1.00  0.00    -0.227 NA
HETATM    3  C9  UNL     1      21.921   5.132  50.675  1.00  0.00     0.256 C 
HETATM    4  N3  UNL     1      21.562   4.623  49.535  1.00  0.00    -0.173 NA
HETATM    5  N4  UNL     1      22.121   3.491  48.975  1.00  0.00    -0.312 N 
HETATM    6  C10 UNL     1      23.064   2.539  49.457  1.00  0.00     0.154 C 
HETATM    7  C11 UNL     1      23.053   2.289  50.922  1.00  0.00     0.078 C 
HETATM    8  H12 UNL     1      21.762   3.321  47.992  1.00  0.00     0.182 HD
ENDROOT
BRANCH   1   9
HETATM    9  N1  UNL     1      24.365   3.398  52.754  1.00  0.00    -0.374 N 
HETATM   10  H10 UNL     1      24.308   4.068  53.550  1.00  0.00     0.161 HD
BRANCH   9  11
HETATM   11  C7  UNL     1      25.378   2.363  52.654  1.00  0.00     0.148 C 
BRANCH  11  12
HETATM   12  C6  UNL     1      25.759   1.832  53.978  1.00  0.00    -0.007 C 
HETATM   13  C5  UNL     1      26.231   0.645  54.315  1.00  0.00    -0.002 C 
BRANCH  13  14
HETATM   14  C4  UNL     1      26.459  -0.392  53.324  1.00  0.00     0.002 C 
HETATM   15  C3  UNL     1      27.679  -0.802  53.075  1.00  0.00     0.050 C 
BRANCH  15  16
HETATM   16  C2  UNL     1      28.850  -0.218  53.798  1.00  0.00     0.258 C 
HETATM   17  C1  UNL     1      30.073  -1.059  53.618  1.00  0.00     0.095 C 
HETATM   18  F1  UNL     1      29.062   1.040  53.308  1.00  0.00    -0.202 F 
HETATM   19  F2  UNL     1      28.540  -0.214  55.157  1.00  0.00    -0.202 F 
ENDBRANCH  15  16
ENDBRANCH  13  14
ENDBRANCH  11  12
ENDBRANCH   9  11
ENDBRANCH   1   9
BRANCH   7  20
HETATM   20  C12 UNL     1      21.749   1.677  51.344  1.00  0.00     0.052 C 
BRANCH  20  21
HETATM   21  C13 UNL     1      21.862   0.781  52.523  1.00  0.00    -0.057 A 
HETATM   22  C14 UNL     1      20.883   0.996  53.497  1.00  0.00     0.007 A 
HETATM   23  C15 UNL     1      20.904   0.211  54.632  1.00  0.00     0.001 A 
HETATM   24  C16 UNL     1      21.854  -0.770  54.832  1.00  0.00     0.000 A 
HETATM   25  C17 UNL     1      22.819  -0.974  53.863  1.00  0.00     0.001 A 
HETATM   26  C18 UNL     1      22.813  -0.199  52.722  1.00  0.00     0.007 A 
ENDBRANCH  20  21
ENDBRANCH   7  20
TORSDOF 7
ENDMDL
MODEL 3
REMARK VINA RESULT:      -7.5      3.434      6.176
REMARK  7 active torsions:
REMARK  status: ('A' for Active; 'I' for Inactive)
REMARK    1  A    between atoms: C2_2  and  C3_5 
REMARK    2  A    between atoms: C4_6  and  C5_7 
REMARK    3  A    between atoms: C6_8  and  C7_9 
REMARK    4  A    between atoms: C7_9  and  N1_10 
REMARK    5  A    between atoms: N1_10  and  C8_11 
REMARK    6  A    between atoms: C11_17  and  C12_18 
REMARK    7  A    between atoms: C12_18  and  C13_19 
ROOT
HETATM    1  C8  UNL     1      27.106   1.632  52.741  1.00  0.00     0.107 C 
HETATM    2  N2  UNL     1      28.279   1.084  52.595  1.00  0.00    -0.227 NA
HETATM    3  C9  UNL     1      28.698  -0.108  53.261  1.00  0.00     0.256 C 
HETATM    4  N3  UNL     1      28.280  -0.676  54.351  1.00  0.00    -0.173 NA
HETATM    5  N4  UNL     1      27.257  -0.188  55.141  1.00  0.00    -0.312 N 
HETATM    6  C10 UNL     1      26.339   0.888  54.979  1.00  0.00     0.154 C 
HETATM    7  C11 UNL     1      25.944   1.208  53.583  1.00  0.00     0.078 C 
HETATM    8  H12 UNL     1      27.159  -0.741  56.041  1.00  0.00     0.182 HD
ENDROOT
BRANCH   1   9
HETATM    9  N1  UNL     1      26.964   2.820  51.949  1.00  0.00    -0.374 N 
HETATM   10  H10 UNL     1      27.123   3.735  52.420  1.00  0.00     0.161 HD
BRANCH   9  11
HETATM   11  C7  UNL     1      26.611   2.694  50.547  1.00  0.00     0.148 C 
BRANCH  11  12
HETATM   12  C6  UNL     1      26.124   3.969  49.983  1.00  0.00    -0.007 C 
HETATM   13  C5  UNL     1      24.958   4.269  49.440  1.00  0.00    -0.002 C 
BRANCH  13  14
HETATM   14  C4  UNL     1      23.900   3.281  49.317  1.00  0.00     0.002 C 
HETATM   15  C3  UNL     1      22.916   3.264  50.184  1.00  0.00     0.050 C 
BRANCH  15  16
HETATM   16  C2  UNL     1      22.862   4.251  51.305  1.00  0.00     0.258 C 
HETATM   17  C1  UNL     1      21.517   4.258  51.958  1.00  0.00     0.095 C 
HETATM   18  F1  UNL     1      23.827   3.911  52.212  1.00  0.00    -0.202 F 
HETATM   19  F2  UNL     1      23.069   5.516  50.758  1.00  0.00    -0.202 F 
ENDBRANCH  15  16
ENDBRANCH  13  14
ENDBRANCH  11  12
ENDBRANCH   9  11
ENDBRANCH   1   9
BRANCH   7  20
HETATM   20  C12 UNL     1      25.192   0.062  52.971  1.00  0.00     0.052 C 
BRANCH  20  21
HETATM   21  C13 UNL     1      23.798  -0.073  53.466  1.00  0.00    -0.057 A 
HETATM   22  C14 UNL     1      22.891   0.798  52.856  1.00  0.00     0.007 A 
HETATM   23  C15 UNL     1      21.569   0.748  53.249  1.00  0.00     0.001 A 
HETATM   24  C16 UNL     1      21.121  -0.126  54.219  1.00  0.00     0.000 A 
HETATM   25  C17 UNL     1      22.027  -0.982  54.817  1.00  0.00     0.001 A 
HETATM   26  C18 UNL     1      23.351  -0.947  54.437  1.00  0.00     0.007 A 
ENDBRANCH  20  21
ENDBRANCH   7  20
TORSDOF 7
ENDMDL
MODEL 4
REMARK VINA RESULT:      -7.4      3.616      6.739
REMARK  7 active torsions:
REMARK  status: ('A' for Active; 'I' for Inactive)
REMARK    1  A    between atoms: C2_2  and  C3_5 
REMARK    2  A    between atoms: C4_6  and  C5_7 
REMARK    3  A    between atoms: C6_8  and  C7_9 
REMARK    4  A    between atoms: C7_9  and  N1_10 
REMARK    5  A    between atoms: N1_10  and  C8_11 
REMARK    6  A    between atoms: C11_17  and  C12_18 
REMARK    7  A    between atoms: C12_18  and  C13_19 
ROOT
HETATM    1  C8  UNL     1      25.041  -0.109  53.695  1.00  0.00     0.107 C 
HETATM    2  N2  UNL     1      25.690  -0.412  54.784  1.00  0.00    -0.227 NA
HETATM    3  C9  UNL     1      26.931   0.179  55.170  1.00  0.00     0.256 C 
HETATM    4  N3  UNL     1      27.851   0.777  54.475  1.00  0.00    -0.173 NA
HETATM    5  N4  UNL     1      27.795   0.971  53.109  1.00  0.00    -0.312 N 
HETATM    6  C10 UNL     1      26.778   0.735  52.140  1.00  0.00     0.154 C 
HETATM    7  C11 UNL     1      25.377   0.870  52.615  1.00  0.00     0.078 C 
HETATM    8  H12 UNL     1      28.701   1.374  52.732  1.00  0.00     0.182 HD
ENDROOT
BRANCH   1   9
HETATM    9  N1  UNL     1      23.824  -0.859  53.567  1.00  0.00    -0.374 N 
HETATM   10  H10 UNL     1      23.591  -1.242  52.626  1.00  0.00     0.161 HD
BRANCH   9  11
HETATM   11  C7  UNL     1      22.987  -1.051  54.737  1.00  0.00     0.148 C 
BRANCH  11  12
HETATM   12  C6  UNL     1      21.610  -1.442  54.373  1.00  0.00    -0.007 C 
HETATM   13  C5  UNL     1      20.599  -0.704  53.952  1.00  0.00    -0.002 C 
BRANCH  13  14
HETATM   14  C4  UNL     1      20.728   0.733  53.776  1.00  0.00     0.002 C 
HETATM   15  C3  UNL     1      20.529   1.267  52.596  1.00  0.00     0.050 C 
BRANCH  15  16
HETATM   16  C2  UNL     1      20.168   0.420  51.418  1.00  0.00     0.258 C 
HETATM   17  C1  UNL     1      19.605   1.247  50.307  1.00  0.00     0.095 C 
HETATM   18  F1  UNL     1      21.299  -0.226  51.002  1.00  0.00    -0.202 F 
HETATM   19  F2  UNL     1      19.172  -0.463  51.830  1.00  0.00    -0.202 F 
ENDBRANCH  15  16
ENDBRANCH  13  14
ENDBRANCH  11  12
ENDBRANCH   9  11
ENDBRANCH   1   9
BRANCH   7  20
HETATM   20  C12 UNL     1      25.092   2.286  53.028  1.00  0.00     0.052 C 
BRANCH  20  21
HETATM   21  C13 UNL     1      24.039   2.946  52.216  1.00  0.00    -0.057 A 
HETATM   22  C14 UNL     1      23.819   2.346  50.972  1.00  0.00     0.007 A 
HETATM   23  C15 UNL     1      22.858   2.888  50.144  1.00  0.00     0.001 A 
HETATM   24  C16 UNL     1      22.115   3.995  50.502  1.00  0.00     0.000 A 
HETATM   25  C17 UNL     1      22.340   4.581  51.734  1.00  0.00     0.001 A 
HETATM   26  C18 UNL     1      23.297   4.053  52.575  1.00  0.00     0.007 A 
ENDBRANCH  20  21
ENDBRANCH   7  20
TORSDOF 7
ENDMDL
MODEL 5
REMARK VINA RESULT:      -7.4      4.454      6.676
REMARK  7 active torsions:
REMARK  status: ('A' for Active; 'I' for Inactive)
REMARK    1  A    between atoms: C2_2  and  C3_5 
REMARK    2  A    between atoms: C4_6  and  C5_7 
REMARK    3  A    between atoms: C6_8  and  C7_9 
REMARK    4  A    between atoms: C7_9  and  N1_10 
REMARK    5  A    between atoms: N1_10  and  C8_11 
REMARK    6  A    between atoms: C11_17  and  C12_18 
REMARK    7  A    between atoms: C12_18  and  C13_19 
ROOT
HETATM    1  C8  UNL     1      26.998   1.517  52.759  1.00  0.00     0.107 C 
HETATM    2  N2  UNL     1      28.157   0.964  52.538  1.00  0.00    -0.227 NA
HETATM    3  C9  UNL     1      28.609  -0.234  53.170  1.00  0.00     0.256 C 
HETATM    4  N3  UNL     1      28.253  -0.807  54.280  1.00  0.00    -0.173 NA
HETATM    5  N4  UNL     1      27.283  -0.320  55.134  1.00  0.00    -0.312 N 
HETATM    6  C10 UNL     1      26.363   0.763  55.034  1.00  0.00     0.154 C 
HETATM    7  C11 UNL     1      25.886   1.094  53.667  1.00  0.00     0.078 C 
HETATM    8  H12 UNL     1      27.236  -0.878  56.034  1.00  0.00     0.182 HD
ENDROOT
BRANCH   1   9
HETATM    9  N1  UNL     1      26.815   2.712  51.985  1.00  0.00    -0.374 N 
HETATM   10  H10 UNL     1      26.977   3.624  52.460  1.00  0.00     0.161 HD
BRANCH   9  11
HETATM   11  C7  UNL     1      26.418   2.596  50.593  1.00  0.00     0.148 C 
BRANCH  11  12
HETATM   12  C6  UNL     1      25.742   3.816  50.108  1.00  0.00    -0.007 C 
HETATM   13  C5  UNL     1      26.182   4.774  49.312  1.00  0.00    -0.002 C 
BRANCH  13  14
HETATM   14  C4  UNL     1      27.525   4.745  48.758  1.00  0.00     0.002 C 
HETATM   15  C3  UNL     1      28.059   5.842  48.280  1.00  0.00     0.050 C 
BRANCH  15  16
HETATM   16  C2  UNL     1      27.307   7.134  48.295  1.00  0.00     0.258 C 
HETATM   17  C1  UNL     1      28.114   8.239  47.693  1.00  0.00     0.095 C 
HETATM   18  F1  UNL     1      26.149   6.955  47.591  1.00  0.00    -0.202 F 
HETATM   19  F2  UNL     1      27.073   7.464  49.628  1.00  0.00    -0.202 F 
ENDBRANCH  15  16
ENDBRANCH  13  14
ENDBRANCH  11  12
ENDBRANCH   9  11
ENDBRANCH   1   9
BRANCH   7  20
HETATM   20  C12 UNL     1      25.092  -0.044  53.093  1.00  0.00     0.052 C 
BRANCH  20  21
HETATM   21  C13 UNL     1      23.642   0.019  53.408  1.00  0.00    -0.057 A 
HETATM   22  C14 UNL     1      23.226  -0.913  54.363  1.00  0.00     0.007 A 
HETATM   23  C15 UNL     1      21.894  -0.932  54.723  1.00  0.00     0.001 A 
HETATM   24  C16 UNL     1      20.969  -0.068  54.173  1.00  0.00     0.000 A 
HETATM   25  C17 UNL     1      21.391   0.850  53.229  1.00  0.00     0.001 A 
HETATM   26  C18 UNL     1      22.718   0.884  52.857  1.00  0.00     0.007 A 
ENDBRANCH  20  21
ENDBRANCH   7  20
TORSDOF 7
ENDMDL
MODEL 6
REMARK VINA RESULT:      -7.3      2.588      5.028
REMARK  7 active torsions:
REMARK  status: ('A' for Active; 'I' for Inactive)
REMARK    1  A    between atoms: C2_2  and  C3_5 
REMARK    2  A    between atoms: C4_6  and  C5_7 
REMARK    3  A    between atoms: C6_8  and  C7_9 
REMARK    4  A    between atoms: C7_9  and  N1_10 
REMARK    5  A    between atoms: N1_10  and  C8_11 
REMARK    6  A    between atoms: C11_17  and  C12_18 
REMARK    7  A    between atoms: C12_18  and  C13_19 
ROOT
HETATM    1  C8  UNL     1      22.677   3.756  50.811  1.00  0.00     0.107 C 
HETATM    2  N2  UNL     1      22.728   4.752  49.973  1.00  0.00    -0.227 NA
HETATM    3  C9  UNL     1      23.584   5.885  50.122  1.00  0.00     0.256 C 
HETATM    4  N3  UNL     1      24.160   6.396  51.168  1.00  0.00    -0.173 NA
HETATM    5  N4  UNL     1      24.041   5.891  52.448  1.00  0.00    -0.312 N 
HETATM    6  C10 UNL     1      23.437   4.711  52.970  1.00  0.00     0.154 C 
HETATM    7  C11 UNL     1      23.440   3.524  52.077  1.00  0.00     0.078 C 
HETATM    8  H12 UNL     1      24.495   6.527  53.164  1.00  0.00     0.182 HD
ENDROOT
BRANCH   1   9
HETATM    9  N1  UNL     1      21.728   2.759  50.407  1.00  0.00    -0.374 N 
HETATM   10  H10 UNL     1      20.751   3.070  50.223  1.00  0.00     0.161 HD
BRANCH   9  11
HETATM   11  C7  UNL     1      22.166   1.382  50.273  1.00  0.00     0.148 C 
BRANCH  11  12
HETATM   12  C6  UNL     1      21.153   0.428  50.769  1.00  0.00    -0.007 C 
HETATM   13  C5  UNL     1      20.729   0.200  51.999  1.00  0.00    -0.002 C 
BRANCH  13  14
HETATM   14  C4  UNL     1      21.261   0.933  53.135  1.00  0.00     0.002 C 
HETATM   15  C3  UNL     1      21.764   0.283  54.156  1.00  0.00     0.050 C 
BRANCH  15  16
HETATM   16  C2  UNL     1      21.800  -1.211  54.174  1.00  0.00     0.258 C 
HETATM   17  C1  UNL     1      22.645  -1.720  55.298  1.00  0.00     0.095 C 
HETATM   18  F1  UNL     1      20.516  -1.662  54.304  1.00  0.00    -0.202 F 
HETATM   19  F2  UNL     1      22.392  -1.628  52.983  1.00  0.00    -0.202 F 
ENDBRANCH  15  16
ENDBRANCH  13  14
ENDBRANCH  11  12
ENDBRANCH   9  11
ENDBRANCH   1   9
BRANCH   7  20
HETATM   20  C12 UNL     1      24.845   3.064  51.813  1.00  0.00     0.052 C 
BRANCH  20  21
HETATM   21  C13 UNL     1      25.236   1.858  52.586  1.00  0.00    -0.057 A 
HETATM   22  C14 UNL     1      25.983   2.135  53.735  1.00  0.00     0.007 A 
HETATM   23  C15 UNL     1      26.394   1.078  54.520  1.00  0.00     0.001 A 
HETATM   24  C16 UNL     1      26.093  -0.233  54.208  1.00  0.00     0.000 A 
HETATM   25  C17 UNL     1      25.355  -0.496  53.070  1.00  0.00     0.001 A 
HETATM   26  C18 UNL     1      24.936   0.548  52.273  1.00  0.00     0.007 A 
ENDBRANCH  20  21
ENDBRANCH   7  20
TORSDOF 7
ENDMDL
MODEL 7
REMARK VINA RESULT:      -6.9      3.791      6.025
REMARK  7 active torsions:
REMARK  status: ('A' for Active; 'I' for Inactive)
REMARK    1  A    between atoms: C2_2  and  C3_5 
REMARK    2  A    between atoms: C4_6  and  C5_7 
REMARK    3  A    between atoms: C6_8  and  C7_9 
REMARK    4  A    between atoms: C7_9  and  N1_10 
REMARK    5  A    between atoms: N1_10  and  C8_11 
REMARK    6  A    between atoms: C11_17  and  C12_18 
REMARK    7  A    between atoms: C12_18  and  C13_19 
ROOT
HETATM    1  C8  UNL     1      23.272   4.480  50.377  1.00  0.00     0.107 C 
HETATM    2  N2  UNL     1      21.983   4.666  50.377  1.00  0.00    -0.227 NA
HETATM    3  C9  UNL     1      21.356   5.949  50.355  1.00  0.00     0.256 C 
HETATM    4  N3  UNL     1      21.789   7.123  50.704  1.00  0.00    -0.173 NA
HETATM    5  N4  UNL     1      23.052   7.371  51.205  1.00  0.00    -0.312 N 
HETATM    6  C10 UNL     1      24.208   6.554  51.362  1.00  0.00     0.154 C 
HETATM    7  C11 UNL     1      24.389   5.476  50.357  1.00  0.00     0.078 C 
HETATM    8  H12 UNL     1      23.153   8.375  51.533  1.00  0.00     0.182 HD
ENDROOT
BRANCH   1   9
HETATM    9  N1  UNL     1      23.616   3.087  50.401  1.00  0.00    -0.374 N 
HETATM   10  H10 UNL     1      22.984   2.426  49.902  1.00  0.00     0.161 HD
BRANCH   9  11
HETATM   11  C7  UNL     1      24.812   2.668  51.108  1.00  0.00     0.148 C 
BRANCH  11  12
HETATM   12  C6  UNL     1      24.508   2.177  52.467  1.00  0.00    -0.007 C 
HETATM   13  C5  UNL     1      24.921   1.090  53.092  1.00  0.00    -0.002 C 
BRANCH  13  14
HETATM   14  C4  UNL     1      25.819   0.142  52.456  1.00  0.00     0.002 C 
HETATM   15  C3  UNL     1      26.994  -0.101  52.984  1.00  0.00     0.050 C 
BRANCH  15  16
HETATM   16  C2  UNL     1      27.430   0.582  54.240  1.00  0.00     0.258 C 
HETATM   17  C1  UNL     1      28.765   0.084  54.694  1.00  0.00     0.095 C 
HETATM   18  F1  UNL     1      27.485   1.925  53.990  1.00  0.00    -0.202 F 
HETATM   19  F2  UNL     1      26.505   0.263  55.231  1.00  0.00    -0.202 F 
ENDBRANCH  15  16
ENDBRANCH  13  14
ENDBRANCH  11  12
ENDBRANCH   9  11
ENDBRANCH   1   9
BRANCH   7  20
HETATM   20  C12 UNL     1      24.602   6.057  48.989  1.00  0.00     0.052 C 
BRANCH  20  21
HETATM   21  C13 UNL     1      26.031   6.174  48.603  1.00  0.00    -0.057 A 
HETATM   22  C14 UNL     1      26.789   5.033  48.880  1.00  0.00     0.007 A 
HETATM   23  C15 UNL     1      28.131   5.043  48.557  1.00  0.00     0.001 A 
HETATM   24  C16 UNL     1      28.740   6.137  47.975  1.00  0.00     0.000 A 
HETATM   25  C17 UNL     1      27.981   7.261  47.707  1.00  0.00     0.001 A 
HETATM   26  C18 UNL     1      26.639   7.268  48.022  1.00  0.00     0.007 A 
ENDBRANCH  20  21
ENDBRANCH   7  20
TORSDOF 7
ENDMDL
MODEL 8
REMARK VINA RESULT:      -6.9      3.485      6.220
REMARK  7 active torsions:
REMARK  status: ('A' for Active; 'I' for Inactive)
REMARK    1  A    between atoms: C2_2  and  C3_5 
REMARK    2  A    between atoms: C4_6  and  C5_7 
REMARK    3  A    between atoms: C6_8  and  C7_9 
REMARK    4  A    between atoms: C7_9  and  N1_10 
REMARK    5  A    between atoms: N1_10  and  C8_11 
REMARK    6  A    between atoms: C11_17  and  C12_18 
REMARK    7  A    between atoms: C12_18  and  C13_19 
ROOT
HETATM    1  C8  UNL     1      26.022   1.866  53.544  1.00  0.00     0.107 C 
HETATM    2  N2  UNL     1      27.158   1.967  52.914  1.00  0.00    -0.227 NA
HETATM    3  C9  UNL     1      28.113   0.910  52.806  1.00  0.00     0.256 C 
HETATM    4  N3  UNL     1      28.309  -0.148  53.533  1.00  0.00    -0.173 NA
HETATM    5  N4  UNL     1      27.563  -0.479  54.647  1.00  0.00    -0.312 N 
HETATM    6  C10 UNL     1      26.388   0.081  55.225  1.00  0.00     0.154 C 
HETATM    7  C11 UNL     1      25.428   0.707  54.280  1.00  0.00     0.078 C 
HETATM    8  H12 UNL     1      27.968  -1.317  55.156  1.00  0.00     0.182 HD
ENDROOT
BRANCH   1   9
HETATM    9  N1  UNL     1      25.266   3.085  53.488  1.00  0.00    -0.374 N 
HETATM   10  H10 UNL     1      25.468   3.811  54.206  1.00  0.00     0.161 HD
BRANCH   9  11
HETATM   11  C7  UNL     1      24.268   3.248  52.446  1.00  0.00     0.148 C 
BRANCH  11  12
HETATM   12  C6  UNL     1      24.724   2.696  51.154  1.00  0.00    -0.007 C 
HETATM   13  C5  UNL     1      24.395   3.034  49.920  1.00  0.00    -0.002 C 
BRANCH  13  14
HETATM   14  C4  UNL     1      23.446   4.101  49.652  1.00  0.00     0.002 C 
HETATM   15  C3  UNL     1      22.333   3.840  49.010  1.00  0.00     0.050 C 
BRANCH  15  16
HETATM   16  C2  UNL     1      22.018   2.454  48.546  1.00  0.00     0.258 C 
HETATM   17  C1  UNL     1      20.645   2.376  47.961  1.00  0.00     0.095 C 
HETATM   18  F1  UNL     1      22.953   2.101  47.613  1.00  0.00    -0.202 F 
HETATM   19  F2  UNL     1      22.045   1.624  49.665  1.00  0.00    -0.202 F 
ENDBRANCH  15  16
ENDBRANCH  13  14
ENDBRANCH  11  12
ENDBRANCH   9  11
ENDBRANCH   1   9
BRANCH   7  20
HETATM   20  C12 UNL     1      24.857  -0.321  53.347  1.00  0.00     0.052 C 
BRANCH  20  21
HETATM   21  C13 UNL     1      23.375  -0.407  53.385  1.00  0.00    -0.057 A 
HETATM   22  C14 UNL     1      22.869  -1.005  54.543  1.00  0.00     0.007 A 
HETATM   23  C15 UNL     1      21.501  -1.130  54.672  1.00  0.00     0.001 A 
HETATM   24  C16 UNL     1      20.625  -0.688  53.700  1.00  0.00     0.000 A 
HETATM   25  C17 UNL     1      21.136  -0.099  52.558  1.00  0.00     0.001 A 
HETATM   26  C18 UNL     1      22.501   0.035  52.413  1.00  0.00     0.007 A 
ENDBRANCH  20  21
ENDBRANCH   7  20
TORSDOF 7
ENDMDL
MODEL 9
REMARK VINA RESULT:      -6.7      3.572      7.009
REMARK  7 active torsions:
REMARK  status: ('A' for Active; 'I' for Inactive)
REMARK    1  A    between atoms: C2_2  and  C3_5 
REMARK    2  A    between atoms: C4_6  and  C5_7 
REMARK    3  A    between atoms: C6_8  and  C7_9 
REMARK    4  A    between atoms: C7_9  and  N1_10 
REMARK    5  A    between atoms: N1_10  and  C8_11 
REMARK    6  A    between atoms: C11_17  and  C12_18 
REMARK    7  A    between atoms: C12_18  and  C13_19 
ROOT
HETATM    1  C8  UNL     1      25.072   0.306  53.561  1.00  0.00     0.107 C 
HETATM    2  N2  UNL     1      25.545   0.021  54.741  1.00  0.00    -0.227 NA
HETATM    3  C9  UNL     1      26.933  -0.143  55.032  1.00  0.00     0.256 C 
HETATM    4  N3  UNL     1      27.942  -0.436  54.269  1.00  0.00    -0.173 NA
HETATM    5  N4  UNL     1      27.852  -0.662  52.909  1.00  0.00    -0.312 N 
HETATM    6  C10 UNL     1      26.784  -0.534  51.976  1.00  0.00     0.154 C 
HETATM    7  C11 UNL     1      25.786   0.528  52.265  1.00  0.00     0.078 C 
HETATM    8  H12 UNL     1      28.773  -1.000  52.506  1.00  0.00     0.182 HD
ENDROOT
BRANCH   1   9
HETATM    9  N1  UNL     1      23.641   0.412  53.566  1.00  0.00    -0.374 N 
HETATM   10  H10 UNL     1      23.225   1.330  53.832  1.00  0.00     0.161 HD
BRANCH   9  11
HETATM   11  C7  UNL     1      22.847  -0.747  53.201  1.00  0.00     0.148 C 
BRANCH  11  12
HETATM   12  C6  UNL     1      21.400  -0.499  53.360  1.00  0.00    -0.007 C 
HETATM   13  C5  UNL     1      20.519  -0.021  52.500  1.00  0.00    -0.002 C 
BRANCH  13  14
HETATM   14  C4  UNL     1      20.902   0.359  51.151  1.00  0.00     0.002 C 
HETATM   15  C3  UNL     1      20.924   1.624  50.809  1.00  0.00     0.050 C 
BRANCH  15  16
HETATM   16  C2  UNL     1      20.559   2.693  51.788  1.00  0.00     0.258 C 
HETATM   17  C1  UNL     1      20.451   4.027  51.122  1.00  0.00     0.095 C 
HETATM   18  F1  UNL     1      19.366   2.350  52.360  1.00  0.00    -0.202 F 
HETATM   19  F2  UNL     1      21.592   2.773  52.721  1.00  0.00    -0.202 F 
ENDBRANCH  15  16
ENDBRANCH  13  14
ENDBRANCH  11  12
ENDBRANCH   9  11
ENDBRANCH   1   9
BRANCH   7  20
HETATM   20  C12 UNL     1      26.424   1.886  52.198  1.00  0.00     0.052 C 
BRANCH  20  21
HETATM   21  C13 UNL     1      25.910   2.735  51.093  1.00  0.00    -0.057 A 
HETATM   22  C14 UNL     1      24.517   2.735  50.977  1.00  0.00     0.007 A 
HETATM   23  C15 UNL     1      23.943   3.495  49.979  1.00  0.00     0.001 A 
HETATM   24  C16 UNL     1      24.696   4.248  49.100  1.00  0.00     0.000 A 
HETATM   25  C17 UNL     1      26.072   4.241  49.223  1.00  0.00     0.001 A 
HETATM   26  C18 UNL     1      26.664   3.487  50.215  1.00  0.00     0.007 A 
ENDBRANCH  20  21
ENDBRANCH   7  20
TORSDOF 7
ENDMDL
