MODEL 1
REMARK VINA RESULT:      -9.9      0.000      0.000
REMARK  2 active torsions:
REMARK  status: ('A' for Active; 'I' for Inactive)
REMARK    1  A    between atoms: C5_5  and  C6_6 
REMARK    2  A    between atoms: C13_13  and  N1_14 
REMARK       I    between atoms: N1_14  and  C14_15 
ROOT
HETATM    1  N1  UNL     1      22.675   1.186  51.867  1.00  0.00    -0.188 N 
HETATM    2  C14 UNL     1      22.512   2.585  51.737  1.00  0.00     0.723 C 
HETATM    3  N2  UNL     1      23.446   3.312  52.232  1.00  0.00    -0.104 NA
HETATM    4  C15 UNL     1      23.465   4.733  52.203  1.00  0.00     0.181 C 
HETATM    5  C16 UNL     1      23.818   5.379  50.913  1.00  0.00     0.070 A 
HETATM    6  C17 UNL     1      22.754   5.453  49.909  1.00  0.00     0.057 A 
HETATM    7  C18 UNL     1      23.426   4.771  48.994  1.00  0.00     0.011 A 
HETATM    8  C19 UNL     1      24.589   4.611  49.899  1.00  0.00     0.018 A 
HETATM    9  C20 UNL     1      25.801   5.309  49.329  1.00  0.00     0.015 C 
HETATM   10  O1  UNL     1      21.530   6.103  50.137  1.00  0.00    -0.308 OA
HETATM   11  C21 UNL     1      20.306   5.420  50.001  1.00  0.00     0.259 C 
HETATM   12  N3  UNL     1      19.782   4.434  50.697  1.00  0.00    -0.229 NA
HETATM   13  C22 UNL     1      20.586   3.957  51.796  1.00  0.00     0.254 C 
HETATM   14  N4  UNL     1      21.448   3.287  51.123  1.00  0.00    -0.056 NA
HETATM   15  H12 UNL     1      22.122   0.654  51.134  1.00  0.00     0.184 HD
ENDROOT
BRANCH   1  16
HETATM   16  C13 UNL     1      23.439   0.474  52.805  1.00  0.00     0.056 A 
HETATM   17  C2  UNL     1      22.770  -0.173  53.853  1.00  0.00    -0.035 A 
HETATM   18  C1  UNL     1      21.272  -0.081  53.932  1.00  0.00     0.050 C 
HETATM   19  C3  UNL     1      23.446  -0.892  54.815  1.00  0.00     0.010 A 
HETATM   20  C4  UNL     1      24.816  -1.019  54.805  1.00  0.00     0.013 A 
HETATM   21  C5  UNL     1      25.492  -0.387  53.779  1.00  0.00    -0.024 A 
HETATM   22  C12 UNL     1      24.781   0.322  52.836  1.00  0.00     0.043 A 
BRANCH  21  23
HETATM   23  C6  UNL     1      26.930  -0.518  53.761  1.00  0.00    -0.026 A 
HETATM   24  C7  UNL     1      27.604  -1.488  53.048  1.00  0.00     0.012 A 
HETATM   25  C8  UNL     1      29.002  -1.542  53.083  1.00  0.00     0.001 A 
HETATM   26  C9  UNL     1      29.715  -0.621  53.834  1.00  0.00     0.000 A 
HETATM   27  C10 UNL     1      29.042   0.349  54.548  1.00  0.00     0.001 A 
HETATM   28  C11 UNL     1      27.670   0.388  54.503  1.00  0.00     0.012 A 
ENDBRANCH  21  23
ENDBRANCH   1  16
TORSDOF 2
ENDMDL
MODEL 2
REMARK VINA RESULT:      -9.6      2.575      7.057
REMARK  2 active torsions:
REMARK  status: ('A' for Active; 'I' for Inactive)
REMARK    1  A    between atoms: C5_5  and  C6_6 
REMARK    2  A    between atoms: C13_13  and  N1_14 
REMARK       I    between atoms: N1_14  and  C14_15 
ROOT
HETATM    1  N1  UNL     1      23.961   3.132  52.117  1.00  0.00    -0.188 N 
HETATM    2  C14 UNL     1      24.489   1.853  52.413  1.00  0.00     0.723 C 
HETATM    3  N2  UNL     1      25.505   1.485  51.722  1.00  0.00    -0.104 NA
HETATM    4  C15 UNL     1      26.174   0.240  51.869  1.00  0.00     0.181 C 
HETATM    5  C16 UNL     1      27.076   0.091  53.040  1.00  0.00     0.070 A 
HETATM    6  C17 UNL     1      26.433  -0.193  54.324  1.00  0.00     0.057 A 
HETATM    7  C18 UNL     1      26.916   0.883  54.924  1.00  0.00     0.011 A 
HETATM    8  C19 UNL     1      27.628   1.308  53.695  1.00  0.00     0.018 A 
HETATM    9  C20 UNL     1      29.121   1.309  53.925  1.00  0.00     0.015 C 
HETATM   10  O1  UNL     1      25.625  -1.321  54.543  1.00  0.00    -0.308 OA
HETATM   11  C21 UNL     1      24.295  -1.189  54.988  1.00  0.00     0.259 C 
HETATM   12  N3  UNL     1      23.232  -0.681  54.402  1.00  0.00    -0.229 NA
HETATM   13  C22 UNL     1      23.446  -0.166  53.071  1.00  0.00     0.254 C 
HETATM   14  N4  UNL     1      24.040   0.927  53.385  1.00  0.00    -0.056 NA
HETATM   15  H12 UNL     1      23.418   3.534  52.934  1.00  0.00     0.184 HD
ENDROOT
BRANCH   1  16
HETATM   16  C13 UNL     1      24.072   3.874  50.930  1.00  0.00     0.056 A 
HETATM   17  C2  UNL     1      22.909   4.110  50.183  1.00  0.00    -0.035 A 
HETATM   18  C1  UNL     1      21.599   3.564  50.678  1.00  0.00     0.050 C 
HETATM   19  C3  UNL     1      22.931   4.828  49.008  1.00  0.00     0.010 A 
HETATM   20  C4  UNL     1      24.094   5.357  48.496  1.00  0.00     0.013 A 
HETATM   21  C5  UNL     1      25.250   5.133  49.219  1.00  0.00    -0.024 A 
HETATM   22  C12 UNL     1      25.187   4.411  50.390  1.00  0.00     0.043 A 
BRANCH  21  23
HETATM   23  C6  UNL     1      26.474   5.687  48.688  1.00  0.00    -0.026 A 
HETATM   24  C7  UNL     1      26.581   6.967  48.185  1.00  0.00     0.012 A 
HETATM   25  C8  UNL     1      27.808   7.428  47.692  1.00  0.00     0.001 A 
HETATM   26  C9  UNL     1      28.919   6.600  47.709  1.00  0.00     0.000 A 
HETATM   27  C10 UNL     1      28.812   5.320  48.212  1.00  0.00     0.001 A 
HETATM   28  C11 UNL     1      27.602   4.883  48.692  1.00  0.00     0.012 A 
ENDBRANCH  21  23
ENDBRANCH   1  16
TORSDOF 2
ENDMDL
MODEL 3
REMARK VINA RESULT:      -9.6      1.700      2.709
REMARK  2 active torsions:
REMARK  status: ('A' for Active; 'I' for Inactive)
REMARK    1  A    between atoms: C5_5  and  C6_6 
REMARK    2  A    between atoms: C13_13  and  N1_14 
REMARK       I    between atoms: N1_14  and  C14_15 
ROOT
HETATM    1  N1  UNL     1      23.411   3.393  52.543  1.00  0.00    -0.188 N 
HETATM    2  C14 UNL     1      23.597   4.208  51.401  1.00  0.00     0.723 C 
HETATM    3  N2  UNL     1      23.946   3.603  50.325  1.00  0.00    -0.104 NA
HETATM    4  C15 UNL     1      24.182   4.245  49.079  1.00  0.00     0.181 C 
HETATM    5  C16 UNL     1      22.990   4.674  48.302  1.00  0.00     0.070 A 
HETATM    6  C17 UNL     1      22.347   5.918  48.730  1.00  0.00     0.057 A 
HETATM    7  C18 UNL     1      21.173   5.354  48.963  1.00  0.00     0.011 A 
HETATM    8  C19 UNL     1      21.678   4.020  48.559  1.00  0.00     0.018 A 
HETATM    9  C20 UNL     1      20.942   3.525  47.337  1.00  0.00     0.015 C 
HETATM   10  O1  UNL     1      23.019   7.151  48.774  1.00  0.00    -0.308 OA
HETATM   11  C21 UNL     1      23.095   7.897  49.967  1.00  0.00     0.259 C 
HETATM   12  N3  UNL     1      23.709   7.651  51.104  1.00  0.00    -0.229 NA
HETATM   13  C22 UNL     1      24.437   6.406  51.158  1.00  0.00     0.254 C 
HETATM   14  N4  UNL     1      23.440   5.610  51.295  1.00  0.00    -0.056 NA
HETATM   15  H12 UNL     1      22.770   3.849  53.254  1.00  0.00     0.184 HD
ENDROOT
BRANCH   1  16
HETATM   16  C13 UNL     1      23.954   2.126  52.815  1.00  0.00     0.056 A 
HETATM   17  C2  UNL     1      23.074   1.044  52.955  1.00  0.00    -0.035 A 
HETATM   18  C1  UNL     1      21.597   1.278  52.810  1.00  0.00     0.050 C 
HETATM   19  C3  UNL     1      23.525  -0.231  53.223  1.00  0.00     0.010 A 
HETATM   20  C4  UNL     1      24.863  -0.518  53.368  1.00  0.00     0.013 A 
HETATM   21  C5  UNL     1      25.744   0.538  53.233  1.00  0.00    -0.024 A 
HETATM   22  C12 UNL     1      25.255   1.798  52.965  1.00  0.00     0.043 A 
BRANCH  21  23
HETATM   23  C6  UNL     1      27.150   0.243  53.382  1.00  0.00    -0.026 A 
HETATM   24  C7  UNL     1      28.082   1.157  53.829  1.00  0.00     0.012 A 
HETATM   25  C8  UNL     1      29.426   0.787  53.949  1.00  0.00     0.001 A 
HETATM   26  C9  UNL     1      29.826  -0.498  53.619  1.00  0.00     0.000 A 
HETATM   27  C10 UNL     1      28.895  -1.413  53.173  1.00  0.00     0.001 A 
HETATM   28  C11 UNL     1      27.580  -1.034  53.061  1.00  0.00     0.012 A 
ENDBRANCH  21  23
ENDBRANCH   1  16
TORSDOF 2
ENDMDL
MODEL 4
REMARK VINA RESULT:      -9.1      2.176      5.149
REMARK  2 active torsions:
REMARK  status: ('A' for Active; 'I' for Inactive)
REMARK    1  A    between atoms: C5_5  and  C6_6 
REMARK    2  A    between atoms: C13_13  and  N1_14 
REMARK       I    between atoms: N1_14  and  C14_15 
ROOT
HETATM    1  N1  UNL     1      25.928   2.913  51.995  1.00  0.00    -0.188 N 
HETATM    2  C14 UNL     1      25.549   3.606  50.821  1.00  0.00     0.723 C 
HETATM    3  N2  UNL     1      24.384   3.337  50.356  1.00  0.00    -0.104 NA
HETATM    4  C15 UNL     1      23.824   3.925  49.190  1.00  0.00     0.181 C 
HETATM    5  C16 UNL     1      23.317   5.317  49.310  1.00  0.00     0.070 A 
HETATM    6  C17 UNL     1      24.320   6.381  49.269  1.00  0.00     0.057 A 
HETATM    7  C18 UNL     1      24.007   6.867  50.460  1.00  0.00     0.011 A 
HETATM    8  C19 UNL     1      22.950   5.845  50.652  1.00  0.00     0.018 A 
HETATM    9  C20 UNL     1      21.594   6.503  50.750  1.00  0.00     0.015 C 
HETATM   10  O1  UNL     1      25.189   6.573  48.182  1.00  0.00    -0.308 OA
HETATM   11  C21 UNL     1      26.587   6.567  48.356  1.00  0.00     0.259 C 
HETATM   12  N3  UNL     1      27.412   5.602  48.699  1.00  0.00    -0.229 NA
HETATM   13  C22 UNL     1      26.797   4.319  48.943  1.00  0.00     0.254 C 
HETATM   14  N4  UNL     1      26.293   4.567  50.096  1.00  0.00    -0.056 NA
HETATM   15  H12 UNL     1      26.678   3.433  52.536  1.00  0.00     0.184 HD
ENDROOT
BRANCH   1  16
HETATM   16  C13 UNL     1      25.448   1.689  52.486  1.00  0.00     0.056 A 
HETATM   17  C2  UNL     1      26.381   0.717  52.874  1.00  0.00    -0.035 A 
HETATM   18  C1  UNL     1      27.848   1.021  52.750  1.00  0.00     0.050 C 
HETATM   19  C3  UNL     1      25.993  -0.511  53.365  1.00  0.00     0.010 A 
HETATM   20  C4  UNL     1      24.668  -0.856  53.506  1.00  0.00     0.013 A 
HETATM   21  C5  UNL     1      23.735   0.090  53.127  1.00  0.00    -0.024 A 
HETATM   22  C12 UNL     1      24.162   1.306  52.641  1.00  0.00     0.043 A 
BRANCH  21  23
HETATM   23  C6  UNL     1      22.343  -0.266  53.274  1.00  0.00    -0.026 A 
HETATM   24  C7  UNL     1      21.889  -1.251  54.127  1.00  0.00     0.012 A 
HETATM   25  C8  UNL     1      20.520  -1.531  54.211  1.00  0.00     0.001 A 
HETATM   26  C9  UNL     1      19.616  -0.820  53.438  1.00  0.00     0.000 A 
HETATM   27  C10 UNL     1      20.069   0.165  52.585  1.00  0.00     0.001 A 
HETATM   28  C11 UNL     1      21.415   0.427  52.514  1.00  0.00     0.012 A 
ENDBRANCH  21  23
ENDBRANCH   1  16
TORSDOF 2
ENDMDL
MODEL 5
REMARK VINA RESULT:      -9.1      2.618      4.554
REMARK  2 active torsions:
REMARK  status: ('A' for Active; 'I' for Inactive)
REMARK    1  A    between atoms: C5_5  and  C6_6 
REMARK    2  A    between atoms: C13_13  and  N1_14 
REMARK       I    between atoms: N1_14  and  C14_15 
ROOT
HETATM    1  N1  UNL     1      24.010   3.825  49.536  1.00  0.00    -0.188 N 
HETATM    2  C14 UNL     1      23.613   5.166  49.750  1.00  0.00     0.723 C 
HETATM    3  N2  UNL     1      24.060   5.726  50.814  1.00  0.00    -0.104 NA
HETATM    4  C15 UNL     1      23.775   7.062  51.205  1.00  0.00     0.181 C 
HETATM    5  C16 UNL     1      24.493   8.146  50.484  1.00  0.00     0.070 A 
HETATM    6  C17 UNL     1      23.973   8.505  49.164  1.00  0.00     0.057 A 
HETATM    7  C18 UNL     1      25.103   8.236  48.529  1.00  0.00     0.011 A 
HETATM    8  C19 UNL     1      25.772   7.837  49.790  1.00  0.00     0.018 A 
HETATM    9  C20 UNL     1      26.924   8.766  50.094  1.00  0.00     0.015 C 
HETATM   10  O1  UNL     1      22.659   8.955  48.955  1.00  0.00    -0.308 OA
HETATM   11  C21 UNL     1      21.794   8.291  48.063  1.00  0.00     0.259 C 
HETATM   12  N3  UNL     1      21.255   7.092  48.110  1.00  0.00    -0.229 NA
HETATM   13  C22 UNL     1      21.596   6.306  49.271  1.00  0.00     0.254 C 
HETATM   14  N4  UNL     1      22.788   5.973  48.932  1.00  0.00    -0.056 NA
HETATM   15  H12 UNL     1      23.956   3.556  48.511  1.00  0.00     0.184 HD
ENDROOT
BRANCH   1  16
HETATM   16  C13 UNL     1      24.436   2.875  50.477  1.00  0.00     0.056 A 
HETATM   17  C2  UNL     1      25.810   2.615  50.583  1.00  0.00    -0.035 A 
HETATM   18  C1  UNL     1      26.765   3.358  49.691  1.00  0.00     0.050 C 
HETATM   19  C3  UNL     1      26.311   1.698  51.481  1.00  0.00     0.010 A 
HETATM   20  C4  UNL     1      25.496   0.983  52.328  1.00  0.00     0.013 A 
HETATM   21  C5  UNL     1      24.138   1.226  52.236  1.00  0.00    -0.024 A 
HETATM   22  C12 UNL     1      23.676   2.150  51.327  1.00  0.00     0.043 A 
BRANCH  21  23
HETATM   23  C6  UNL     1      23.277   0.479  53.124  1.00  0.00    -0.026 A 
HETATM   24  C7  UNL     1      23.720  -0.531  53.952  1.00  0.00     0.012 A 
HETATM   25  C8  UNL     1      22.818  -1.202  54.785  1.00  0.00     0.001 A 
HETATM   26  C9  UNL     1      21.476  -0.854  54.781  1.00  0.00     0.000 A 
HETATM   27  C10 UNL     1      21.033   0.156  53.953  1.00  0.00     0.001 A 
HETATM   28  C11 UNL     1      21.930   0.805  53.142  1.00  0.00     0.012 A 
ENDBRANCH  21  23
ENDBRANCH   1  16
TORSDOF 2
ENDMDL
MODEL 6
REMARK VINA RESULT:      -9.0      3.345      8.116
REMARK  2 active torsions:
REMARK  status: ('A' for Active; 'I' for Inactive)
REMARK    1  A    between atoms: C5_5  and  C6_6 
REMARK    2  A    between atoms: C13_13  and  N1_14 
REMARK       I    between atoms: N1_14  and  C14_15 
ROOT
HETATM    1  N1  UNL     1      26.701   2.504  50.370  1.00  0.00    -0.188 N 
HETATM    2  C14 UNL     1      26.754   2.134  51.735  1.00  0.00     0.723 C 
HETATM    3  N2  UNL     1      25.787   2.545  52.471  1.00  0.00    -0.104 NA
HETATM    4  C15 UNL     1      25.661   2.279  53.862  1.00  0.00     0.181 C 
HETATM    5  C16 UNL     1      25.213   0.918  54.253  1.00  0.00     0.070 A 
HETATM    6  C17 UNL     1      26.231  -0.135  54.226  1.00  0.00     0.057 A 
HETATM    7  C18 UNL     1      25.578  -0.889  53.355  1.00  0.00     0.011 A 
HETATM    8  C19 UNL     1      24.464   0.086  53.273  1.00  0.00     0.018 A 
HETATM    9  C20 UNL     1      23.183  -0.533  53.781  1.00  0.00     0.015 C 
HETATM   10  O1  UNL     1      27.410  -0.080  54.987  1.00  0.00    -0.308 OA
HETATM   11  C21 UNL     1      28.677  -0.159  54.374  1.00  0.00     0.259 C 
HETATM   12  N3  UNL     1      29.298   0.665  53.559  1.00  0.00    -0.229 NA
HETATM   13  C22 UNL     1      28.573   1.867  53.224  1.00  0.00     0.254 C 
HETATM   14  N4  UNL     1      27.739   1.358  52.392  1.00  0.00    -0.056 NA
HETATM   15  H12 UNL     1      27.264   1.844  49.760  1.00  0.00     0.184 HD
ENDROOT
BRANCH   1  16
HETATM   16  C13 UNL     1      26.027   3.584  49.779  1.00  0.00     0.056 A 
HETATM   17  C2  UNL     1      24.634   3.503  49.643  1.00  0.00    -0.035 A 
HETATM   18  C1  UNL     1      23.922   2.273  50.131  1.00  0.00     0.050 C 
HETATM   19  C3  UNL     1      23.897   4.520  49.074  1.00  0.00     0.010 A 
HETATM   20  C4  UNL     1      24.483   5.674  48.607  1.00  0.00     0.013 A 
HETATM   21  C5  UNL     1      25.856   5.770  48.733  1.00  0.00    -0.024 A 
HETATM   22  C12 UNL     1      26.557   4.733  49.307  1.00  0.00     0.043 A 
BRANCH  21  23
HETATM   23  C6  UNL     1      26.476   6.980  48.246  1.00  0.00    -0.026 A 
HETATM   24  C7  UNL     1      25.808   8.176  48.092  1.00  0.00     0.012 A 
HETATM   25  C8  UNL     1      26.486   9.304  47.617  1.00  0.00     0.001 A 
HETATM   26  C9  UNL     1      27.832   9.223  47.299  1.00  0.00     0.000 A 
HETATM   27  C10 UNL     1      28.502   8.027  47.452  1.00  0.00     0.001 A 
HETATM   28  C11 UNL     1      27.822   6.930  47.920  1.00  0.00     0.012 A 
ENDBRANCH  21  23
ENDBRANCH   1  16
TORSDOF 2
ENDMDL
MODEL 7
REMARK VINA RESULT:      -8.9      2.834      8.226
REMARK  2 active torsions:
REMARK  status: ('A' for Active; 'I' for Inactive)
REMARK    1  A    between atoms: C5_5  and  C6_6 
REMARK    2  A    between atoms: C13_13  and  N1_14 
REMARK       I    between atoms: N1_14  and  C14_15 
ROOT
HETATM    1  N1  UNL     1      26.497   2.842  50.322  1.00  0.00    -0.188 N 
HETATM    2  C14 UNL     1      26.569   2.378  51.657  1.00  0.00     0.723 C 
HETATM    3  N2  UNL     1      25.543   2.608  52.392  1.00  0.00    -0.104 NA
HETATM    4  C15 UNL     1      25.425   2.223  53.755  1.00  0.00     0.181 C 
HETATM    5  C16 UNL     1      25.146   0.790  54.032  1.00  0.00     0.070 A 
HETATM    6  C17 UNL     1      26.289  -0.122  53.957  1.00  0.00     0.057 A 
HETATM    7  C18 UNL     1      25.755  -0.882  53.014  1.00  0.00     0.011 A 
HETATM    8  C19 UNL     1      24.528  -0.051  52.972  1.00  0.00     0.018 A 
HETATM    9  C20 UNL     1      23.326  -0.863  53.395  1.00  0.00     0.015 C 
HETATM   10  O1  UNL     1      27.437   0.022  54.755  1.00  0.00    -0.308 OA
HETATM   11  C21 UNL     1      28.715   0.148  54.175  1.00  0.00     0.259 C 
HETATM   12  N3  UNL     1      29.243   1.104  53.442  1.00  0.00    -0.229 NA
HETATM   13  C22 UNL     1      28.378   2.228  53.174  1.00  0.00     0.254 C 
HETATM   14  N4  UNL     1      27.631   1.684  52.283  1.00  0.00    -0.056 NA
HETATM   15  H12 UNL     1      27.151   2.306  49.681  1.00  0.00     0.184 HD
ENDROOT
BRANCH   1  16
HETATM   16  C13 UNL     1      25.703   3.872  49.792  1.00  0.00     0.056 A 
HETATM   17  C2  UNL     1      26.334   4.888  49.061  1.00  0.00    -0.035 A 
HETATM   18  C1  UNL     1      27.825   4.836  48.874  1.00  0.00     0.050 C 
HETATM   19  C3  UNL     1      25.628   5.934  48.508  1.00  0.00     0.010 A 
HETATM   20  C4  UNL     1      24.263   6.045  48.639  1.00  0.00     0.013 A 
HETATM   21  C5  UNL     1      23.625   5.052  49.357  1.00  0.00    -0.024 A 
HETATM   22  C12 UNL     1      24.365   4.022  49.894  1.00  0.00     0.043 A 
BRANCH  21  23
HETATM   23  C6  UNL     1      22.191   5.161  49.497  1.00  0.00    -0.026 A 
HETATM   24  C7  UNL     1      21.411   6.022  48.753  1.00  0.00     0.012 A 
HETATM   25  C8  UNL     1      20.026   6.063  48.948  1.00  0.00     0.001 A 
HETATM   26  C9  UNL     1      19.433   5.238  49.891  1.00  0.00     0.000 A 
HETATM   27  C10 UNL     1      20.211   4.377  50.636  1.00  0.00     0.001 A 
HETATM   28  C11 UNL     1      21.569   4.349  50.432  1.00  0.00     0.012 A 
ENDBRANCH  21  23
ENDBRANCH   1  16
TORSDOF 2
ENDMDL
MODEL 8
REMARK VINA RESULT:      -8.7      6.592     10.291
REMARK  2 active torsions:
REMARK  status: ('A' for Active; 'I' for Inactive)
REMARK    1  A    between atoms: C5_5  and  C6_6 
REMARK    2  A    between atoms: C13_13  and  N1_14 
REMARK       I    between atoms: N1_14  and  C14_15 
ROOT
HETATM    1  N1  UNL     1      29.431   7.839  47.740  1.00  0.00    -0.188 N 
HETATM    2  C14 UNL     1      30.721   7.323  48.009  1.00  0.00     0.723 C 
HETATM    3  N2  UNL     1      30.768   6.275  48.749  1.00  0.00    -0.104 NA
HETATM    4  C15 UNL     1      31.965   5.611  49.132  1.00  0.00     0.181 C 
HETATM    5  C16 UNL     1      32.627   4.764  48.107  1.00  0.00     0.070 A 
HETATM    6  C17 UNL     1      33.431   5.464  47.104  1.00  0.00     0.057 A 
HETATM    7  C18 UNL     1      32.733   5.012  46.074  1.00  0.00     0.011 A 
HETATM    8  C19 UNL     1      31.828   4.245  46.964  1.00  0.00     0.018 A 
HETATM    9  C20 UNL     1      31.955   2.764  46.694  1.00  0.00     0.015 C 
HETATM   10  O1  UNL     1      34.526   6.280  47.435  1.00  0.00    -0.308 OA
HETATM   11  C21 UNL     1      34.577   7.630  47.033  1.00  0.00     0.259 C 
HETATM   12  N3  UNL     1      33.845   8.665  47.382  1.00  0.00    -0.229 NA
HETATM   13  C22 UNL     1      32.804   8.391  48.344  1.00  0.00     0.254 C 
HETATM   14  N4  UNL     1      31.969   7.814  47.560  1.00  0.00    -0.056 NA
HETATM   15  H12 UNL     1      29.416   8.420  46.852  1.00  0.00     0.184 HD
ENDROOT
BRANCH   1  16
HETATM   16  C13 UNL     1      28.248   7.675  48.478  1.00  0.00     0.056 A 
HETATM   17  C2  UNL     1      27.833   8.725  49.309  1.00  0.00    -0.035 A 
HETATM   18  C1  UNL     1      28.664   9.975  49.379  1.00  0.00     0.050 C 
HETATM   19  C3  UNL     1      26.684   8.644  50.066  1.00  0.00     0.010 A 
HETATM   20  C4  UNL     1      25.876   7.531  50.052  1.00  0.00     0.013 A 
HETATM   21  C5  UNL     1      26.270   6.486  49.237  1.00  0.00    -0.024 A 
HETATM   22  C12 UNL     1      27.424   6.604  48.495  1.00  0.00     0.043 A 
BRANCH  21  23
HETATM   23  C6  UNL     1      25.424   5.315  49.216  1.00  0.00    -0.026 A 
HETATM   24  C7  UNL     1      25.813   4.080  49.692  1.00  0.00     0.012 A 
HETATM   25  C8  UNL     1      24.929   2.997  49.637  1.00  0.00     0.001 A 
HETATM   26  C9  UNL     1      23.660   3.161  49.105  1.00  0.00     0.000 A 
HETATM   27  C10 UNL     1      23.270   4.395  48.629  1.00  0.00     0.001 A 
HETATM   28  C11 UNL     1      24.150   5.448  48.690  1.00  0.00     0.012 A 
ENDBRANCH  21  23
ENDBRANCH   1  16
TORSDOF 2
ENDMDL
MODEL 9
REMARK VINA RESULT:      -8.5      7.860     11.829
REMARK  2 active torsions:
REMARK  status: ('A' for Active; 'I' for Inactive)
REMARK    1  A    between atoms: C5_5  and  C6_6 
REMARK    2  A    between atoms: C13_13  and  N1_14 
REMARK       I    between atoms: N1_14  and  C14_15 
ROOT
HETATM    1  N1  UNL     1      30.192   5.972  48.956  1.00  0.00    -0.188 N 
HETATM    2  C14 UNL     1      31.304   5.663  48.138  1.00  0.00     0.723 C 
HETATM    3  N2  UNL     1      31.642   6.555  47.280  1.00  0.00    -0.104 NA
HETATM    4  C15 UNL     1      32.727   6.432  46.371  1.00  0.00     0.181 C 
HETATM    5  C16 UNL     1      34.095   6.621  46.919  1.00  0.00     0.070 A 
HETATM    6  C17 UNL     1      34.671   5.483  47.637  1.00  0.00     0.057 A 
HETATM    7  C18 UNL     1      34.840   6.148  48.769  1.00  0.00     0.011 A 
HETATM    8  C19 UNL     1      34.275   7.386  48.182  1.00  0.00     0.018 A 
HETATM    9  C20 UNL     1      35.319   8.477  48.146  1.00  0.00     0.015 C 
HETATM   10  O1  UNL     1      34.859   4.221  47.048  1.00  0.00    -0.308 OA
HETATM   11  C21 UNL     1      34.284   3.063  47.608  1.00  0.00     0.259 C 
HETATM   12  N3  UNL     1      33.028   2.693  47.733  1.00  0.00    -0.229 NA
HETATM   13  C22 UNL     1      32.055   3.621  47.209  1.00  0.00     0.254 C 
HETATM   14  N4  UNL     1      32.098   4.492  48.150  1.00  0.00    -0.056 NA
HETATM   15  H12 UNL     1      30.203   5.420  49.862  1.00  0.00     0.184 HD
ENDROOT
BRANCH   1  16
HETATM   16  C13 UNL     1      29.143   6.871  48.708  1.00  0.00     0.056 A 
HETATM   17  C2  UNL     1      27.861   6.350  48.482  1.00  0.00    -0.035 A 
HETATM   18  C1  UNL     1      27.661   4.861  48.513  1.00  0.00     0.050 C 
HETATM   19  C3  UNL     1      26.778   7.164  48.231  1.00  0.00     0.010 A 
HETATM   20  C4  UNL     1      26.887   8.535  48.189  1.00  0.00     0.013 A 
HETATM   21  C5  UNL     1      28.144   9.066  48.410  1.00  0.00    -0.024 A 
HETATM   22  C12 UNL     1      29.202   8.220  48.657  1.00  0.00     0.043 A 
BRANCH  21  23
HETATM   23  C6  UNL     1      28.266  10.504  48.368  1.00  0.00    -0.026 A 
HETATM   24  C7  UNL     1      27.233  11.352  48.026  1.00  0.00     0.012 A 
HETATM   25  C8  UNL     1      27.434  12.736  48.015  1.00  0.00     0.001 A 
HETATM   26  C9  UNL     1      28.673  13.262  48.348  1.00  0.00     0.000 A 
HETATM   27  C10 UNL     1      29.706  12.415  48.690  1.00  0.00     0.001 A 
HETATM   28  C11 UNL     1      29.492  11.059  48.696  1.00  0.00     0.012 A 
ENDBRANCH  21  23
ENDBRANCH   1  16
TORSDOF 2
ENDMDL
