MODEL 1
REMARK VINA RESULT:      -8.2      0.000      0.000
REMARK  3 active torsions:
REMARK  status: ('A' for Active; 'I' for Inactive)
REMARK    1  A    between atoms: O1_2  and  C2_3 
REMARK    2  A    between atoms: C5_6  and  N1_7 
REMARK    3  A    between atoms: N1_7  and  C6_8 
ROOT
HETATM    1  C2  UNL     1      20.568   0.415  51.489  1.00  0.00     0.075 A 
HETATM    2  C3  UNL     1      21.881   0.385  51.905  1.00  0.00     0.053 A 
HETATM    3  C4  UNL     1      22.330  -0.198  53.066  1.00  0.00     0.022 A 
HETATM    4  C5  UNL     1      23.635  -0.233  53.486  1.00  0.00     0.046 A 
HETATM    5  C12 UNL     1      23.820  -0.878  54.684  1.00  0.00     0.049 A 
HETATM    6  C13 UNL     1      22.854  -1.467  55.468  1.00  0.00     0.119 A 
HETATM    7  N2  UNL     1      21.569  -1.410  55.011  1.00  0.00    -0.260 NA
HETATM    8  C14 UNL     1      21.342  -0.777  53.824  1.00  0.00     0.069 A 
HETATM    9  C15 UNL     1      20.014  -0.773  53.451  1.00  0.00     0.042 A 
HETATM   10  C16 UNL     1      19.603  -0.177  52.278  1.00  0.00    -0.026 A 
HETATM   11  C17 UNL     1      18.191  -0.155  51.851  1.00  0.00     0.051 C 
ENDROOT
BRANCH   4  12
HETATM   12  N1  UNL     1      24.625   0.376  52.707  1.00  0.00    -0.355 N 
HETATM   13  H5  UNL     1      24.448   0.707  51.743  1.00  0.00     0.166 HD
BRANCH  12  14
HETATM   14  C6  UNL     1      25.982   0.685  52.965  1.00  0.00     0.033 A 
HETATM   15  C7  UNL     1      26.463   1.952  53.195  1.00  0.00     0.029 A 
HETATM   16  C8  UNL     1      27.768   2.288  53.477  1.00  0.00     0.004 A 
HETATM   17  C9  UNL     1      28.697   1.270  53.539  1.00  0.00     0.019 A 
HETATM   18  C10 UNL     1      28.315  -0.026  53.324  1.00  0.00     0.013 A 
HETATM   19 BR1  UNL     1      29.589  -1.430  53.408  1.00  0.00    -0.051 Br
HETATM   20  C11 UNL     1      26.995  -0.275  53.049  1.00  0.00     0.048 A 
ENDBRANCH  12  14
ENDBRANCH   4  12
BRANCH   1  21
HETATM   21  O1  UNL     1      20.173   1.021  50.305  1.00  0.00    -0.355 OA
HETATM   22  C1  UNL     1      21.058   1.139  49.193  1.00  0.00     0.210 C 
ENDBRANCH   1  21
TORSDOF 3
ENDMDL
MODEL 2
REMARK VINA RESULT:      -7.9      3.885      5.099
REMARK  3 active torsions:
REMARK  status: ('A' for Active; 'I' for Inactive)
REMARK    1  A    between atoms: O1_2  and  C2_3 
REMARK    2  A    between atoms: C5_6  and  N1_7 
REMARK    3  A    between atoms: N1_7  and  C6_8 
ROOT
HETATM    1  C2  UNL     1      22.321   0.442  52.824  1.00  0.00     0.075 A 
HETATM    2  C3  UNL     1      23.243   1.183  52.117  1.00  0.00     0.053 A 
HETATM    3  C4  UNL     1      24.606   1.116  52.281  1.00  0.00     0.022 A 
HETATM    4  C5  UNL     1      25.529   1.850  51.581  1.00  0.00     0.046 A 
HETATM    5  C12 UNL     1      26.831   1.596  51.935  1.00  0.00     0.049 A 
HETATM    6  C13 UNL     1      27.274   0.707  52.889  1.00  0.00     0.119 A 
HETATM    7  N2  UNL     1      26.322  -0.003  53.560  1.00  0.00    -0.260 NA
HETATM    8  C14 UNL     1      25.014   0.221  53.239  1.00  0.00     0.069 A 
HETATM    9  C15 UNL     1      24.132  -0.545  53.972  1.00  0.00     0.042 A 
HETATM   10  C16 UNL     1      22.770  -0.448  53.779  1.00  0.00    -0.026 A 
HETATM   11  C17 UNL     1      21.800  -1.251  54.547  1.00  0.00     0.051 C 
ENDROOT
BRANCH   4  12
HETATM   12  N1  UNL     1      25.092   2.768  50.620  1.00  0.00    -0.355 N 
HETATM   13  H5  UNL     1      24.160   2.706  50.176  1.00  0.00     0.166 HD
BRANCH  12  14
HETATM   14  C6  UNL     1      25.705   3.907  50.045  1.00  0.00     0.033 A 
HETATM   15  C7  UNL     1      26.824   3.871  49.248  1.00  0.00     0.029 A 
HETATM   16  C8  UNL     1      27.433   4.952  48.650  1.00  0.00     0.004 A 
HETATM   17  C9  UNL     1      26.880   6.198  48.858  1.00  0.00     0.019 A 
HETATM   18  C10 UNL     1      25.765   6.337  49.636  1.00  0.00     0.013 A 
HETATM   19 BR1  UNL     1      25.001   8.051  49.926  1.00  0.00    -0.051 Br
HETATM   20  C11 UNL     1      25.221   5.210  50.196  1.00  0.00     0.048 A 
ENDBRANCH  12  14
ENDBRANCH   4  12
BRANCH   1  21
HETATM   21  O1  UNL     1      20.954   0.553  52.616  1.00  0.00    -0.355 OA
HETATM   22  C1  UNL     1      20.282   1.807  52.711  1.00  0.00     0.210 C 
ENDBRANCH   1  21
TORSDOF 3
ENDMDL
MODEL 3
REMARK VINA RESULT:      -7.8      2.126      3.706
REMARK  3 active torsions:
REMARK  status: ('A' for Active; 'I' for Inactive)
REMARK    1  A    between atoms: O1_2  and  C2_3 
REMARK    2  A    between atoms: C5_6  and  N1_7 
REMARK    3  A    between atoms: N1_7  and  C6_8 
ROOT
HETATM    1  C2  UNL     1      22.117   0.561  53.149  1.00  0.00     0.075 A 
HETATM    2  C3  UNL     1      23.315   1.222  52.984  1.00  0.00     0.053 A 
HETATM    3  C4  UNL     1      23.701   1.889  51.845  1.00  0.00     0.022 A 
HETATM    4  C5  UNL     1      24.891   2.549  51.674  1.00  0.00     0.046 A 
HETATM    5  C12 UNL     1      25.033   3.134  50.441  1.00  0.00     0.049 A 
HETATM    6  C13 UNL     1      24.126   3.119  49.404  1.00  0.00     0.119 A 
HETATM    7  N2  UNL     1      22.956   2.451  49.618  1.00  0.00    -0.260 NA
HETATM    8  C14 UNL     1      22.775   1.854  50.832  1.00  0.00     0.069 A 
HETATM    9  C15 UNL     1      21.562   1.207  50.948  1.00  0.00     0.042 A 
HETATM   10  C16 UNL     1      21.212   0.548  52.108  1.00  0.00    -0.026 A 
HETATM   11  C17 UNL     1      19.924  -0.155  52.264  1.00  0.00     0.051 C 
ENDROOT
BRANCH   4  12
HETATM   12  N1  UNL     1      25.827   2.559  52.714  1.00  0.00    -0.355 N 
HETATM   13  H5  UNL     1      25.815   3.270  53.465  1.00  0.00     0.166 HD
BRANCH  12  14
HETATM   14  C6  UNL     1      26.922   1.714  53.015  1.00  0.00     0.033 A 
HETATM   15  C7  UNL     1      28.104   2.138  53.572  1.00  0.00     0.029 A 
HETATM   16  C8  UNL     1      29.179   1.343  53.904  1.00  0.00     0.004 A 
HETATM   17  C9  UNL     1      29.078  -0.011  53.661  1.00  0.00     0.019 A 
HETATM   18  C10 UNL     1      27.940  -0.530  53.108  1.00  0.00     0.013 A 
HETATM   19 BR1  UNL     1      27.796  -2.392  52.772  1.00  0.00    -0.051 Br
HETATM   20  C11 UNL     1      26.915   0.331  52.807  1.00  0.00     0.048 A 
ENDBRANCH  12  14
ENDBRANCH   4  12
BRANCH   1  21
HETATM   21  O1  UNL     1      21.782  -0.096  54.324  1.00  0.00    -0.355 OA
HETATM   22  C1  UNL     1      22.636  -1.084  54.899  1.00  0.00     0.210 C 
ENDBRANCH   1  21
TORSDOF 3
ENDMDL
MODEL 4
REMARK VINA RESULT:      -7.6      3.502      6.594
REMARK  3 active torsions:
REMARK  status: ('A' for Active; 'I' for Inactive)
REMARK    1  A    between atoms: O1_2  and  C2_3 
REMARK    2  A    between atoms: C5_6  and  N1_7 
REMARK    3  A    between atoms: N1_7  and  C6_8 
ROOT
HETATM    1  C2  UNL     1      26.755   1.685  52.566  1.00  0.00     0.075 A 
HETATM    2  C3  UNL     1      25.478   1.176  52.479  1.00  0.00     0.053 A 
HETATM    3  C4  UNL     1      24.897   0.334  53.398  1.00  0.00     0.022 A 
HETATM    4  C5  UNL     1      23.626  -0.177  53.318  1.00  0.00     0.046 A 
HETATM    5  C12 UNL     1      23.285  -0.995  54.367  1.00  0.00     0.049 A 
HETATM    6  C13 UNL     1      24.072  -1.334  55.445  1.00  0.00     0.119 A 
HETATM    7  N2  UNL     1      25.328  -0.803  55.484  1.00  0.00    -0.260 NA
HETATM    8  C14 UNL     1      25.707   0.016  54.460  1.00  0.00     0.069 A 
HETATM    9  C15 UNL     1      26.991   0.500  54.593  1.00  0.00     0.042 A 
HETATM   10  C16 UNL     1      27.539   1.342  53.648  1.00  0.00    -0.026 A 
HETATM   11  C17 UNL     1      28.910   1.877  53.760  1.00  0.00     0.051 C 
ENDROOT
BRANCH   4  12
HETATM   12  N1  UNL     1      22.823   0.147  52.220  1.00  0.00    -0.355 N 
HETATM   13  H5  UNL     1      23.047  -0.158  51.257  1.00  0.00     0.166 HD
BRANCH  12  14
HETATM   14  C6  UNL     1      21.620   0.886  52.107  1.00  0.00     0.033 A 
HETATM   15  C7  UNL     1      21.477   2.202  52.476  1.00  0.00     0.029 A 
HETATM   16  C8  UNL     1      20.333   2.961  52.357  1.00  0.00     0.004 A 
HETATM   17  C9  UNL     1      19.215   2.360  51.817  1.00  0.00     0.019 A 
HETATM   18  C10 UNL     1      19.259   1.052  51.420  1.00  0.00     0.013 A 
HETATM   19 BR1  UNL     1      17.722   0.220  50.678  1.00  0.00    -0.051 Br
HETATM   20  C11 UNL     1      20.437   0.367  51.574  1.00  0.00     0.048 A 
ENDBRANCH  12  14
ENDBRANCH   4  12
BRANCH   1  21
HETATM   21  O1  UNL     1      27.288   2.531  51.605  1.00  0.00    -0.355 OA
HETATM   22  C1  UNL     1      26.485   3.083  50.564  1.00  0.00     0.210 C 
ENDBRANCH   1  21
TORSDOF 3
ENDMDL
MODEL 5
REMARK VINA RESULT:      -7.5      3.277      5.977
REMARK  3 active torsions:
REMARK  status: ('A' for Active; 'I' for Inactive)
REMARK    1  A    between atoms: O1_2  and  C2_3 
REMARK    2  A    between atoms: C5_6  and  N1_7 
REMARK    3  A    between atoms: N1_7  and  C6_8 
ROOT
HETATM    1  C2  UNL     1      25.895   0.785  52.333  1.00  0.00     0.075 A 
HETATM    2  C3  UNL     1      24.560   1.126  52.325  1.00  0.00     0.053 A 
HETATM    3  C4  UNL     1      23.591   0.549  53.113  1.00  0.00     0.022 A 
HETATM    4  C5  UNL     1      22.261   0.884  53.111  1.00  0.00     0.046 A 
HETATM    5  C12 UNL     1      21.500   0.156  53.993  1.00  0.00     0.049 A 
HETATM    6  C13 UNL     1      21.936  -0.836  54.843  1.00  0.00     0.119 A 
HETATM    7  N2  UNL     1      23.267  -1.135  54.812  1.00  0.00    -0.260 NA
HETATM    8  C14 UNL     1      24.058  -0.435  53.948  1.00  0.00     0.069 A 
HETATM    9  C15 UNL     1      25.384  -0.812  53.993  1.00  0.00     0.042 A 
HETATM   10  C16 UNL     1      26.326  -0.209  53.186  1.00  0.00    -0.026 A 
HETATM   11  C17 UNL     1      27.751  -0.590  53.209  1.00  0.00     0.051 C 
ENDROOT
BRANCH   4  12
HETATM   12  N1  UNL     1      21.803   1.879  52.241  1.00  0.00    -0.355 N 
HETATM   13  H5  UNL     1      21.326   2.733  52.576  1.00  0.00     0.166 HD
BRANCH  12  14
HETATM   14  C6  UNL     1      21.851   2.005  50.832  1.00  0.00     0.033 A 
HETATM   15  C7  UNL     1      21.496   1.015  49.948  1.00  0.00     0.029 A 
HETATM   16  C8  UNL     1      21.504   1.109  48.574  1.00  0.00     0.004 A 
HETATM   17  C9  UNL     1      21.902   2.304  48.013  1.00  0.00     0.019 A 
HETATM   18  C10 UNL     1      22.275   3.351  48.810  1.00  0.00     0.013 A 
HETATM   19 BR1  UNL     1      22.824   4.998  48.042  1.00  0.00    -0.051 Br
HETATM   20  C11 UNL     1      22.240   3.174  50.170  1.00  0.00     0.048 A 
ENDBRANCH  12  14
ENDBRANCH   4  12
BRANCH   1  21
HETATM   21  O1  UNL     1      26.828   1.404  51.514  1.00  0.00    -0.355 OA
HETATM   22  C1  UNL     1      26.538   2.626  50.838  1.00  0.00     0.210 C 
ENDBRANCH   1  21
TORSDOF 3
ENDMDL
MODEL 6
REMARK VINA RESULT:      -7.5      4.154      6.391
REMARK  3 active torsions:
REMARK  status: ('A' for Active; 'I' for Inactive)
REMARK    1  A    between atoms: O1_2  and  C2_3 
REMARK    2  A    between atoms: C5_6  and  N1_7 
REMARK    3  A    between atoms: N1_7  and  C6_8 
ROOT
HETATM    1  C2  UNL     1      27.099   1.092  52.852  1.00  0.00     0.075 A 
HETATM    2  C3  UNL     1      25.921   1.800  52.772  1.00  0.00     0.053 A 
HETATM    3  C4  UNL     1      24.663   1.264  52.917  1.00  0.00     0.022 A 
HETATM    4  C5  UNL     1      23.486   1.963  52.839  1.00  0.00     0.046 A 
HETATM    5  C12 UNL     1      22.364   1.192  53.021  1.00  0.00     0.049 A 
HETATM    6  C13 UNL     1      22.318  -0.163  53.265  1.00  0.00     0.119 A 
HETATM    7  N2  UNL     1      23.513  -0.818  53.335  1.00  0.00    -0.260 NA
HETATM    8  C14 UNL     1      24.652  -0.088  53.159  1.00  0.00     0.069 A 
HETATM    9  C15 UNL     1      25.804  -0.841  53.249  1.00  0.00     0.042 A 
HETATM   10  C16 UNL     1      27.048  -0.265  53.096  1.00  0.00    -0.026 A 
HETATM   11  C17 UNL     1      28.299  -1.043  53.185  1.00  0.00     0.051 C 
ENDROOT
BRANCH   4  12
HETATM   12  N1  UNL     1      23.518   3.337  52.577  1.00  0.00    -0.355 N 
HETATM   13  H5  UNL     1      23.421   4.047  53.322  1.00  0.00     0.166 HD
BRANCH  12  14
HETATM   14  C6  UNL     1      23.675   4.071  51.377  1.00  0.00     0.033 A 
HETATM   15  C7  UNL     1      23.663   3.520  50.118  1.00  0.00     0.029 A 
HETATM   16  C8  UNL     1      23.786   4.205  48.929  1.00  0.00     0.004 A 
HETATM   17  C9  UNL     1      23.936   5.575  48.987  1.00  0.00     0.019 A 
HETATM   18  C10 UNL     1      23.960   6.215  50.194  1.00  0.00     0.013 A 
HETATM   19 BR1  UNL     1      24.167   8.101  50.279  1.00  0.00    -0.051 Br
HETATM   20  C11 UNL     1      23.832   5.460  51.332  1.00  0.00     0.048 A 
ENDBRANCH  12  14
ENDBRANCH   4  12
BRANCH   1  21
HETATM   21  O1  UNL     1      28.342   1.689  52.696  1.00  0.00    -0.355 OA
HETATM   22  C1  UNL     1      28.905   2.522  53.707  1.00  0.00     0.210 C 
ENDBRANCH   1  21
TORSDOF 3
ENDMDL
MODEL 7
REMARK VINA RESULT:      -7.4      3.575      5.150
REMARK  3 active torsions:
REMARK  status: ('A' for Active; 'I' for Inactive)
REMARK    1  A    between atoms: O1_2  and  C2_3 
REMARK    2  A    between atoms: C5_6  and  N1_7 
REMARK    3  A    between atoms: N1_7  and  C6_8 
ROOT
HETATM    1  C2  UNL     1      22.217   0.710  53.418  1.00  0.00     0.075 A 
HETATM    2  C3  UNL     1      23.169   1.571  52.917  1.00  0.00     0.053 A 
HETATM    3  C4  UNL     1      24.491   1.254  52.708  1.00  0.00     0.022 A 
HETATM    4  C5  UNL     1      25.444   2.106  52.210  1.00  0.00     0.046 A 
HETATM    5  C12 UNL     1      26.692   1.543  52.097  1.00  0.00     0.049 A 
HETATM    6  C13 UNL     1      27.056   0.256  52.425  1.00  0.00     0.119 A 
HETATM    7  N2  UNL     1      26.075  -0.556  52.916  1.00  0.00    -0.260 NA
HETATM    8  C14 UNL     1      24.820  -0.035  53.045  1.00  0.00     0.069 A 
HETATM    9  C15 UNL     1      23.904  -0.935  53.549  1.00  0.00     0.042 A 
HETATM   10  C16 UNL     1      22.586  -0.578  53.745  1.00  0.00    -0.026 A 
HETATM   11  C17 UNL     1      21.582  -1.515  54.283  1.00  0.00     0.051 C 
ENDROOT
BRANCH   4  12
HETATM   12  N1  UNL     1      25.091   3.420  51.888  1.00  0.00    -0.355 N 
HETATM   13  H5  UNL     1      25.208   4.206  52.550  1.00  0.00     0.166 HD
BRANCH  12  14
HETATM   14  C6  UNL     1      24.545   3.997  50.715  1.00  0.00     0.033 A 
HETATM   15  C7  UNL     1      24.775   5.288  50.303  1.00  0.00     0.029 A 
HETATM   16  C8  UNL     1      24.285   5.875  49.157  1.00  0.00     0.004 A 
HETATM   17  C9  UNL     1      23.487   5.111  48.332  1.00  0.00     0.019 A 
HETATM   18  C10 UNL     1      23.201   3.814  48.657  1.00  0.00     0.013 A 
HETATM   19 BR1  UNL     1      22.102   2.758  47.525  1.00  0.00    -0.051 Br
HETATM   20  C11 UNL     1      23.728   3.305  49.817  1.00  0.00     0.048 A 
ENDBRANCH  12  14
ENDBRANCH   4  12
BRANCH   1  21
HETATM   21  O1  UNL     1      20.896   1.088  53.609  1.00  0.00    -0.355 OA
HETATM   22  C1  UNL     1      20.278   2.086  52.799  1.00  0.00     0.210 C 
ENDBRANCH   1  21
TORSDOF 3
ENDMDL
MODEL 8
REMARK VINA RESULT:      -7.3      5.057      7.013
REMARK  3 active torsions:
REMARK  status: ('A' for Active; 'I' for Inactive)
REMARK    1  A    between atoms: O1_2  and  C2_3 
REMARK    2  A    between atoms: C5_6  and  N1_7 
REMARK    3  A    between atoms: N1_7  and  C6_8 
ROOT
HETATM    1  C2  UNL     1      27.033   1.420  53.243  1.00  0.00     0.075 A 
HETATM    2  C3  UNL     1      26.967   2.203  52.112  1.00  0.00     0.053 A 
HETATM    3  C4  UNL     1      25.844   2.385  51.339  1.00  0.00     0.022 A 
HETATM    4  C5  UNL     1      25.770   3.163  50.213  1.00  0.00     0.046 A 
HETATM    5  C12 UNL     1      24.530   3.176  49.622  1.00  0.00     0.049 A 
HETATM    6  C13 UNL     1      23.403   2.507  50.043  1.00  0.00     0.119 A 
HETATM    7  N2  UNL     1      23.522   1.745  51.168  1.00  0.00    -0.260 NA
HETATM    8  C14 UNL     1      24.738   1.704  51.786  1.00  0.00     0.069 A 
HETATM    9  C15 UNL     1      24.753   0.908  52.912  1.00  0.00     0.042 A 
HETATM   10  C16 UNL     1      25.901   0.751  53.660  1.00  0.00    -0.026 A 
HETATM   11  C17 UNL     1      25.951  -0.094  54.869  1.00  0.00     0.051 C 
ENDROOT
BRANCH   4  12
HETATM   12  N1  UNL     1      26.912   3.836  49.766  1.00  0.00    -0.355 N 
HETATM   13  H5  UNL     1      27.869   3.485  49.942  1.00  0.00     0.166 HD
BRANCH  12  14
HETATM   14  C6  UNL     1      27.083   5.036  49.034  1.00  0.00     0.033 A 
HETATM   15  C7  UNL     1      26.083   5.945  48.784  1.00  0.00     0.029 A 
HETATM   16  C8  UNL     1      26.216   7.134  48.101  1.00  0.00     0.004 A 
HETATM   17  C9  UNL     1      27.465   7.461  47.614  1.00  0.00     0.019 A 
HETATM   18  C10 UNL     1      28.524   6.619  47.812  1.00  0.00     0.013 A 
HETATM   19 BR1  UNL     1      30.244   7.064  47.144  1.00  0.00    -0.051 Br
HETATM   20  C11 UNL     1      28.306   5.454  48.503  1.00  0.00     0.048 A 
ENDBRANCH  12  14
ENDBRANCH   4  12
BRANCH   1  21
HETATM   21  O1  UNL     1      28.197   1.274  53.983  1.00  0.00    -0.355 OA
HETATM   22  C1  UNL     1      29.259   0.426  53.550  1.00  0.00     0.210 C 
ENDBRANCH   1  21
TORSDOF 3
ENDMDL
MODEL 9
REMARK VINA RESULT:      -7.3      4.234      5.485
REMARK  3 active torsions:
REMARK  status: ('A' for Active; 'I' for Inactive)
REMARK    1  A    between atoms: O1_2  and  C2_3 
REMARK    2  A    between atoms: C5_6  and  N1_7 
REMARK    3  A    between atoms: N1_7  and  C6_8 
ROOT
HETATM    1  C2  UNL     1      23.086   0.065  52.973  1.00  0.00     0.075 A 
HETATM    2  C3  UNL     1      23.097   0.946  51.913  1.00  0.00     0.053 A 
HETATM    3  C4  UNL     1      22.124   1.883  51.653  1.00  0.00     0.022 A 
HETATM    4  C5  UNL     1      22.127   2.763  50.601  1.00  0.00     0.046 A 
HETATM    5  C12 UNL     1      21.037   3.597  50.566  1.00  0.00     0.049 A 
HETATM    6  C13 UNL     1      19.986   3.627  51.455  1.00  0.00     0.119 A 
HETATM    7  N2  UNL     1      20.024   2.735  52.486  1.00  0.00    -0.260 NA
HETATM    8  C14 UNL     1      21.091   1.887  52.557  1.00  0.00     0.069 A 
HETATM    9  C15 UNL     1      21.035   1.026  53.634  1.00  0.00     0.042 A 
HETATM   10  C16 UNL     1      22.031   0.100  53.861  1.00  0.00    -0.026 A 
HETATM   11  C17 UNL     1      22.001  -0.835  55.002  1.00  0.00     0.051 C 
ENDROOT
BRANCH   4  12
HETATM   12  N1  UNL     1      23.182   2.731  49.682  1.00  0.00    -0.355 N 
HETATM   13  H5  UNL     1      23.270   1.994  48.963  1.00  0.00     0.166 HD
BRANCH  12  14
HETATM   14  C6  UNL     1      24.293   3.585  49.482  1.00  0.00     0.033 A 
HETATM   15  C7  UNL     1      25.602   3.222  49.690  1.00  0.00     0.029 A 
HETATM   16  C8  UNL     1      26.710   4.014  49.481  1.00  0.00     0.004 A 
HETATM   17  C9  UNL     1      26.506   5.297  49.018  1.00  0.00     0.019 A 
HETATM   18  C10 UNL     1      25.238   5.751  48.781  1.00  0.00     0.013 A 
HETATM   19 BR1  UNL     1      24.952   7.517  48.144  1.00  0.00    -0.051 Br
HETATM   20  C11 UNL     1      24.189   4.899  49.015  1.00  0.00     0.048 A 
ENDBRANCH  12  14
ENDBRANCH   4  12
BRANCH   1  21
HETATM   21  O1  UNL     1      24.098  -0.860  53.184  1.00  0.00    -0.355 OA
HETATM   22  C1  UNL     1      25.411  -0.459  53.570  1.00  0.00     0.210 C 
ENDBRANCH   1  21
TORSDOF 3
ENDMDL
