MODEL 1
REMARK VINA RESULT:      -9.6      0.000      0.000
REMARK  2 active torsions:
REMARK  status: ('A' for Active; 'I' for Inactive)
REMARK    1  A    between atoms: C12_14  and  C13_15 
REMARK    2  A    between atoms: C21_28  and  N4_29 
ROOT
HETATM    1  C1  UNL     1      21.543   0.975  49.063  1.00  0.00     0.022 C 
HETATM    2  C2  UNL     1      21.397   0.935  50.606  1.00  0.00     0.074 C 
HETATM    3  C3  UNL     1      20.064   1.462  50.976  1.00  0.00     0.081 C 
HETATM    4  C4  UNL     1      19.418   2.636  51.240  1.00  0.00     0.060 C 
HETATM    5  C5  UNL     1      20.542   3.453  51.048  1.00  0.00     0.043 C 
HETATM    6  C6  UNL     1      21.068   3.656  52.301  1.00  0.00     0.283 A 
HETATM    7  N1  UNL     1      22.277   4.504  52.007  1.00  0.00     0.112 N 
HETATM    8  C7  UNL     1      23.339   3.453  51.981  1.00  0.00     0.233 A 
HETATM    9  O1  UNL     1      22.154   3.600  52.161  1.00  0.00     0.000 OA
HETATM   10  C8  UNL     1      24.475   2.334  51.952  1.00  0.00    -0.026 A 
HETATM   11  C9  UNL     1      24.511   3.118  50.771  1.00  0.00     0.087 A 
HETATM   12  C10 UNL     1      23.276   2.421  50.448  1.00  0.00    -0.006 A 
HETATM   13  C11 UNL     1      22.598   1.437  51.217  1.00  0.00    -0.036 A 
HETATM   14  C12 UNL     1      23.094   1.003  52.465  1.00  0.00     0.054 A 
HETATM   15  C14 UNL     1      24.286   1.503  53.038  1.00  0.00     0.023 A 
HETATM   16  N2  UNL     1      18.212   3.260  51.579  1.00  0.00    -0.364 N 
HETATM   17  C15 UNL     1      16.912   2.708  51.625  1.00  0.00     0.085 C 
HETATM   18  C16 UNL     1      16.379   1.513  51.448  1.00  0.00     0.010 C 
HETATM   19  C17 UNL     1      16.847   0.153  51.115  1.00  0.00     0.064 A 
HETATM   20  C18 UNL     1      16.820  -0.104  49.630  1.00  0.00     0.052 A 
HETATM   21  C19 UNL     1      15.819  -1.156  49.252  1.00  0.00    -0.006 A 
HETATM   22  C20 UNL     1      14.947  -1.918  49.928  1.00  0.00     0.114 A 
HETATM   23  N3  UNL     1      14.982  -1.664  51.349  1.00  0.00    -0.247 NA
HETATM   24  C21 UNL     1      15.824  -0.766  51.745  1.00  0.00     0.112 A 
HETATM   25  C22 UNL     1      18.155  -0.212  51.732  1.00  0.00     0.197 C 
HETATM   26  O2  UNL     1      19.295   0.270  51.051  1.00  0.00    -0.351 OA
HETATM   27  H7  UNL     1      22.688   5.495  51.821  1.00  0.00     0.318 HD
HETATM   28  H11 UNL     1      18.459   4.246  51.797  1.00  0.00     0.165 HD
ENDROOT
BRANCH  24  29
HETATM   29  N4  UNL     1      15.775  -0.597  53.158  1.00  0.00    -0.386 N 
HETATM   30  H18 UNL     1      15.606  -1.454  53.742  1.00  0.00     0.157 HD
HETATM   31  H19 UNL     1      15.769  -0.308  54.159  1.00  0.00     0.157 HD
ENDBRANCH  24  29
BRANCH  14  32
HETATM   32  C13 UNL     1      22.362  -0.029  53.238  1.00  0.00     0.418 C 
HETATM   33  F1  UNL     1      21.256   0.610  53.795  1.00  0.00    -0.166 F 
HETATM   34  F2  UNL     1      23.163  -0.560  54.239  1.00  0.00    -0.166 F 
HETATM   35  F3  UNL     1      21.969  -1.111  52.477  1.00  0.00    -0.166 F 
ENDBRANCH  14  32
TORSDOF 2
ENDMDL
MODEL 2
REMARK VINA RESULT:      -9.6      6.008      8.076
REMARK  2 active torsions:
REMARK  status: ('A' for Active; 'I' for Inactive)
REMARK    1  A    between atoms: C12_14  and  C13_15 
REMARK    2  A    between atoms: C21_28  and  N4_29 
ROOT
HETATM    1  C1  UNL     1      23.475   2.616  48.713  1.00  0.00     0.022 C 
HETATM    2  C2  UNL     1      24.419   3.731  49.232  1.00  0.00     0.074 C 
HETATM    3  C3  UNL     1      24.592   3.572  50.693  1.00  0.00     0.081 C 
HETATM    4  C4  UNL     1      24.011   3.921  51.879  1.00  0.00     0.060 C 
HETATM    5  C5  UNL     1      22.954   4.642  51.303  1.00  0.00     0.043 C 
HETATM    6  C6  UNL     1      23.357   5.955  51.309  1.00  0.00     0.283 A 
HETATM    7  N1  UNL     1      22.195   6.650  50.650  1.00  0.00     0.112 N 
HETATM    8  C7  UNL     1      22.699   6.739  49.246  1.00  0.00     0.233 A 
HETATM    9  O1  UNL     1      23.018   6.356  50.346  1.00  0.00     0.000 OA
HETATM   10  C8  UNL     1      23.233   6.835  47.746  1.00  0.00    -0.026 A 
HETATM   11  C9  UNL     1      21.947   6.239  47.785  1.00  0.00     0.087 A 
HETATM   12  C10 UNL     1      22.650   5.110  48.373  1.00  0.00    -0.006 A 
HETATM   13  C11 UNL     1      24.039   4.992  48.654  1.00  0.00    -0.036 A 
HETATM   14  C12 UNL     1      24.943   6.037  48.367  1.00  0.00     0.054 A 
HETATM   15  C14 UNL     1      24.545   7.264  47.785  1.00  0.00     0.023 A 
HETATM   16  N2  UNL     1      24.055   3.839  53.275  1.00  0.00    -0.364 N 
HETATM   17  C15 UNL     1      24.874   3.022  54.089  1.00  0.00     0.085 C 
HETATM   18  C16 UNL     1      25.850   2.156  53.890  1.00  0.00     0.010 C 
HETATM   19  C17 UNL     1      26.586   1.595  52.740  1.00  0.00     0.064 A 
HETATM   20  C18 UNL     1      25.954   0.323  52.233  1.00  0.00     0.052 A 
HETATM   21  C19 UNL     1      26.837  -0.873  52.437  1.00  0.00    -0.006 A 
HETATM   22  C20 UNL     1      28.054  -1.072  52.963  1.00  0.00     0.114 A 
HETATM   23  N3  UNL     1      28.650   0.152  53.445  1.00  0.00    -0.247 NA
HETATM   24  C21 UNL     1      27.942   1.225  53.301  1.00  0.00     0.112 A 
HETATM   25  C22 UNL     1      26.852   2.573  51.646  1.00  0.00     0.197 C 
HETATM   26  O2  UNL     1      25.774   2.789  50.759  1.00  0.00    -0.351 OA
HETATM   27  H7  UNL     1      21.206   7.094  50.750  1.00  0.00     0.318 HD
HETATM   28  H11 UNL     1      23.344   4.515  53.619  1.00  0.00     0.165 HD
ENDROOT
BRANCH  24  29
HETATM   29  N4  UNL     1      28.623   2.368  53.807  1.00  0.00    -0.386 N 
HETATM   30  H18 UNL     1      28.218   3.311  53.582  1.00  0.00     0.157 HD
HETATM   31  H19 UNL     1      29.231   3.092  54.245  1.00  0.00     0.157 HD
ENDBRANCH  24  29
BRANCH  14  32
HETATM   32  C13 UNL     1      26.385   5.878  48.670  1.00  0.00     0.418 C 
HETATM   33  F1  UNL     1      26.545   6.231  50.009  1.00  0.00    -0.166 F 
HETATM   34  F2  UNL     1      27.155   6.702  47.862  1.00  0.00    -0.166 F 
HETATM   35  F3  UNL     1      26.857   4.602  48.442  1.00  0.00    -0.166 F 
ENDBRANCH  14  32
TORSDOF 2
ENDMDL
MODEL 3
REMARK VINA RESULT:      -9.0      3.840      6.951
REMARK  2 active torsions:
REMARK  status: ('A' for Active; 'I' for Inactive)
REMARK    1  A    between atoms: C12_14  and  C13_15 
REMARK    2  A    between atoms: C21_28  and  N4_29 
ROOT
HETATM    1  C1  UNL     1      23.068   2.119  49.101  1.00  0.00     0.022 C 
HETATM    2  C2  UNL     1      23.127   2.977  50.391  1.00  0.00     0.074 C 
HETATM    3  C3  UNL     1      23.090   2.080  51.567  1.00  0.00     0.081 C 
HETATM    4  C4  UNL     1      22.209   1.437  52.390  1.00  0.00     0.060 C 
HETATM    5  C5  UNL     1      21.056   1.910  51.746  1.00  0.00     0.043 C 
HETATM    6  C6  UNL     1      20.659   3.012  52.463  1.00  0.00     0.283 A 
HETATM    7  N1  UNL     1      19.449   3.475  51.695  1.00  0.00     0.112 N 
HETATM    8  C7  UNL     1      20.065   4.535  50.841  1.00  0.00     0.233 A 
HETATM    9  O1  UNL     1      20.337   3.737  51.706  1.00  0.00     0.000 OA
HETATM   10  C8  UNL     1      20.719   5.667  49.928  1.00  0.00    -0.026 A 
HETATM   11  C9  UNL     1      19.994   4.740  49.138  1.00  0.00     0.087 A 
HETATM   12  C10 UNL     1      21.083   3.833  49.466  1.00  0.00    -0.006 A 
HETATM   13  C11 UNL     1      22.227   4.092  50.268  1.00  0.00    -0.036 A 
HETATM   14  C12 UNL     1      22.438   5.351  50.871  1.00  0.00     0.054 A 
HETATM   15  C14 UNL     1      21.544   6.437  50.724  1.00  0.00     0.023 A 
HETATM   16  N2  UNL     1      22.038   0.587  53.487  1.00  0.00    -0.364 N 
HETATM   17  C15 UNL     1      23.007  -0.181  54.173  1.00  0.00     0.085 C 
HETATM   18  C16 UNL     1      24.315  -0.341  54.106  1.00  0.00     0.010 C 
HETATM   19  C17 UNL     1      25.433   0.183  53.296  1.00  0.00     0.064 A 
HETATM   20  C18 UNL     1      25.712  -0.683  52.093  1.00  0.00     0.052 A 
HETATM   21  C19 UNL     1      27.053  -1.351  52.171  1.00  0.00    -0.006 A 
HETATM   22  C20 UNL     1      28.059  -1.355  53.058  1.00  0.00     0.114 A 
HETATM   23  N3  UNL     1      27.781  -0.523  54.205  1.00  0.00    -0.247 NA
HETATM   24  C21 UNL     1      26.639   0.084  54.204  1.00  0.00     0.112 A 
HETATM   25  C22 UNL     1      25.309   1.626  52.941  1.00  0.00     0.197 C 
HETATM   26  O2  UNL     1      24.473   1.903  51.836  1.00  0.00    -0.351 OA
HETATM   27  H7  UNL     1      18.381   3.379  51.508  1.00  0.00     0.318 HD
HETATM   28  H11 UNL     1      21.024   0.622  53.713  1.00  0.00     0.165 HD
ENDROOT
BRANCH  24  29
HETATM   29  N4  UNL     1      26.472   0.875  55.376  1.00  0.00    -0.386 N 
HETATM   30  H18 UNL     1      26.030   0.415  56.211  1.00  0.00     0.157 HD
HETATM   31  H19 UNL     1      26.422   1.579  56.143  1.00  0.00     0.157 HD
ENDBRANCH  24  29
BRANCH  14  32
HETATM   32  C13 UNL     1      23.645   5.587  51.699  1.00  0.00     0.418 C 
HETATM   33  F1  UNL     1      23.375   5.040  52.951  1.00  0.00    -0.166 F 
HETATM   34  F2  UNL     1      23.909   6.944  51.815  1.00  0.00    -0.166 F 
HETATM   35  F3  UNL     1      24.793   5.039  51.165  1.00  0.00    -0.166 F 
ENDBRANCH  14  32
TORSDOF 2
ENDMDL
MODEL 4
REMARK VINA RESULT:      -8.9      3.954      8.171
REMARK  2 active torsions:
REMARK  status: ('A' for Active; 'I' for Inactive)
REMARK    1  A    between atoms: C12_14  and  C13_15 
REMARK    2  A    between atoms: C21_28  and  N4_29 
ROOT
HETATM    1  C1  UNL     1      25.473   2.498  50.934  1.00  0.00     0.022 C 
HETATM    2  C2  UNL     1      24.159   2.934  50.236  1.00  0.00     0.074 C 
HETATM    3  C3  UNL     1      24.006   4.399  50.374  1.00  0.00     0.081 C 
HETATM    4  C4  UNL     1      23.517   5.344  51.232  1.00  0.00     0.060 C 
HETATM    5  C5  UNL     1      23.074   4.429  52.199  1.00  0.00     0.043 C 
HETATM    6  C6  UNL     1      21.742   4.226  51.932  1.00  0.00     0.283 A 
HETATM    7  N1  UNL     1      21.355   3.217  52.982  1.00  0.00     0.112 N 
HETATM    8  C7  UNL     1      21.472   1.953  52.192  1.00  0.00     0.233 A 
HETATM    9  O1  UNL     1      21.586   3.151  52.088  1.00  0.00     0.000 OA
HETATM   10  C8  UNL     1      21.597   0.602  51.353  1.00  0.00    -0.026 A 
HETATM   11  C9  UNL     1      22.346   0.520  52.554  1.00  0.00     0.087 A 
HETATM   12  C10 UNL     1      23.231   1.466  51.895  1.00  0.00    -0.006 A 
HETATM   13  C11 UNL     1      23.100   2.031  50.597  1.00  0.00    -0.036 A 
HETATM   14  C12 UNL     1      22.015   1.704  49.755  1.00  0.00     0.054 A 
HETATM   15  C14 UNL     1      20.992   0.802  50.128  1.00  0.00     0.023 A 
HETATM   16  N2  UNL     1      23.319   6.705  51.487  1.00  0.00    -0.364 N 
HETATM   17  C15 UNL     1      23.842   7.821  50.795  1.00  0.00     0.085 C 
HETATM   18  C16 UNL     1      24.587   8.011  49.722  1.00  0.00     0.010 C 
HETATM   19  C17 UNL     1      25.254   7.178  48.701  1.00  0.00     0.064 A 
HETATM   20  C18 UNL     1      26.675   6.848  49.085  1.00  0.00     0.052 A 
HETATM   21  C19 UNL     1      27.675   7.478  48.160  1.00  0.00    -0.006 A 
HETATM   22  C20 UNL     1      27.598   8.261  47.074  1.00  0.00     0.114 A 
HETATM   23  N3  UNL     1      26.234   8.570  46.717  1.00  0.00    -0.247 NA
HETATM   24  C21 UNL     1      25.317   8.059  47.473  1.00  0.00     0.112 A 
HETATM   25  C22 UNL     1      24.480   5.970  48.295  1.00  0.00     0.197 C 
HETATM   26  O2  UNL     1      24.591   4.864  49.167  1.00  0.00    -0.351 OA
HETATM   27  H7  UNL     1      21.041   3.023  54.006  1.00  0.00     0.318 HD
HETATM   28  H11 UNL     1      22.693   6.746  52.316  1.00  0.00     0.165 HD
ENDROOT
BRANCH  24  29
HETATM   29  N4  UNL     1      24.015   8.426  47.030  1.00  0.00    -0.386 N 
HETATM   30  H18 UNL     1      23.945   9.196  46.319  1.00  0.00     0.157 HD
HETATM   31  H19 UNL     1      23.006   8.572  46.812  1.00  0.00     0.157 HD
ENDBRANCH  24  29
BRANCH  14  32
HETATM   32  C13 UNL     1      21.912   2.310  48.406  1.00  0.00     0.418 C 
HETATM   33  F1  UNL     1      20.814   1.712  47.790  1.00  0.00    -0.166 F 
HETATM   34  F2  UNL     1      23.063   2.075  47.667  1.00  0.00    -0.166 F 
HETATM   35  F3  UNL     1      21.771   3.682  48.429  1.00  0.00    -0.166 F 
ENDBRANCH  14  32
TORSDOF 2
ENDMDL
MODEL 5
REMARK VINA RESULT:      -8.9     12.486     15.064
REMARK  2 active torsions:
REMARK  status: ('A' for Active; 'I' for Inactive)
REMARK    1  A    between atoms: C12_14  and  C13_15 
REMARK    2  A    between atoms: C21_28  and  N4_29 
ROOT
HETATM    1  C1  UNL     1      34.500   7.166  48.502  1.00  0.00     0.022 C 
HETATM    2  C2  UNL     1      33.633   6.910  47.242  1.00  0.00     0.074 C 
HETATM    3  C3  UNL     1      32.208   7.105  47.592  1.00  0.00     0.081 C 
HETATM    4  C4  UNL     1      31.135   6.433  48.104  1.00  0.00     0.060 C 
HETATM    5  C5  UNL     1      31.811   5.215  48.278  1.00  0.00     0.043 C 
HETATM    6  C6  UNL     1      31.527   4.473  47.158  1.00  0.00     0.283 A 
HETATM    7  N1  UNL     1      32.309   3.209  47.404  1.00  0.00     0.112 N 
HETATM    8  C7  UNL     1      33.545   3.503  46.617  1.00  0.00     0.233 A 
HETATM    9  O1  UNL     1      32.470   3.973  46.907  1.00  0.00     0.000 OA
HETATM   10  C8  UNL     1      34.865   3.814  45.779  1.00  0.00    -0.026 A 
HETATM   11  C9  UNL     1      35.189   3.439  47.107  1.00  0.00     0.087 A 
HETATM   12  C10 UNL     1      34.638   4.739  47.452  1.00  0.00    -0.006 A 
HETATM   13  C11 UNL     1      34.088   5.717  46.580  1.00  0.00    -0.036 A 
HETATM   14  C12 UNL     1      34.018   5.510  45.186  1.00  0.00     0.054 A 
HETATM   15  C14 UNL     1      34.485   4.332  44.556  1.00  0.00     0.023 A 
HETATM   16  N2  UNL     1      29.790   6.487  48.482  1.00  0.00    -0.364 N 
HETATM   17  C15 UNL     1      28.950   7.618  48.605  1.00  0.00     0.085 C 
HETATM   18  C16 UNL     1      29.061   8.914  48.382  1.00  0.00     0.010 C 
HETATM   19  C17 UNL     1      30.097   9.848  47.899  1.00  0.00     0.064 A 
HETATM   20  C18 UNL     1      30.908  10.424  49.032  1.00  0.00     0.052 A 
HETATM   21  C19 UNL     1      30.699  11.902  49.189  1.00  0.00    -0.006 A 
HETATM   22  C20 UNL     1      29.961  12.826  48.556  1.00  0.00     0.114 A 
HETATM   23  N3  UNL     1      29.189  12.263  47.473  1.00  0.00    -0.247 NA
HETATM   24  C21 UNL     1      29.321  10.990  47.281  1.00  0.00     0.112 A 
HETATM   25  C22 UNL     1      30.953   9.302  46.807  1.00  0.00     0.197 C 
HETATM   26  O2  UNL     1      32.009   8.464  47.234  1.00  0.00    -0.351 OA
HETATM   27  H7  UNL     1      32.357   2.230  47.877  1.00  0.00     0.318 HD
HETATM   28  H11 UNL     1      29.510   5.503  48.667  1.00  0.00     0.165 HD
ENDROOT
BRANCH  24  29
HETATM   29  N4  UNL     1      28.519  10.544  46.193  1.00  0.00    -0.386 N 
HETATM   30  H18 UNL     1      28.848  10.776  45.223  1.00  0.00     0.157 HD
HETATM   31  H19 UNL     1      27.830  10.151  45.517  1.00  0.00     0.157 HD
ENDBRANCH  24  29
BRANCH  14  32
HETATM   32  C13 UNL     1      33.442   6.554  44.306  1.00  0.00     0.418 C 
HETATM   33  F1  UNL     1      32.061   6.503  44.490  1.00  0.00    -0.166 F 
HETATM   34  F2  UNL     1      33.757   6.311  42.976  1.00  0.00    -0.166 F 
HETATM   35  F3  UNL     1      33.923   7.820  44.566  1.00  0.00    -0.166 F 
ENDBRANCH  14  32
TORSDOF 2
ENDMDL
MODEL 6
REMARK VINA RESULT:      -8.5      7.811     10.809
REMARK  2 active torsions:
REMARK  status: ('A' for Active; 'I' for Inactive)
REMARK    1  A    between atoms: C12_14  and  C13_15 
REMARK    2  A    between atoms: C21_28  and  N4_29 
ROOT
HETATM    1  C1  UNL     1      28.379   8.128  45.750  1.00  0.00     0.022 C 
HETATM    2  C2  UNL     1      29.023   7.437  46.979  1.00  0.00     0.074 C 
HETATM    3  C3  UNL     1      28.133   7.609  48.149  1.00  0.00     0.081 C 
HETATM    4  C4  UNL     1      27.858   8.488  49.158  1.00  0.00     0.060 C 
HETATM    5  C5  UNL     1      28.825   9.432  48.780  1.00  0.00     0.043 C 
HETATM    6  C6  UNL     1      29.929   9.156  49.550  1.00  0.00     0.283 A 
HETATM    7  N1  UNL     1      30.921  10.180  49.064  1.00  0.00     0.112 N 
HETATM    8  C7  UNL     1      31.687   9.361  48.077  1.00  0.00     0.233 A 
HETATM    9  O1  UNL     1      30.781   9.286  48.872  1.00  0.00     0.000 OA
HETATM   10  C8  UNL     1      32.507   8.490  47.021  1.00  0.00    -0.026 A 
HETATM   11  C9  UNL     1      32.041   9.691  46.429  1.00  0.00     0.087 A 
HETATM   12  C10 UNL     1      30.736   9.057  46.521  1.00  0.00    -0.006 A 
HETATM   13  C11 UNL     1      30.420   7.773  47.042  1.00  0.00    -0.036 A 
HETATM   14  C12 UNL     1      31.418   6.920  47.561  1.00  0.00     0.054 A 
HETATM   15  C14 UNL     1      32.788   7.269  47.600  1.00  0.00     0.023 A 
HETATM   16  N2  UNL     1      27.074   8.776  50.280  1.00  0.00    -0.364 N 
HETATM   17  C15 UNL     1      25.915   8.111  50.745  1.00  0.00     0.085 C 
HETATM   18  C16 UNL     1      25.223   7.046  50.389  1.00  0.00     0.010 C 
HETATM   19  C17 UNL     1      25.289   6.007  49.341  1.00  0.00     0.064 A 
HETATM   20  C18 UNL     1      24.488   6.387  48.121  1.00  0.00     0.052 A 
HETATM   21  C19 UNL     1      23.312   5.480  47.908  1.00  0.00    -0.006 A 
HETATM   22  C20 UNL     1      22.810   4.413  48.548  1.00  0.00     0.114 A 
HETATM   23  N3  UNL     1      23.585   4.060  49.713  1.00  0.00    -0.247 NA
HETATM   24  C21 UNL     1      24.616   4.801  49.958  1.00  0.00     0.112 A 
HETATM   25  C22 UNL     1      26.673   5.570  48.999  1.00  0.00     0.197 C 
HETATM   26  O2  UNL     1      27.366   6.416  48.104  1.00  0.00    -0.351 OA
HETATM   27  H7  UNL     1      31.302  11.199  49.123  1.00  0.00     0.318 HD
HETATM   28  H11 UNL     1      27.516   9.604  50.726  1.00  0.00     0.165 HD
ENDROOT
BRANCH  24  29
HETATM   29  N4  UNL     1      25.305   4.363  51.125  1.00  0.00    -0.386 N 
HETATM   30  H18 UNL     1      24.791   3.720  51.777  1.00  0.00     0.157 HD
HETATM   31  H19 UNL     1      25.940   4.137  51.920  1.00  0.00     0.157 HD
ENDBRANCH  24  29
BRANCH  14  32
HETATM   32  C13 UNL     1      31.053   5.586  48.094  1.00  0.00     0.418 C 
HETATM   33  F1  UNL     1      30.564   5.798  49.381  1.00  0.00    -0.166 F 
HETATM   34  F2  UNL     1      32.158   4.748  48.133  1.00  0.00    -0.166 F 
HETATM   35  F3  UNL     1      30.122   4.921  47.322  1.00  0.00    -0.166 F 
ENDBRANCH  14  32
TORSDOF 2
ENDMDL
MODEL 7
REMARK VINA RESULT:      -8.5      9.638     13.972
REMARK  2 active torsions:
REMARK  status: ('A' for Active; 'I' for Inactive)
REMARK    1  A    between atoms: C12_14  and  C13_15 
REMARK    2  A    between atoms: C21_28  and  N4_29 
ROOT
HETATM    1  C1  UNL     1      29.215   7.395  46.961  1.00  0.00     0.022 C 
HETATM    2  C2  UNL     1      27.951   8.287  47.051  1.00  0.00     0.074 C 
HETATM    3  C3  UNL     1      28.329   9.600  47.620  1.00  0.00     0.081 C 
HETATM    4  C4  UNL     1      28.500  10.233  48.818  1.00  0.00     0.060 C 
HETATM    5  C5  UNL     1      28.162   9.122  49.606  1.00  0.00     0.043 C 
HETATM    6  C6  UNL     1      26.831   9.275  49.907  1.00  0.00     0.283 A 
HETATM    7  N1  UNL     1      26.542   8.038  50.716  1.00  0.00     0.112 N 
HETATM    8  C7  UNL     1      25.966   7.156  49.657  1.00  0.00     0.233 A 
HETATM    9  O1  UNL     1      26.409   8.266  49.829  1.00  0.00     0.000 OA
HETATM   10  C8  UNL     1      25.351   6.211  48.528  1.00  0.00    -0.026 A 
HETATM   11  C9  UNL     1      26.408   5.558  49.211  1.00  0.00     0.087 A 
HETATM   12  C10 UNL     1      27.254   6.504  48.502  1.00  0.00    -0.006 A 
HETATM   13  C11 UNL     1      26.860   7.522  47.591  1.00  0.00    -0.036 A 
HETATM   14  C12 UNL     1      25.504   7.730  47.258  1.00  0.00     0.054 A 
HETATM   15  C14 UNL     1      24.449   6.953  47.792  1.00  0.00     0.023 A 
HETATM   16  N2  UNL     1      28.847  11.416  49.480  1.00  0.00    -0.364 N 
HETATM   17  C15 UNL     1      29.417  12.595  48.946  1.00  0.00     0.085 C 
HETATM   18  C16 UNL     1      29.754  13.029  47.746  1.00  0.00     0.010 C 
HETATM   19  C17 UNL     1      29.717  12.526  46.358  1.00  0.00     0.064 A 
HETATM   20  C18 UNL     1      30.999  11.828  45.979  1.00  0.00     0.052 A 
HETATM   21  C19 UNL     1      31.752  12.562  44.909  1.00  0.00    -0.006 A 
HETATM   22  C20 UNL     1      31.549  13.691  44.213  1.00  0.00     0.114 A 
HETATM   23  N3  UNL     1      30.319  14.350  44.585  1.00  0.00    -0.247 NA
HETATM   24  C21 UNL     1      29.618  13.771  45.505  1.00  0.00     0.112 A 
HETATM   25  C22 UNL     1      28.509  11.714  46.033  1.00  0.00     0.197 C 
HETATM   26  O2  UNL     1      28.565  10.363  46.446  1.00  0.00    -0.351 OA
HETATM   27  H7  UNL     1      26.565   7.540  51.684  1.00  0.00     0.318 HD
HETATM   28  H11 UNL     1      28.603  11.261  50.478  1.00  0.00     0.165 HD
ENDROOT
BRANCH  24  29
HETATM   29  N4  UNL     1      28.431  14.503  45.791  1.00  0.00    -0.386 N 
HETATM   30  H18 UNL     1      27.700  14.552  45.038  1.00  0.00     0.157 HD
HETATM   31  H19 UNL     1      27.634  15.068  46.153  1.00  0.00     0.157 HD
ENDBRANCH  24  29
BRANCH  14  32
HETATM   32  C13 UNL     1      25.129   8.798  46.301  1.00  0.00     0.418 C 
HETATM   33  F1  UNL     1      25.269  10.004  46.985  1.00  0.00    -0.166 F 
HETATM   34  F2  UNL     1      23.819   8.641  45.871  1.00  0.00    -0.166 F 
HETATM   35  F3  UNL     1      25.890   8.798  45.150  1.00  0.00    -0.166 F 
ENDBRANCH  14  32
TORSDOF 2
ENDMDL
MODEL 8
REMARK VINA RESULT:      -8.3      3.404      7.553
REMARK  2 active torsions:
REMARK  status: ('A' for Active; 'I' for Inactive)
REMARK    1  A    between atoms: C12_14  and  C13_15 
REMARK    2  A    between atoms: C21_28  and  N4_29 
ROOT
HETATM    1  C1  UNL     1      21.532   4.166  52.986  1.00  0.00     0.022 C 
HETATM    2  C2  UNL     1      22.595   3.256  52.317  1.00  0.00     0.074 C 
HETATM    3  C3  UNL     1      22.844   3.740  50.941  1.00  0.00     0.081 C 
HETATM    4  C4  UNL     1      22.367   3.619  49.666  1.00  0.00     0.060 C 
HETATM    5  C5  UNL     1      21.339   2.721  49.993  1.00  0.00     0.043 C 
HETATM    6  C6  UNL     1      21.849   1.470  49.740  1.00  0.00     0.283 A 
HETATM    7  N1  UNL     1      20.709   0.573  50.144  1.00  0.00     0.112 N 
HETATM    8  C7  UNL     1      21.132   0.215  51.532  1.00  0.00     0.233 A 
HETATM    9  O1  UNL     1      21.485   0.848  50.567  1.00  0.00     0.000 OA
HETATM   10  C8  UNL     1      21.579  -0.169  53.015  1.00  0.00    -0.026 A 
HETATM   11  C9  UNL     1      20.253   0.334  53.003  1.00  0.00     0.087 A 
HETATM   12  C10 UNL     1      20.896   1.609  52.725  1.00  0.00    -0.006 A 
HETATM   13  C11 UNL     1      22.284   1.878  52.584  1.00  0.00    -0.036 A 
HETATM   14  C12 UNL     1      23.252   0.858  52.711  1.00  0.00     0.054 A 
HETATM   15  C14 UNL     1      22.921  -0.490  52.988  1.00  0.00     0.023 A 
HETATM   16  N2  UNL     1      22.490   4.005  48.327  1.00  0.00    -0.364 N 
HETATM   17  C15 UNL     1      23.287   5.032  47.771  1.00  0.00     0.085 C 
HETATM   18  C16 UNL     1      24.174   5.898  48.224  1.00  0.00     0.010 C 
HETATM   19  C17 UNL     1      24.790   6.244  49.521  1.00  0.00     0.064 A 
HETATM   20  C18 UNL     1      24.025   7.330  50.235  1.00  0.00     0.052 A 
HETATM   21  C19 UNL     1      24.818   8.598  50.358  1.00  0.00    -0.006 A 
HETATM   22  C20 UNL     1      26.045   8.988  49.983  1.00  0.00     0.114 A 
HETATM   23  N3  UNL     1      26.768   7.941  49.300  1.00  0.00    -0.247 NA
HETATM   24  C21 UNL     1      26.143   6.817  49.158  1.00  0.00     0.112 A 
HETATM   25  C22 UNL     1      25.068   5.072  50.399  1.00  0.00     0.197 C 
HETATM   26  O2  UNL     1      23.959   4.596  51.135  1.00  0.00    -0.351 OA
HETATM   27  H7  UNL     1      19.768   0.096  49.876  1.00  0.00     0.318 HD
HETATM   28  H11 UNL     1      21.860   3.373  47.794  1.00  0.00     0.165 HD
ENDROOT
BRANCH  24  29
HETATM   29  N4  UNL     1      26.945   5.860  48.476  1.00  0.00    -0.386 N 
HETATM   30  H18 UNL     1      26.448   5.126  47.911  1.00  0.00     0.157 HD
HETATM   31  H19 UNL     1      27.666   5.243  48.043  1.00  0.00     0.157 HD
ENDBRANCH  24  29
BRANCH  14  32
HETATM   32  C13 UNL     1      24.692   1.175  52.562  1.00  0.00     0.418 C 
HETATM   33  F1  UNL     1      24.896   1.444  51.210  1.00  0.00    -0.166 F 
HETATM   34  F2  UNL     1      25.480   0.105  52.962  1.00  0.00    -0.166 F 
HETATM   35  F3  UNL     1      25.104   2.238  53.338  1.00  0.00    -0.166 F 
ENDBRANCH  14  32
TORSDOF 2
ENDMDL
MODEL 9
REMARK VINA RESULT:      -8.2     11.268     14.156
REMARK  2 active torsions:
REMARK  status: ('A' for Active; 'I' for Inactive)
REMARK    1  A    between atoms: C12_14  and  C13_15 
REMARK    2  A    between atoms: C21_28  and  N4_29 
ROOT
HETATM    1  C1  UNL     1      30.659   8.725  45.338  1.00  0.00     0.022 C 
HETATM    2  C2  UNL     1      29.630   8.666  46.496  1.00  0.00     0.074 C 
HETATM    3  C3  UNL     1      29.736   9.905  47.297  1.00  0.00     0.081 C 
HETATM    4  C4  UNL     1      30.436  10.443  48.340  1.00  0.00     0.060 C 
HETATM    5  C5  UNL     1      31.233   9.311  48.564  1.00  0.00     0.043 C 
HETATM    6  C6  UNL     1      30.606   8.611  49.566  1.00  0.00     0.283 A 
HETATM    7  N1  UNL     1      31.497   7.407  49.721  1.00  0.00     0.112 N 
HETATM    8  C7  UNL     1      30.757   6.418  48.880  1.00  0.00     0.233 A 
HETATM    9  O1  UNL     1      30.701   7.559  49.274  1.00  0.00     0.000 OA
HETATM   10  C8  UNL     1      29.970   5.361  47.982  1.00  0.00    -0.026 A 
HETATM   11  C9  UNL     1      31.330   5.441  47.590  1.00  0.00     0.087 A 
HETATM   12  C10 UNL     1      30.951   6.744  47.070  1.00  0.00    -0.006 A 
HETATM   13  C11 UNL     1      29.674   7.367  47.112  1.00  0.00    -0.036 A 
HETATM   14  C12 UNL     1      28.561   6.733  47.705  1.00  0.00     0.054 A 
HETATM   15  C14 UNL     1      28.628   5.448  48.294  1.00  0.00     0.023 A 
HETATM   16  N2  UNL     1      30.641  11.555  49.163  1.00  0.00    -0.364 N 
HETATM   17  C15 UNL     1      30.133  12.867  49.024  1.00  0.00     0.085 C 
HETATM   18  C16 UNL     1      29.309  13.485  48.198  1.00  0.00     0.010 C 
HETATM   19  C17 UNL     1      28.504  13.142  47.008  1.00  0.00     0.064 A 
HETATM   20  C18 UNL     1      29.261  13.383  45.727  1.00  0.00     0.052 A 
HETATM   21  C19 UNL     1      28.655  14.483  44.906  1.00  0.00    -0.006 A 
HETATM   22  C20 UNL     1      27.599  15.297  45.046  1.00  0.00     0.114 A 
HETATM   23  N3  UNL     1      26.882  15.058  46.276  1.00  0.00    -0.247 NA
HETATM   24  C21 UNL     1      27.351  14.121  47.035  1.00  0.00     0.112 A 
HETATM   25  C22 UNL     1      27.886  11.786  47.058  1.00  0.00     0.197 C 
HETATM   26  O2  UNL     1      28.743  10.722  46.695  1.00  0.00    -0.351 OA
HETATM   27  H7  UNL     1      32.392   6.969  50.160  1.00  0.00     0.318 HD
HETATM   28  H11 UNL     1      31.266  11.227  49.927  1.00  0.00     0.165 HD
ENDROOT
BRANCH  24  29
HETATM   29  N4  UNL     1      26.569  13.970  48.216  1.00  0.00    -0.386 N 
HETATM   30  H18 UNL     1      26.907  14.455  49.085  1.00  0.00     0.157 HD
HETATM   31  H19 UNL     1      25.894  13.763  48.982  1.00  0.00     0.157 HD
ENDBRANCH  24  29
BRANCH  14  32
HETATM   32  C13 UNL     1      27.243   7.411  47.728  1.00  0.00     0.418 C 
HETATM   33  F1  UNL     1      27.326   8.397  48.708  1.00  0.00    -0.166 F 
HETATM   34  F2  UNL     1      26.230   6.514  48.034  1.00  0.00    -0.166 F 
HETATM   35  F3  UNL     1      26.886   7.959  46.513  1.00  0.00    -0.166 F 
ENDBRANCH  14  32
TORSDOF 2
ENDMDL
