MODEL 1
REMARK VINA RESULT:      -6.5      0.000      0.000
REMARK  9 active torsions:
REMARK  status: ('A' for Active; 'I' for Inactive)
REMARK    1  A    between atoms: C2_2  and  C3_3 
REMARK    2  A    between atoms: N1_7  and  C7_8 
REMARK    3  A    between atoms: C7_8  and  N3_12 
REMARK    4  A    between atoms: C8_9  and  C9_10 
REMARK    5  A    between atoms: C9_10  and  N2_11 
REMARK    6  A    between atoms: N3_12  and  C10_13 
REMARK    7  A    between atoms: C10_13  and  C11_14 
REMARK    8  A    between atoms: C11_14  and  N4_15 
REMARK    9  A    between atoms: N4_15  and  C12_16 
ROOT
HETATM    1  C7  UNL     1      22.595   3.547  51.090  1.00  0.00     0.136 C 
HETATM    2  C8  UNL     1      22.566   4.106  52.287  1.00  0.00     0.069 C 
ENDROOT
BRANCH   1   3
HETATM    3  N1  UNL     1      21.648   2.494  50.882  1.00  0.00    -0.361 N 
HETATM    4  C6  UNL     1      20.200   2.609  50.948  1.00  0.00     0.151 C 
HETATM    5  C5  UNL     1      19.656   1.711  52.015  1.00  0.00    -0.011 C 
HETATM    6  C4  UNL     1      20.370   0.616  52.291  1.00  0.00    -0.023 C 
HETATM    7  C3  UNL     1      21.631   0.167  51.686  1.00  0.00     0.025 C 
HETATM    8  C18 UNL     1      21.996   1.117  50.563  1.00  0.00     0.133 C 
BRANCH   7   9
HETATM    9  C2  UNL     1      22.803   0.201  52.667  1.00  0.00     0.005 C 
HETATM   10  C1  UNL     1      22.415  -0.188  54.058  1.00  0.00     0.006 C 
ENDBRANCH   7   9
ENDBRANCH   1   3
BRANCH   1  11
HETATM   11  N3  UNL     1      23.532   4.015  50.127  1.00  0.00    -0.187 NA
BRANCH  11  12
HETATM   12  C10 UNL     1      24.740   3.599  50.263  1.00  0.00     0.003 C 
BRANCH  12  13
HETATM   13  C11 UNL     1      26.029   3.310  50.162  1.00  0.00     0.166 C 
BRANCH  13  14
HETATM   14  N4  UNL     1      26.582   3.102  51.454  1.00  0.00    -0.359 N 
HETATM   15  H15 UNL     1      27.138   3.950  51.705  1.00  0.00     0.165 HD
BRANCH  14  16
HETATM   16  C12 UNL     1      26.442   1.966  52.299  1.00  0.00     0.033 C 
HETATM   17  C13 UNL     1      26.667   0.839  51.664  1.00  0.00     0.027 C 
HETATM   18  C14 UNL     1      26.594  -0.484  52.288  1.00  0.00     0.000 C 
HETATM   19  C15 UNL     1      26.356  -0.802  53.571  1.00  0.00    -0.001 C 
HETATM   20  C16 UNL     1      26.105   0.178  54.680  1.00  0.00     0.195 C 
HETATM   21  O1  UNL     1      26.771   1.377  54.494  1.00  0.00    -0.382 OA
HETATM   22  C17 UNL     1      26.075   2.286  53.703  1.00  0.00     0.224 C 
ENDBRANCH  14  16
ENDBRANCH  13  14
ENDBRANCH  12  13
ENDBRANCH  11  12
ENDBRANCH   1  11
BRANCH   2  23
HETATM   23  C9  UNL     1      23.464   5.175  52.628  1.00  0.00     0.111 C 
BRANCH  23  24
HETATM   24  N2  UNL     1      24.194   6.232  52.610  1.00  0.00    -0.312 NA
HETATM   25  H13 UNL     1      24.145   6.902  53.421  1.00  0.00     0.186 HD
ENDBRANCH  23  24
ENDBRANCH   2  23
TORSDOF 9
ENDMDL
MODEL 2
REMARK VINA RESULT:      -6.5      2.169      4.030
REMARK  9 active torsions:
REMARK  status: ('A' for Active; 'I' for Inactive)
REMARK    1  A    between atoms: C2_2  and  C3_3 
REMARK    2  A    between atoms: N1_7  and  C7_8 
REMARK    3  A    between atoms: C7_8  and  N3_12 
REMARK    4  A    between atoms: C8_9  and  C9_10 
REMARK    5  A    between atoms: C9_10  and  N2_11 
REMARK    6  A    between atoms: N3_12  and  C10_13 
REMARK    7  A    between atoms: C10_13  and  C11_14 
REMARK    8  A    between atoms: C11_14  and  N4_15 
REMARK    9  A    between atoms: N4_15  and  C12_16 
ROOT
HETATM    1  C7  UNL     1      24.080   2.782  50.987  1.00  0.00     0.136 C 
HETATM    2  C8  UNL     1      25.229   2.847  50.338  1.00  0.00     0.069 C 
ENDROOT
BRANCH   1   3
HETATM    3  N1  UNL     1      22.908   2.846  50.166  1.00  0.00    -0.361 N 
HETATM    4  C6  UNL     1      22.284   1.735  49.465  1.00  0.00     0.151 C 
HETATM    5  C5  UNL     1      22.274   1.992  47.990  1.00  0.00    -0.011 C 
HETATM    6  C4  UNL     1      22.252   3.272  47.610  1.00  0.00    -0.023 C 
HETATM    7  C3  UNL     1      22.238   4.477  48.449  1.00  0.00     0.025 C 
HETATM    8  C18 UNL     1      22.145   4.057  49.902  1.00  0.00     0.133 C 
BRANCH   7   9
HETATM    9  C2  UNL     1      23.520   5.300  48.326  1.00  0.00     0.005 C 
HETATM   10  C1  UNL     1      23.679   6.304  49.422  1.00  0.00     0.006 C 
ENDBRANCH   7   9
ENDBRANCH   1   3
BRANCH   1  11
HETATM   11  N3  UNL     1      24.087   2.659  52.404  1.00  0.00    -0.187 NA
BRANCH  11  12
HETATM   12  C10 UNL     1      24.011   1.464  52.870  1.00  0.00     0.003 C 
BRANCH  12  13
HETATM   13  C11 UNL     1      23.699   0.327  53.473  1.00  0.00     0.166 C 
BRANCH  13  14
HETATM   14  N4  UNL     1      24.734  -0.626  53.281  1.00  0.00    -0.359 N 
HETATM   15  H15 UNL     1      24.320  -1.459  52.809  1.00  0.00     0.165 HD
BRANCH  14  16
HETATM   16  C12 UNL     1      26.106  -0.520  53.644  1.00  0.00     0.033 C 
HETATM   17  C13 UNL     1      26.893  -1.175  52.823  1.00  0.00     0.027 C 
HETATM   18  C14 UNL     1      28.351  -1.237  52.956  1.00  0.00     0.000 C 
HETATM   19  C15 UNL     1      29.145  -0.627  53.851  1.00  0.00    -0.001 C 
HETATM   20  C16 UNL     1      28.681   0.285  54.949  1.00  0.00     0.195 C 
HETATM   21  O1  UNL     1      27.540   0.992  54.610  1.00  0.00    -0.382 OA
HETATM   22  C17 UNL     1      26.359   0.299  54.859  1.00  0.00     0.224 C 
ENDBRANCH  14  16
ENDBRANCH  13  14
ENDBRANCH  12  13
ENDBRANCH  11  12
ENDBRANCH   1  11
BRANCH   2  23
HETATM   23  C9  UNL     1      26.481   2.794  51.043  1.00  0.00     0.111 C 
BRANCH  23  24
HETATM   24  N2  UNL     1      27.391   2.698  51.945  1.00  0.00    -0.312 NA
HETATM   25  H13 UNL     1      28.234   3.328  51.891  1.00  0.00     0.186 HD
ENDBRANCH  23  24
ENDBRANCH   2  23
TORSDOF 9
ENDMDL
MODEL 3
REMARK VINA RESULT:      -6.4      1.956      3.165
REMARK  9 active torsions:
REMARK  status: ('A' for Active; 'I' for Inactive)
REMARK    1  A    between atoms: C2_2  and  C3_3 
REMARK    2  A    between atoms: N1_7  and  C7_8 
REMARK    3  A    between atoms: C7_8  and  N3_12 
REMARK    4  A    between atoms: C8_9  and  C9_10 
REMARK    5  A    between atoms: C9_10  and  N2_11 
REMARK    6  A    between atoms: N3_12  and  C10_13 
REMARK    7  A    between atoms: C10_13  and  C11_14 
REMARK    8  A    between atoms: C11_14  and  N4_15 
REMARK    9  A    between atoms: N4_15  and  C12_16 
ROOT
HETATM    1  C7  UNL     1      24.821   4.118  50.164  1.00  0.00     0.136 C 
HETATM    2  C8  UNL     1      25.376   4.973  49.322  1.00  0.00     0.069 C 
ENDROOT
BRANCH   1   3
HETATM    3  N1  UNL     1      23.410   4.271  50.352  1.00  0.00    -0.361 N 
HETATM    4  C6  UNL     1      22.755   5.216  51.243  1.00  0.00     0.151 C 
HETATM    5  C5  UNL     1      21.934   4.487  52.259  1.00  0.00    -0.011 C 
HETATM    6  C4  UNL     1      21.459   3.292  51.894  1.00  0.00    -0.023 C 
HETATM    7  C3  UNL     1      21.634   2.587  50.618  1.00  0.00     0.025 C 
HETATM    8  C18 UNL     1      22.393   3.489  49.665  1.00  0.00     0.133 C 
BRANCH   7   9
HETATM    9  C2  UNL     1      22.471   1.315  50.754  1.00  0.00     0.005 C 
HETATM   10  C1  UNL     1      22.270   0.619  52.062  1.00  0.00     0.006 C 
ENDBRANCH   7   9
ENDBRANCH   1   3
BRANCH   1  11
HETATM   11  N3  UNL     1      25.637   3.141  50.800  1.00  0.00    -0.187 NA
BRANCH  11  12
HETATM   12  C10 UNL     1      25.413   2.943  52.050  1.00  0.00     0.003 C 
BRANCH  12  13
HETATM   13  C11 UNL     1      25.303   2.489  53.289  1.00  0.00     0.166 C 
BRANCH  13  14
HETATM   14  N4  UNL     1      26.592   2.258  53.837  1.00  0.00    -0.359 N 
HETATM   15  H15 UNL     1      26.844   3.083  54.425  1.00  0.00     0.165 HD
BRANCH  14  16
HETATM   16  C12 UNL     1      27.436   1.126  53.654  1.00  0.00     0.033 C 
HETATM   17  C13 UNL     1      28.697   1.397  53.902  1.00  0.00     0.027 C 
HETATM   18  C14 UNL     1      29.784   0.421  53.794  1.00  0.00     0.000 C 
HETATM   19  C15 UNL     1      29.719  -0.888  53.499  1.00  0.00    -0.001 C 
HETATM   20  C16 UNL     1      28.462  -1.653  53.206  1.00  0.00     0.195 C 
HETATM   21  O1  UNL     1      27.362  -1.157  53.885  1.00  0.00    -0.382 OA
HETATM   22  C17 UNL     1      26.727  -0.108  53.228  1.00  0.00     0.224 C 
ENDBRANCH  14  16
ENDBRANCH  13  14
ENDBRANCH  12  13
ENDBRANCH  11  12
ENDBRANCH   1  11
BRANCH   2  23
HETATM   23  C9  UNL     1      26.785   4.929  49.043  1.00  0.00     0.111 C 
BRANCH  23  24
HETATM   24  N2  UNL     1      28.063   4.839  49.135  1.00  0.00    -0.312 NA
HETATM   25  H13 UNL     1      28.563   5.386  49.884  1.00  0.00     0.186 HD
ENDBRANCH  23  24
ENDBRANCH   2  23
TORSDOF 9
ENDMDL
MODEL 4
REMARK VINA RESULT:      -6.4      1.877      2.809
REMARK  9 active torsions:
REMARK  status: ('A' for Active; 'I' for Inactive)
REMARK    1  A    between atoms: C2_2  and  C3_3 
REMARK    2  A    between atoms: N1_7  and  C7_8 
REMARK    3  A    between atoms: C7_8  and  N3_12 
REMARK    4  A    between atoms: C8_9  and  C9_10 
REMARK    5  A    between atoms: C9_10  and  N2_11 
REMARK    6  A    between atoms: N3_12  and  C10_13 
REMARK    7  A    between atoms: C10_13  and  C11_14 
REMARK    8  A    between atoms: C11_14  and  N4_15 
REMARK    9  A    between atoms: N4_15  and  C12_16 
ROOT
HETATM    1  C7  UNL     1      23.895   5.436  50.657  1.00  0.00     0.136 C 
HETATM    2  C8  UNL     1      23.698   6.686  51.040  1.00  0.00     0.069 C 
ENDROOT
BRANCH   1   3
HETATM    3  N1  UNL     1      23.106   4.455  51.337  1.00  0.00    -0.361 N 
HETATM    4  C6  UNL     1      23.340   3.933  52.674  1.00  0.00     0.151 C 
HETATM    5  C5  UNL     1      23.565   2.454  52.621  1.00  0.00    -0.011 C 
HETATM    6  C4  UNL     1      22.980   1.799  51.614  1.00  0.00    -0.023 C 
HETATM    7  C3  UNL     1      22.139   2.337  50.538  1.00  0.00     0.025 C 
HETATM    8  C18 UNL     1      21.920   3.816  50.784  1.00  0.00     0.133 C 
BRANCH   7   9
HETATM    9  C2  UNL     1      22.797   2.229  49.162  1.00  0.00     0.005 C 
HETATM   10  C1  UNL     1      21.900   1.624  48.129  1.00  0.00     0.006 C 
ENDBRANCH   7   9
ENDBRANCH   1   3
BRANCH   1  11
HETATM   11  N3  UNL     1      24.844   5.165  49.632  1.00  0.00    -0.187 NA
BRANCH  11  12
HETATM   12  C10 UNL     1      25.740   4.286  49.908  1.00  0.00     0.003 C 
BRANCH  12  13
HETATM   13  C11 UNL     1      26.468   3.197  50.106  1.00  0.00     0.166 C 
BRANCH  13  14
HETATM   14  N4  UNL     1      26.875   3.126  51.464  1.00  0.00    -0.359 N 
HETATM   15  H15 UNL     1      26.872   4.095  51.852  1.00  0.00     0.165 HD
BRANCH  14  16
HETATM   16  C12 UNL     1      27.236   1.972  52.215  1.00  0.00     0.033 C 
HETATM   17  C13 UNL     1      26.657   0.882  51.766  1.00  0.00     0.027 C 
HETATM   18  C14 UNL     1      26.849  -0.449  52.348  1.00  0.00     0.000 C 
HETATM   19  C15 UNL     1      27.651  -0.823  53.358  1.00  0.00    -0.001 C 
HETATM   20  C16 UNL     1      28.558   0.087  54.133  1.00  0.00     0.195 C 
HETATM   21  O1  UNL     1      29.036   1.140  53.373  1.00  0.00    -0.382 OA
HETATM   22  C17 UNL     1      28.179   2.235  53.333  1.00  0.00     0.224 C 
ENDBRANCH  14  16
ENDBRANCH  13  14
ENDBRANCH  12  13
ENDBRANCH  11  12
ENDBRANCH   1  11
BRANCH   2  23
HETATM   23  C9  UNL     1      24.427   7.768  50.438  1.00  0.00     0.111 C 
BRANCH  23  24
HETATM   24  N2  UNL     1      25.139   8.498  49.656  1.00  0.00    -0.312 NA
HETATM   25  H13 UNL     1      24.841   8.617  48.653  1.00  0.00     0.186 HD
ENDBRANCH  23  24
ENDBRANCH   2  23
TORSDOF 9
ENDMDL
MODEL 5
REMARK VINA RESULT:      -6.4      2.026      3.074
REMARK  9 active torsions:
REMARK  status: ('A' for Active; 'I' for Inactive)
REMARK    1  A    between atoms: C2_2  and  C3_3 
REMARK    2  A    between atoms: N1_7  and  C7_8 
REMARK    3  A    between atoms: C7_8  and  N3_12 
REMARK    4  A    between atoms: C8_9  and  C9_10 
REMARK    5  A    between atoms: C9_10  and  N2_11 
REMARK    6  A    between atoms: N3_12  and  C10_13 
REMARK    7  A    between atoms: C10_13  and  C11_14 
REMARK    8  A    between atoms: C11_14  and  N4_15 
REMARK    9  A    between atoms: N4_15  and  C12_16 
ROOT
HETATM    1  C7  UNL     1      22.314   1.528  51.768  1.00  0.00     0.136 C 
HETATM    2  C8  UNL     1      22.254   1.409  50.453  1.00  0.00     0.069 C 
ENDROOT
BRANCH   1   3
HETATM    3  N1  UNL     1      21.634   0.508  52.508  1.00  0.00    -0.361 N 
HETATM    4  C6  UNL     1      20.371   0.650  53.215  1.00  0.00     0.151 C 
HETATM    5  C5  UNL     1      20.559   0.367  54.673  1.00  0.00    -0.011 C 
HETATM    6  C4  UNL     1      21.549  -0.471  54.994  1.00  0.00    -0.023 C 
HETATM    7  C3  UNL     1      22.490  -1.161  54.103  1.00  0.00     0.025 C 
HETATM    8  C18 UNL     1      22.111  -0.858  52.667  1.00  0.00     0.133 C 
BRANCH   7   9
HETATM    9  C2  UNL     1      23.930  -0.675  54.272  1.00  0.00     0.005 C 
HETATM   10  C1  UNL     1      24.595  -1.226  55.492  1.00  0.00     0.006 C 
ENDBRANCH   7   9
ENDBRANCH   1   3
BRANCH   1  11
HETATM   11  N3  UNL     1      23.025   2.622  52.336  1.00  0.00    -0.187 NA
BRANCH  11  12
HETATM   12  C10 UNL     1      24.224   2.377  52.727  1.00  0.00     0.003 C 
BRANCH  12  13
HETATM   13  C11 UNL     1      25.531   2.314  52.933  1.00  0.00     0.166 C 
BRANCH  13  14
HETATM   14  N4  UNL     1      26.074   1.186  52.264  1.00  0.00    -0.359 N 
HETATM   15  H15 UNL     1      25.503   1.015  51.406  1.00  0.00     0.165 HD
BRANCH  14  16
HETATM   16  C12 UNL     1      27.191   0.391  52.644  1.00  0.00     0.033 C 
HETATM   17  C13 UNL     1      28.146   1.102  53.199  1.00  0.00     0.027 C 
HETATM   18  C14 UNL     1      29.409   0.544  53.687  1.00  0.00     0.000 C 
HETATM   19  C15 UNL     1      29.809  -0.738  53.723  1.00  0.00    -0.001 C 
HETATM   20  C16 UNL     1      29.006  -1.915  53.252  1.00  0.00     0.195 C 
HETATM   21  O1  UNL     1      27.643  -1.728  53.404  1.00  0.00    -0.382 OA
HETATM   22  C17 UNL     1      27.048  -1.057  52.341  1.00  0.00     0.224 C 
ENDBRANCH  14  16
ENDBRANCH  13  14
ENDBRANCH  12  13
ENDBRANCH  11  12
ENDBRANCH   1  11
BRANCH   2  23
HETATM   23  C9  UNL     1      22.894   2.366  49.594  1.00  0.00     0.111 C 
BRANCH  23  24
HETATM   24  N2  UNL     1      23.453   3.417  49.110  1.00  0.00    -0.312 NA
HETATM   25  H13 UNL     1      23.015   3.894  48.279  1.00  0.00     0.186 HD
ENDBRANCH  23  24
ENDBRANCH   2  23
TORSDOF 9
ENDMDL
MODEL 6
REMARK VINA RESULT:      -6.3      1.711      2.372
REMARK  9 active torsions:
REMARK  status: ('A' for Active; 'I' for Inactive)
REMARK    1  A    between atoms: C2_2  and  C3_3 
REMARK    2  A    between atoms: N1_7  and  C7_8 
REMARK    3  A    between atoms: C7_8  and  N3_12 
REMARK    4  A    between atoms: C8_9  and  C9_10 
REMARK    5  A    between atoms: C9_10  and  N2_11 
REMARK    6  A    between atoms: N3_12  and  C10_13 
REMARK    7  A    between atoms: C10_13  and  C11_14 
REMARK    8  A    between atoms: C11_14  and  N4_15 
REMARK    9  A    between atoms: N4_15  and  C12_16 
ROOT
HETATM    1  C7  UNL     1      23.334   3.165  51.048  1.00  0.00     0.136 C 
HETATM    2  C8  UNL     1      24.062   3.120  49.946  1.00  0.00     0.069 C 
ENDROOT
BRANCH   1   3
HETATM    3  N1  UNL     1      22.093   2.454  50.992  1.00  0.00    -0.361 N 
HETATM    4  C6  UNL     1      20.767   3.011  51.208  1.00  0.00     0.151 C 
HETATM    5  C5  UNL     1      20.103   2.338  52.368  1.00  0.00    -0.011 C 
HETATM    6  C4  UNL     1      20.476   1.080  52.618  1.00  0.00    -0.023 C 
HETATM    7  C3  UNL     1      21.460   0.256  51.904  1.00  0.00     0.025 C 
HETATM    8  C18 UNL     1      21.964   1.033  50.704  1.00  0.00     0.133 C 
BRANCH   7   9
HETATM    9  C2  UNL     1      22.692  -0.062  52.751  1.00  0.00     0.005 C 
HETATM   10  C1  UNL     1      22.365  -0.813  54.002  1.00  0.00     0.006 C 
ENDBRANCH   7   9
ENDBRANCH   1   3
BRANCH   1  11
HETATM   11  N3  UNL     1      23.818   3.892  52.172  1.00  0.00    -0.187 NA
BRANCH  11  12
HETATM   12  C10 UNL     1      24.582   3.246  52.978  1.00  0.00     0.003 C 
BRANCH  12  13
HETATM   13  C11 UNL     1      25.168   2.384  53.794  1.00  0.00     0.166 C 
BRANCH  13  14
HETATM   14  N4  UNL     1      26.560   2.324  53.519  1.00  0.00    -0.359 N 
HETATM   15  H15 UNL     1      26.905   3.300  53.388  1.00  0.00     0.165 HD
BRANCH  14  16
HETATM   16  C12 UNL     1      27.389   1.170  53.424  1.00  0.00     0.033 C 
HETATM   17  C13 UNL     1      28.644   1.432  53.707  1.00  0.00     0.027 C 
HETATM   18  C14 UNL     1      29.715   0.433  53.690  1.00  0.00     0.000 C 
HETATM   19  C15 UNL     1      29.637  -0.888  53.457  1.00  0.00    -0.001 C 
HETATM   20  C16 UNL     1      28.378  -1.645  53.152  1.00  0.00     0.195 C 
HETATM   21  O1  UNL     1      27.263  -1.097  53.763  1.00  0.00    -0.382 OA
HETATM   22  C17 UNL     1      26.673  -0.071  53.032  1.00  0.00     0.224 C 
ENDBRANCH  14  16
ENDBRANCH  13  14
ENDBRANCH  12  13
ENDBRANCH  11  12
ENDBRANCH   1  11
BRANCH   2  23
HETATM   23  C9  UNL     1      25.330   3.792  49.869  1.00  0.00     0.111 C 
BRANCH  23  24
HETATM   24  N2  UNL     1      26.434   4.388  50.144  1.00  0.00    -0.312 NA
HETATM   25  H13 UNL     1      27.336   3.846  50.092  1.00  0.00     0.186 HD
ENDBRANCH  23  24
ENDBRANCH   2  23
TORSDOF 9
ENDMDL
MODEL 7
REMARK VINA RESULT:      -6.2      1.915      3.494
REMARK  9 active torsions:
REMARK  status: ('A' for Active; 'I' for Inactive)
REMARK    1  A    between atoms: C2_2  and  C3_3 
REMARK    2  A    between atoms: N1_7  and  C7_8 
REMARK    3  A    between atoms: C7_8  and  N3_12 
REMARK    4  A    between atoms: C8_9  and  C9_10 
REMARK    5  A    between atoms: C9_10  and  N2_11 
REMARK    6  A    between atoms: N3_12  and  C10_13 
REMARK    7  A    between atoms: C10_13  and  C11_14 
REMARK    8  A    between atoms: C11_14  and  N4_15 
REMARK    9  A    between atoms: N4_15  and  C12_16 
ROOT
HETATM    1  C7  UNL     1      22.094   1.259  51.431  1.00  0.00     0.136 C 
HETATM    2  C8  UNL     1      21.417   0.635  50.483  1.00  0.00     0.069 C 
ENDROOT
BRANCH   1   3
HETATM    3  N1  UNL     1      21.950   0.714  52.747  1.00  0.00    -0.361 N 
HETATM    4  C6  UNL     1      22.876  -0.185  53.416  1.00  0.00     0.151 C 
HETATM    5  C5  UNL     1      22.198  -1.477  53.748  1.00  0.00    -0.011 C 
HETATM    6  C4  UNL     1      20.877  -1.422  53.944  1.00  0.00    -0.023 C 
HETATM    7  C3  UNL     1      19.989  -0.255  53.877  1.00  0.00     0.025 C 
HETATM    8  C18 UNL     1      20.830   0.983  53.637  1.00  0.00     0.133 C 
BRANCH   7   9
HETATM    9  C2  UNL     1      19.001  -0.328  52.712  1.00  0.00     0.005 C 
HETATM   10  C1  UNL     1      17.815  -1.191  53.004  1.00  0.00     0.006 C 
ENDBRANCH   7   9
ENDBRANCH   1   3
BRANCH   1  11
HETATM   11  N3  UNL     1      22.891   2.387  51.089  1.00  0.00    -0.187 NA
BRANCH  11  12
HETATM   12  C10 UNL     1      23.710   2.796  51.990  1.00  0.00     0.003 C 
BRANCH  12  13
HETATM   13  C11 UNL     1      24.744   3.068  52.772  1.00  0.00     0.166 C 
BRANCH  13  14
HETATM   14  N4  UNL     1      25.950   2.659  52.143  1.00  0.00    -0.359 N 
HETATM   15  H15 UNL     1      26.036   3.180  51.243  1.00  0.00     0.165 HD
BRANCH  14  16
HETATM   16  C12 UNL     1      26.907   1.714  52.608  1.00  0.00     0.033 C 
HETATM   17  C13 UNL     1      27.807   2.259  53.394  1.00  0.00     0.027 C 
HETATM   18  C14 UNL     1      28.909   1.521  54.016  1.00  0.00     0.000 C 
HETATM   19  C15 UNL     1      29.181   0.207  53.967  1.00  0.00    -0.001 C 
HETATM   20  C16 UNL     1      28.374  -0.823  53.232  1.00  0.00     0.195 C 
HETATM   21  O1  UNL     1      27.027  -0.507  53.177  1.00  0.00    -0.382 OA
HETATM   22  C17 UNL     1      26.693   0.328  52.116  1.00  0.00     0.224 C 
ENDBRANCH  14  16
ENDBRANCH  13  14
ENDBRANCH  12  13
ENDBRANCH  11  12
ENDBRANCH   1  11
BRANCH   2  23
HETATM   23  C9  UNL     1      21.474   1.079  49.117  1.00  0.00     0.111 C 
BRANCH  23  24
HETATM   24  N2  UNL     1      21.765   1.691  48.025  1.00  0.00    -0.312 NA
HETATM   25  H13 UNL     1      21.252   2.579  47.783  1.00  0.00     0.186 HD
ENDBRANCH  23  24
ENDBRANCH   2  23
TORSDOF 9
ENDMDL
MODEL 8
REMARK VINA RESULT:      -6.2      1.930      3.931
REMARK  9 active torsions:
REMARK  status: ('A' for Active; 'I' for Inactive)
REMARK    1  A    between atoms: C2_2  and  C3_3 
REMARK    2  A    between atoms: N1_7  and  C7_8 
REMARK    3  A    between atoms: C7_8  and  N3_12 
REMARK    4  A    between atoms: C8_9  and  C9_10 
REMARK    5  A    between atoms: C9_10  and  N2_11 
REMARK    6  A    between atoms: N3_12  and  C10_13 
REMARK    7  A    between atoms: C10_13  and  C11_14 
REMARK    8  A    between atoms: C11_14  and  N4_15 
REMARK    9  A    between atoms: N4_15  and  C12_16 
ROOT
HETATM    1  C7  UNL     1      25.668   4.360  49.777  1.00  0.00     0.136 C 
HETATM    2  C8  UNL     1      26.236   5.372  49.143  1.00  0.00     0.069 C 
ENDROOT
BRANCH   1   3
HETATM    3  N1  UNL     1      24.358   4.618  50.293  1.00  0.00    -0.361 N 
HETATM    4  C6  UNL     1      24.028   5.030  51.648  1.00  0.00     0.151 C 
HETATM    5  C5  UNL     1      23.140   4.016  52.297  1.00  0.00    -0.011 C 
HETATM    6  C4  UNL     1      22.359   3.301  51.483  1.00  0.00    -0.023 C 
HETATM    7  C3  UNL     1      22.252   3.372  50.020  1.00  0.00     0.025 C 
HETATM    8  C18 UNL     1      23.127   4.505  49.523  1.00  0.00     0.133 C 
BRANCH   7   9
HETATM    9  C2  UNL     1      22.761   2.109  49.326  1.00  0.00     0.005 C 
HETATM   10  C1  UNL     1      22.406   2.054  47.874  1.00  0.00     0.006 C 
ENDBRANCH   7   9
ENDBRANCH   1   3
BRANCH   1  11
HETATM   11  N3  UNL     1      26.375   3.131  49.897  1.00  0.00    -0.187 NA
BRANCH  11  12
HETATM   12  C10 UNL     1      26.315   2.553  51.043  1.00  0.00     0.003 C 
BRANCH  12  13
HETATM   13  C11 UNL     1      26.471   2.125  52.287  1.00  0.00     0.166 C 
BRANCH  13  14
HETATM   14  N4  UNL     1      26.066   0.768  52.388  1.00  0.00    -0.359 N 
HETATM   15  H15 UNL     1      26.568   0.227  51.650  1.00  0.00     0.165 HD
BRANCH  14  16
HETATM   16  C12 UNL     1      25.147   0.191  53.308  1.00  0.00     0.033 C 
HETATM   17  C13 UNL     1      23.926   0.137  52.828  1.00  0.00     0.027 C 
HETATM   18  C14 UNL     1      22.779  -0.410  53.558  1.00  0.00     0.000 C 
HETATM   19  C15 UNL     1      22.746  -0.989  54.770  1.00  0.00    -0.001 C 
HETATM   20  C16 UNL     1      23.931  -1.206  55.664  1.00  0.00     0.195 C 
HETATM   21  O1  UNL     1      25.105  -1.406  54.958  1.00  0.00    -0.382 OA
HETATM   22  C17 UNL     1      25.750  -0.226  54.601  1.00  0.00     0.224 C 
ENDBRANCH  14  16
ENDBRANCH  13  14
ENDBRANCH  12  13
ENDBRANCH  11  12
ENDBRANCH   1  11
BRANCH   2  23
HETATM   23  C9  UNL     1      27.551   5.247  48.577  1.00  0.00     0.111 C 
BRANCH  23  24
HETATM   24  N2  UNL     1      28.809   5.057  48.398  1.00  0.00    -0.312 NA
HETATM   25  H13 UNL     1      29.279   5.495  47.563  1.00  0.00     0.186 HD
ENDBRANCH  23  24
ENDBRANCH   2  23
TORSDOF 9
ENDMDL
MODEL 9
REMARK VINA RESULT:      -6.0      2.384      4.853
REMARK  9 active torsions:
REMARK  status: ('A' for Active; 'I' for Inactive)
REMARK    1  A    between atoms: C2_2  and  C3_3 
REMARK    2  A    between atoms: N1_7  and  C7_8 
REMARK    3  A    between atoms: C7_8  and  N3_12 
REMARK    4  A    between atoms: C8_9  and  C9_10 
REMARK    5  A    between atoms: C9_10  and  N2_11 
REMARK    6  A    between atoms: N3_12  and  C10_13 
REMARK    7  A    between atoms: C10_13  and  C11_14 
REMARK    8  A    between atoms: C11_14  and  N4_15 
REMARK    9  A    between atoms: N4_15  and  C12_16 
ROOT
HETATM    1  C7  UNL     1      25.945   4.403  49.573  1.00  0.00     0.136 C 
HETATM    2  C8  UNL     1      26.473   5.428  48.928  1.00  0.00     0.069 C 
ENDROOT
BRANCH   1   3
HETATM    3  N1  UNL     1      24.546   4.514  49.860  1.00  0.00    -0.361 N 
HETATM    4  C6  UNL     1      23.452   4.077  49.007  1.00  0.00     0.151 C 
HETATM    5  C5  UNL     1      22.584   5.240  48.641  1.00  0.00    -0.011 C 
HETATM    6  C4  UNL     1      22.544   6.251  49.514  1.00  0.00    -0.023 C 
HETATM    7  C3  UNL     1      23.243   6.380  50.798  1.00  0.00     0.025 C 
HETATM    8  C18 UNL     1      23.993   5.093  51.076  1.00  0.00     0.133 C 
BRANCH   7   9
HETATM    9  C2  UNL     1      24.295   7.490  50.790  1.00  0.00     0.005 C 
HETATM   10  C1  UNL     1      24.181   8.397  49.607  1.00  0.00     0.006 C 
ENDBRANCH   7   9
ENDBRANCH   1   3
BRANCH   1  11
HETATM   11  N3  UNL     1      26.773   3.300  49.925  1.00  0.00    -0.187 NA
BRANCH  11  12
HETATM   12  C10 UNL     1      26.501   2.720  51.038  1.00  0.00     0.003 C 
BRANCH  12  13
HETATM   13  C11 UNL     1      26.501   2.094  52.205  1.00  0.00     0.166 C 
BRANCH  13  14
HETATM   14  N4  UNL     1      25.658   0.953  52.144  1.00  0.00    -0.359 N 
HETATM   15  H15 UNL     1      25.587   0.659  51.145  1.00  0.00     0.165 HD
BRANCH  14  16
HETATM   16  C12 UNL     1      25.000   0.287  53.216  1.00  0.00     0.033 C 
HETATM   17  C13 UNL     1      23.721   0.106  52.983  1.00  0.00     0.027 C 
HETATM   18  C14 UNL     1      22.801  -0.553  53.914  1.00  0.00     0.000 C 
HETATM   19  C15 UNL     1      23.065  -1.129  55.098  1.00  0.00    -0.001 C 
HETATM   20  C16 UNL     1      24.419  -1.221  55.740  1.00  0.00     0.195 C 
HETATM   21  O1  UNL     1      25.445  -1.301  54.814  1.00  0.00    -0.382 OA
HETATM   22  C17 UNL     1      25.885  -0.062  54.359  1.00  0.00     0.224 C 
ENDBRANCH  14  16
ENDBRANCH  13  14
ENDBRANCH  12  13
ENDBRANCH  11  12
ENDBRANCH   1  11
BRANCH   2  23
HETATM   23  C9  UNL     1      27.867   5.444  48.578  1.00  0.00     0.111 C 
BRANCH  23  24
HETATM   24  N2  UNL     1      29.072   5.115  48.279  1.00  0.00    -0.312 NA
HETATM   25  H13 UNL     1      29.293   4.820  47.291  1.00  0.00     0.186 HD
ENDBRANCH  23  24
ENDBRANCH   2  23
TORSDOF 9
ENDMDL
