MODEL 1
REMARK VINA RESULT:      -8.5      0.000      0.000
REMARK  4 active torsions:
REMARK  status: ('A' for Active; 'I' for Inactive)
REMARK    1  A    between atoms: C5_6  and  C6_7 
REMARK    2  A    between atoms: C10_12  and  N1_13 
REMARK    3  A    between atoms: N1_13  and  C11_14 
REMARK    4  A    between atoms: C14_19  and  N4_20 
ROOT
HETATM    1  C6  UNL     1      23.925   2.093  50.795  1.00  0.00     0.205 C 
HETATM    2  O1  UNL     1      23.062   1.042  51.042  1.00  0.00    -0.347 OA
HETATM    3  C7  UNL     1      22.362   0.419  52.059  1.00  0.00     0.136 C 
HETATM    4  C8  UNL     1      22.722  -0.003  53.280  1.00  0.00     0.026 C 
HETATM    5  C9  UNL     1      24.050   0.112  53.865  1.00  0.00     0.031 C 
HETATM    6  C10 UNL     1      25.228   0.673  53.729  1.00  0.00     0.035 C 
HETATM    7  C15 UNL     1      25.724   1.587  52.673  1.00  0.00     0.052 C 
HETATM    8  C16 UNL     1      25.179   2.101  51.568  1.00  0.00     0.047 C 
HETATM    9 CL2  UNL     1      26.516   3.037  50.859  1.00  0.00    -0.086 Cl
ENDROOT
BRANCH   6  10
HETATM   10  N1  UNL     1      26.164   0.326  54.736  1.00  0.00    -0.338 N 
HETATM   11  H8  UNL     1      26.303   0.500  55.748  1.00  0.00     0.167 HD
BRANCH  10  12
HETATM   12  C11 UNL     1      27.200  -0.477  54.145  1.00  0.00     0.178 A 
HETATM   13  N2  UNL     1      26.830  -1.645  53.566  1.00  0.00    -0.130 NA
HETATM   14  N3  UNL     1      27.782  -2.407  53.000  1.00  0.00    -0.161 NA
HETATM   15  C12 UNL     1      29.052  -1.979  53.032  1.00  0.00     0.143 A 
HETATM   16  C13 UNL     1      29.505  -0.805  53.600  1.00  0.00     0.055 A 
HETATM   17  C14 UNL     1      28.507  -0.021  54.186  1.00  0.00     0.092 A 
BRANCH  17  18
HETATM   18  N4  UNL     1      28.902   1.184  54.810  1.00  0.00    -0.295 N 
HETATM   19 CL1  UNL     1      28.910   2.587  53.751  1.00  0.00     0.011 Cl
HETATM   20  H11 UNL     1      29.148   1.176  55.809  1.00  0.00     0.180 HD
ENDBRANCH  17  18
ENDBRANCH  10  12
ENDBRANCH   6  10
BRANCH   1  21
HETATM   21  C5  UNL     1      23.202   3.401  50.821  1.00  0.00    -0.021 A 
HETATM   22  C4  UNL     1      22.813   4.125  51.913  1.00  0.00     0.010 A 
HETATM   23  C3  UNL     1      22.140   5.319  51.896  1.00  0.00     0.004 A 
HETATM   24  C2  UNL     1      21.815   5.864  50.685  1.00  0.00     0.042 A 
HETATM   25  C1  UNL     1      22.179   5.187  49.541  1.00  0.00     0.117 A 
HETATM   26  F1  UNL     1      21.836   5.751  48.359  1.00  0.00    -0.206 F 
HETATM   27  C17 UNL     1      22.859   3.977  49.605  1.00  0.00     0.052 A 
ENDBRANCH   1  21
TORSDOF 4
ENDMDL
MODEL 2
REMARK VINA RESULT:      -8.2      3.066      4.420
REMARK  4 active torsions:
REMARK  status: ('A' for Active; 'I' for Inactive)
REMARK    1  A    between atoms: C5_6  and  C6_7 
REMARK    2  A    between atoms: C10_12  and  N1_13 
REMARK    3  A    between atoms: N1_13  and  C11_14 
REMARK    4  A    between atoms: C14_19  and  N4_20 
ROOT
HETATM    1  C6  UNL     1      22.266   1.538  53.126  1.00  0.00     0.205 C 
HETATM    2  O1  UNL     1      22.596   2.806  52.688  1.00  0.00    -0.347 OA
HETATM    3  C7  UNL     1      23.175   3.480  51.628  1.00  0.00     0.136 C 
HETATM    4  C8  UNL     1      24.316   3.291  50.949  1.00  0.00     0.026 C 
HETATM    5  C9  UNL     1      25.291   2.240  51.195  1.00  0.00     0.031 C 
HETATM    6  C10 UNL     1      25.502   1.113  51.832  1.00  0.00     0.035 C 
HETATM    7  C15 UNL     1      24.609   0.359  52.744  1.00  0.00     0.052 C 
HETATM    8  C16 UNL     1      23.374   0.569  53.206  1.00  0.00     0.047 C 
HETATM    9 CL2  UNL     1      23.117  -0.807  54.304  1.00  0.00    -0.086 Cl
ENDROOT
BRANCH   6  10
HETATM   10  N1  UNL     1      26.790   0.554  51.629  1.00  0.00    -0.338 N 
HETATM   11  H8  UNL     1      27.270  -0.031  50.921  1.00  0.00     0.167 HD
BRANCH  10  12
HETATM   12  C11 UNL     1      27.628   0.911  52.741  1.00  0.00     0.178 A 
HETATM   13  N2  UNL     1      27.978   2.215  52.866  1.00  0.00    -0.130 NA
HETATM   14  N3  UNL     1      28.754   2.571  53.904  1.00  0.00    -0.161 NA
HETATM   15  C12 UNL     1      29.146   1.626  54.769  1.00  0.00     0.143 A 
HETATM   16  C13 UNL     1      28.831   0.282  54.709  1.00  0.00     0.055 A 
HETATM   17  C14 UNL     1      28.024  -0.077  53.626  1.00  0.00     0.092 A 
BRANCH  17  18
HETATM   18  N4  UNL     1      27.683  -1.442  53.487  1.00  0.00    -0.295 N 
HETATM   19 CL1  UNL     1      29.040  -2.499  53.121  1.00  0.00     0.011 Cl
HETATM   20  H11 UNL     1      26.704  -1.731  53.608  1.00  0.00     0.180 HD
ENDBRANCH  17  18
ENDBRANCH  10  12
ENDBRANCH   6  10
BRANCH   1  21
HETATM   21  C5  UNL     1      21.068   1.012  52.405  1.00  0.00    -0.021 A 
HETATM   22  C4  UNL     1      20.771   1.123  51.075  1.00  0.00     0.010 A 
HETATM   23  C3  UNL     1      19.652   0.636  50.451  1.00  0.00     0.004 A 
HETATM   24  C2  UNL     1      18.727  -0.032  51.205  1.00  0.00     0.042 A 
HETATM   25  C1  UNL     1      18.964  -0.181  52.554  1.00  0.00     0.117 A 
HETATM   26  F1  UNL     1      18.025  -0.842  53.272  1.00  0.00    -0.206 F 
HETATM   27  C17 UNL     1      20.112   0.331  53.146  1.00  0.00     0.052 A 
ENDBRANCH   1  21
TORSDOF 4
ENDMDL
MODEL 3
REMARK VINA RESULT:      -8.2      1.449      2.048
REMARK  4 active torsions:
REMARK  status: ('A' for Active; 'I' for Inactive)
REMARK    1  A    between atoms: C5_6  and  C6_7 
REMARK    2  A    between atoms: C10_12  and  N1_13 
REMARK    3  A    between atoms: N1_13  and  C11_14 
REMARK    4  A    between atoms: C14_19  and  N4_20 
ROOT
HETATM    1  C6  UNL     1      23.559   1.631  51.181  1.00  0.00     0.205 C 
HETATM    2  O1  UNL     1      22.578   0.704  51.478  1.00  0.00    -0.347 OA
HETATM    3  C7  UNL     1      21.915   0.117  52.541  1.00  0.00     0.136 C 
HETATM    4  C8  UNL     1      22.348  -0.442  53.680  1.00  0.00     0.026 C 
HETATM    5  C9  UNL     1      23.737  -0.570  54.095  1.00  0.00     0.031 C 
HETATM    6  C10 UNL     1      24.963  -0.181  53.839  1.00  0.00     0.035 C 
HETATM    7  C15 UNL     1      25.467   0.726  52.780  1.00  0.00     0.052 C 
HETATM    8  C16 UNL     1      24.882   1.395  51.785  1.00  0.00     0.047 C 
HETATM    9 CL2  UNL     1      26.254   2.173  50.962  1.00  0.00    -0.086 Cl
ENDROOT
BRANCH   6  10
HETATM   10  N1  UNL     1      25.947  -0.737  54.696  1.00  0.00    -0.338 N 
HETATM   11  H8  UNL     1      25.996  -1.444  55.452  1.00  0.00     0.167 HD
BRANCH  10  12
HETATM   12  C11 UNL     1      27.209  -0.108  54.417  1.00  0.00     0.178 A 
HETATM   13  N2  UNL     1      27.369   1.177  54.820  1.00  0.00    -0.130 NA
HETATM   14  N3  UNL     1      28.545   1.780  54.575  1.00  0.00    -0.161 NA
HETATM   15  C12 UNL     1      29.507   1.088  53.948  1.00  0.00     0.143 A 
HETATM   16  C13 UNL     1      29.419  -0.220  53.511  1.00  0.00     0.055 A 
HETATM   17  C14 UNL     1      28.192  -0.837  53.770  1.00  0.00     0.092 A 
BRANCH  17  18
HETATM   18  N4  UNL     1      28.022  -2.169  53.325  1.00  0.00    -0.295 N 
HETATM   19 CL1  UNL     1      26.910  -2.351  51.977  1.00  0.00     0.011 Cl
HETATM   20  H11 UNL     1      28.541  -2.924  53.792  1.00  0.00     0.180 HD
ENDBRANCH  17  18
ENDBRANCH  10  12
ENDBRANCH   6  10
BRANCH   1  21
HETATM   21  C5  UNL     1      23.058   3.026  51.372  1.00  0.00    -0.021 A 
HETATM   22  C4  UNL     1      23.417   3.924  52.338  1.00  0.00     0.010 A 
HETATM   23  C3  UNL     1      22.926   5.194  52.488  1.00  0.00     0.004 A 
HETATM   24  C2  UNL     1      21.985   5.635  51.598  1.00  0.00     0.042 A 
HETATM   25  C1  UNL     1      21.577   4.781  50.597  1.00  0.00     0.117 A 
HETATM   26  F1  UNL     1      20.640   5.247  49.738  1.00  0.00    -0.206 F 
HETATM   27  C17 UNL     1      22.102   3.500  50.484  1.00  0.00     0.052 A 
ENDBRANCH   1  21
TORSDOF 4
ENDMDL
MODEL 4
REMARK VINA RESULT:      -8.0      2.552      3.701
REMARK  4 active torsions:
REMARK  status: ('A' for Active; 'I' for Inactive)
REMARK    1  A    between atoms: C5_6  and  C6_7 
REMARK    2  A    between atoms: C10_12  and  N1_13 
REMARK    3  A    between atoms: N1_13  and  C11_14 
REMARK    4  A    between atoms: C14_19  and  N4_20 
ROOT
HETATM    1  C6  UNL     1      23.930   4.625  50.229  1.00  0.00     0.205 C 
HETATM    2  O1  UNL     1      25.255   4.533  49.849  1.00  0.00    -0.347 OA
HETATM    3  C7  UNL     1      26.272   3.618  49.641  1.00  0.00     0.136 C 
HETATM    4  C8  UNL     1      26.740   2.602  50.379  1.00  0.00     0.026 C 
HETATM    5  C9  UNL     1      26.240   2.191  51.683  1.00  0.00     0.031 C 
HETATM    6  C10 UNL     1      25.260   2.342  52.541  1.00  0.00     0.035 C 
HETATM    7  C15 UNL     1      24.050   3.194  52.456  1.00  0.00     0.052 C 
HETATM    8  C16 UNL     1      23.588   4.051  51.543  1.00  0.00     0.047 C 
HETATM    9 CL2  UNL     1      22.104   4.679  52.296  1.00  0.00    -0.086 Cl
ENDROOT
BRANCH   6  10
HETATM   10  N1  UNL     1      25.403   1.590  53.735  1.00  0.00    -0.338 N 
HETATM   11  H8  UNL     1      24.789   1.165  54.453  1.00  0.00     0.167 HD
BRANCH  10  12
HETATM   12  C11 UNL     1      26.804   1.395  53.992  1.00  0.00     0.178 A 
HETATM   13  N2  UNL     1      27.572   2.503  54.136  1.00  0.00    -0.130 NA
HETATM   14  N3  UNL     1      28.883   2.343  54.385  1.00  0.00    -0.161 NA
HETATM   15  C12 UNL     1      29.373   1.099  54.482  1.00  0.00     0.143 A 
HETATM   16  C13 UNL     1      28.656  -0.074  54.350  1.00  0.00     0.055 A 
HETATM   17  C14 UNL     1      27.294   0.104  54.090  1.00  0.00     0.092 A 
BRANCH  17  18
HETATM   18  N4  UNL     1      26.504  -1.055  53.916  1.00  0.00    -0.295 N 
HETATM   19 CL1  UNL     1      26.788  -1.912  52.408  1.00  0.00     0.011 Cl
HETATM   20  H11 UNL     1      25.838  -1.325  54.652  1.00  0.00     0.180 HD
ENDBRANCH  17  18
ENDBRANCH  10  12
ENDBRANCH   6  10
BRANCH   1  21
HETATM   21  C5  UNL     1      23.022   4.176  49.131  1.00  0.00    -0.021 A 
HETATM   22  C4  UNL     1      22.468   4.931  48.135  1.00  0.00     0.010 A 
HETATM   23  C3  UNL     1      21.629   4.484  47.149  1.00  0.00     0.004 A 
HETATM   24  C2  UNL     1      21.297   3.157  47.132  1.00  0.00     0.042 A 
HETATM   25  C1  UNL     1      21.820   2.337  48.107  1.00  0.00     0.117 A 
HETATM   26  F1  UNL     1      21.466   1.030  48.065  1.00  0.00    -0.206 F 
HETATM   27  C17 UNL     1      22.667   2.834  49.090  1.00  0.00     0.052 A 
ENDBRANCH   1  21
TORSDOF 4
ENDMDL
MODEL 5
REMARK VINA RESULT:      -8.0      4.095      7.380
REMARK  4 active torsions:
REMARK  status: ('A' for Active; 'I' for Inactive)
REMARK    1  A    between atoms: C5_6  and  C6_7 
REMARK    2  A    between atoms: C10_12  and  N1_13 
REMARK    3  A    between atoms: N1_13  and  C11_14 
REMARK    4  A    between atoms: C14_19  and  N4_20 
ROOT
HETATM    1  C6  UNL     1      25.675   0.393  53.790  1.00  0.00     0.205 C 
HETATM    2  O1  UNL     1      24.942  -0.053  54.874  1.00  0.00    -0.347 OA
HETATM    3  C7  UNL     1      23.999  -0.996  55.242  1.00  0.00     0.136 C 
HETATM    4  C8  UNL     1      22.830  -1.367  54.699  1.00  0.00     0.026 C 
HETATM    5  C9  UNL     1      22.236  -0.815  53.491  1.00  0.00     0.031 C 
HETATM    6  C10 UNL     1      22.464  -0.058  52.444  1.00  0.00     0.035 C 
HETATM    7  C15 UNL     1      23.694   0.672  52.053  1.00  0.00     0.052 C 
HETATM    8  C16 UNL     1      24.900   0.809  52.608  1.00  0.00     0.047 C 
HETATM    9 CL2  UNL     1      25.731   1.920  51.494  1.00  0.00    -0.086 Cl
ENDROOT
BRANCH   6  10
HETATM   10  N1  UNL     1      21.353   0.094  51.576  1.00  0.00    -0.338 N 
HETATM   11  H8  UNL     1      20.769  -0.504  50.964  1.00  0.00     0.167 HD
BRANCH  10  12
HETATM   12  C11 UNL     1      20.970   1.480  51.556  1.00  0.00     0.178 A 
HETATM   13  N2  UNL     1      20.451   2.000  52.695  1.00  0.00    -0.130 NA
HETATM   14  N3  UNL     1      20.094   3.296  52.701  1.00  0.00    -0.161 NA
HETATM   15  C12 UNL     1      20.269   4.017  51.584  1.00  0.00     0.143 A 
HETATM   16  C13 UNL     1      20.791   3.559  50.390  1.00  0.00     0.055 A 
HETATM   17  C14 UNL     1      21.158   2.211  50.395  1.00  0.00     0.092 A 
BRANCH  17  18
HETATM   18  N4  UNL     1      21.676   1.668  49.197  1.00  0.00    -0.295 N 
HETATM   19 CL1  UNL     1      23.025   2.563  48.514  1.00  0.00     0.011 Cl
HETATM   20  H11 UNL     1      21.256   0.812  48.810  1.00  0.00     0.180 HD
ENDBRANCH  17  18
ENDBRANCH  10  12
ENDBRANCH   6  10
BRANCH   1  21
HETATM   21  C5  UNL     1      26.790  -0.548  53.469  1.00  0.00    -0.021 A 
HETATM   22  C4  UNL     1      26.711  -1.766  52.853  1.00  0.00     0.010 A 
HETATM   23  C3  UNL     1      27.759  -2.608  52.585  1.00  0.00     0.004 A 
HETATM   24  C2  UNL     1      29.016  -2.218  52.955  1.00  0.00     0.042 A 
HETATM   25  C1  UNL     1      29.168  -1.000  53.582  1.00  0.00     0.117 A 
HETATM   26  F1  UNL     1      30.425  -0.648  53.941  1.00  0.00    -0.206 F 
HETATM   27  C17 UNL     1      28.077  -0.179  53.835  1.00  0.00     0.052 A 
ENDBRANCH   1  21
TORSDOF 4
ENDMDL
MODEL 6
REMARK VINA RESULT:      -7.7      4.443      7.697
REMARK  4 active torsions:
REMARK  status: ('A' for Active; 'I' for Inactive)
REMARK    1  A    between atoms: C5_6  and  C6_7 
REMARK    2  A    between atoms: C10_12  and  N1_13 
REMARK    3  A    between atoms: N1_13  and  C11_14 
REMARK    4  A    between atoms: C14_19  and  N4_20 
ROOT
HETATM    1  C6  UNL     1      25.909   1.289  51.680  1.00  0.00     0.205 C 
HETATM    2  O1  UNL     1      26.164   2.025  50.538  1.00  0.00    -0.347 OA
HETATM    3  C7  UNL     1      26.329   3.323  50.089  1.00  0.00     0.136 C 
HETATM    4  C8  UNL     1      25.613   4.442  50.271  1.00  0.00     0.026 C 
HETATM    5  C9  UNL     1      24.391   4.556  51.053  1.00  0.00     0.031 C 
HETATM    6  C10 UNL     1      23.623   3.942  51.921  1.00  0.00     0.035 C 
HETATM    7  C15 UNL     1      23.772   2.601  52.536  1.00  0.00     0.052 C 
HETATM    8  C16 UNL     1      24.671   1.623  52.406  1.00  0.00     0.047 C 
HETATM    9 CL2  UNL     1      24.029   0.344  53.462  1.00  0.00    -0.086 Cl
ENDROOT
BRANCH   6  10
HETATM   10  N1  UNL     1      22.469   4.672  52.305  1.00  0.00    -0.338 N 
HETATM   11  H8  UNL     1      22.088   5.111  53.163  1.00  0.00     0.167 HD
BRANCH  10  12
HETATM   12  C11 UNL     1      21.607   4.806  51.162  1.00  0.00     0.178 A 
HETATM   13  N2  UNL     1      21.143   3.666  50.594  1.00  0.00    -0.130 NA
HETATM   14  N3  UNL     1      20.329   3.770  49.528  1.00  0.00    -0.161 NA
HETATM   15  C12 UNL     1      20.011   4.991  49.077  1.00  0.00     0.143 A 
HETATM   16  C13 UNL     1      20.442   6.194  49.603  1.00  0.00     0.055 A 
HETATM   17  C14 UNL     1      21.288   6.074  50.709  1.00  0.00     0.092 A 
BRANCH  17  18
HETATM   18  N4  UNL     1      21.789   7.266  51.282  1.00  0.00    -0.295 N 
HETATM   19 CL1  UNL     1      23.279   7.853  50.558  1.00  0.00     0.011 Cl
HETATM   20  H11 UNL     1      21.273   7.708  52.055  1.00  0.00     0.180 HD
ENDBRANCH  17  18
ENDBRANCH  10  12
ENDBRANCH   6  10
BRANCH   1  21
HETATM   21  C5  UNL     1      27.115   1.222  52.559  1.00  0.00    -0.021 A 
HETATM   22  C4  UNL     1      27.794   2.258  53.136  1.00  0.00     0.010 A 
HETATM   23  C3  UNL     1      28.906   2.157  53.930  1.00  0.00     0.004 A 
HETATM   24  C2  UNL     1      29.407   0.911  54.190  1.00  0.00     0.042 A 
HETATM   25  C1  UNL     1      28.771  -0.180  53.639  1.00  0.00     0.117 A 
HETATM   26  F1  UNL     1      29.297  -1.398  53.911  1.00  0.00    -0.206 F 
HETATM   27  C17 UNL     1      27.646  -0.031  52.838  1.00  0.00     0.052 A 
ENDBRANCH   1  21
TORSDOF 4
ENDMDL
MODEL 7
REMARK VINA RESULT:      -7.6      4.069      7.369
REMARK  4 active torsions:
REMARK  status: ('A' for Active; 'I' for Inactive)
REMARK    1  A    between atoms: C5_6  and  C6_7 
REMARK    2  A    between atoms: C10_12  and  N1_13 
REMARK    3  A    between atoms: N1_13  and  C11_14 
REMARK    4  A    between atoms: C14_19  and  N4_20 
ROOT
HETATM    1  C6  UNL     1      26.033   0.648  53.668  1.00  0.00     0.205 C 
HETATM    2  O1  UNL     1      24.979   0.192  54.438  1.00  0.00    -0.347 OA
HETATM    3  C7  UNL     1      23.818  -0.556  54.369  1.00  0.00     0.136 C 
HETATM    4  C8  UNL     1      22.778  -0.537  53.522  1.00  0.00     0.026 C 
HETATM    5  C9  UNL     1      22.622   0.352  52.381  1.00  0.00     0.031 C 
HETATM    6  C10 UNL     1      23.244   1.215  51.612  1.00  0.00     0.035 C 
HETATM    7  C15 UNL     1      24.644   1.697  51.669  1.00  0.00     0.052 C 
HETATM    8  C16 UNL     1      25.673   1.445  52.481  1.00  0.00     0.047 C 
HETATM    9 CL2  UNL     1      26.949   2.517  51.858  1.00  0.00    -0.086 Cl
ENDROOT
BRANCH   6  10
HETATM   10  N1  UNL     1      22.437   1.780  50.591  1.00  0.00    -0.338 N 
HETATM   11  H8  UNL     1      21.806   1.448  49.840  1.00  0.00     0.167 HD
BRANCH  10  12
HETATM   12  C11 UNL     1      22.573   3.210  50.636  1.00  0.00     0.178 A 
HETATM   13  N2  UNL     1      23.500   3.775  49.825  1.00  0.00    -0.130 NA
HETATM   14  N3  UNL     1      23.637   5.113  49.845  1.00  0.00    -0.161 NA
HETATM   15  C12 UNL     1      22.851   5.828  50.663  1.00  0.00     0.143 A 
HETATM   16  C13 UNL     1      21.887   5.325  51.515  1.00  0.00     0.055 A 
HETATM   17  C14 UNL     1      21.754   3.935  51.485  1.00  0.00     0.092 A 
BRANCH  17  18
HETATM   18  N4  UNL     1      20.802   3.349  52.352  1.00  0.00    -0.295 N 
HETATM   19 CL1  UNL     1      19.170   3.280  51.703  1.00  0.00     0.011 Cl
HETATM   20  H11 UNL     1      21.105   3.005  53.273  1.00  0.00     0.180 HD
ENDBRANCH  17  18
ENDBRANCH  10  12
ENDBRANCH   6  10
BRANCH   1  21
HETATM   21  C5  UNL     1      27.001  -0.451  53.375  1.00  0.00    -0.021 A 
HETATM   22  C4  UNL     1      26.755  -1.649  52.762  1.00  0.00     0.010 A 
HETATM   23  C3  UNL     1      27.671  -2.639  52.521  1.00  0.00     0.004 A 
HETATM   24  C2  UNL     1      28.964  -2.438  52.917  1.00  0.00     0.042 A 
HETATM   25  C1  UNL     1      29.283  -1.251  53.541  1.00  0.00     0.117 A 
HETATM   26  F1  UNL     1      30.571  -1.088  53.925  1.00  0.00    -0.206 F 
HETATM   27  C17 UNL     1      28.321  -0.275  53.767  1.00  0.00     0.052 A 
ENDBRANCH   1  21
TORSDOF 4
ENDMDL
MODEL 8
REMARK VINA RESULT:      -7.4      4.434      7.283
REMARK  4 active torsions:
REMARK  status: ('A' for Active; 'I' for Inactive)
REMARK    1  A    between atoms: C5_6  and  C6_7 
REMARK    2  A    between atoms: C10_12  and  N1_13 
REMARK    3  A    between atoms: N1_13  and  C11_14 
REMARK    4  A    between atoms: C14_19  and  N4_20 
ROOT
HETATM    1  C6  UNL     1      26.286   0.942  51.665  1.00  0.00     0.205 C 
HETATM    2  O1  UNL     1      26.422   1.819  50.605  1.00  0.00    -0.347 OA
HETATM    3  C7  UNL     1      26.285   3.152  50.266  1.00  0.00     0.136 C 
HETATM    4  C8  UNL     1      25.300   4.040  50.464  1.00  0.00     0.026 C 
HETATM    5  C9  UNL     1      24.040   3.780  51.144  1.00  0.00     0.031 C 
HETATM    6  C10 UNL     1      23.395   2.920  51.898  1.00  0.00     0.035 C 
HETATM    7  C15 UNL     1      23.836   1.607  52.425  1.00  0.00     0.052 C 
HETATM    8  C16 UNL     1      24.959   0.895  52.304  1.00  0.00     0.047 C 
HETATM    9 CL2  UNL     1      24.591  -0.592  53.208  1.00  0.00    -0.086 Cl
ENDROOT
BRANCH   6  10
HETATM   10  N1  UNL     1      22.072   3.307  52.232  1.00  0.00    -0.338 N 
HETATM   11  H8  UNL     1      21.607   3.976  52.871  1.00  0.00     0.167 HD
BRANCH  10  12
HETATM   12  C11 UNL     1      21.153   2.520  51.456  1.00  0.00     0.178 A 
HETATM   13  N2  UNL     1      21.062   2.792  50.131  1.00  0.00    -0.130 NA
HETATM   14  N3  UNL     1      20.213   2.062  49.387  1.00  0.00    -0.161 NA
HETATM   15  C12 UNL     1      19.498   1.098  49.984  1.00  0.00     0.143 A 
HETATM   16  C13 UNL     1      19.537   0.762  51.324  1.00  0.00     0.055 A 
HETATM   17  C14 UNL     1      20.422   1.528  52.088  1.00  0.00     0.092 A 
BRANCH  17  18
HETATM   18  N4  UNL     1      20.494   1.257  53.474  1.00  0.00    -0.295 N 
HETATM   19 CL1  UNL     1      20.616  -0.450  53.877  1.00  0.00     0.011 Cl
HETATM   20  H11 UNL     1      20.478   2.039  54.141  1.00  0.00     0.180 HD
ENDBRANCH  17  18
ENDBRANCH  10  12
ENDBRANCH   6  10
BRANCH   1  21
HETATM   21  C5  UNL     1      27.410   1.093  52.638  1.00  0.00    -0.021 A 
HETATM   22  C4  UNL     1      27.872   2.242  53.217  1.00  0.00     0.010 A 
HETATM   23  C3  UNL     1      28.916   2.342  54.099  1.00  0.00     0.004 A 
HETATM   24  C2  UNL     1      29.577   1.199  54.455  1.00  0.00     0.042 A 
HETATM   25  C1  UNL     1      29.162   0.004  53.909  1.00  0.00     0.117 A 
HETATM   26  F1  UNL     1      29.842  -1.107  54.279  1.00  0.00    -0.206 F 
HETATM   27  C17 UNL     1      28.099  -0.051  53.017  1.00  0.00     0.052 A 
ENDBRANCH   1  21
TORSDOF 4
ENDMDL
MODEL 9
REMARK VINA RESULT:      -7.4      4.568      6.631
REMARK  4 active torsions:
REMARK  status: ('A' for Active; 'I' for Inactive)
REMARK    1  A    between atoms: C5_6  and  C6_7 
REMARK    2  A    between atoms: C10_12  and  N1_13 
REMARK    3  A    between atoms: N1_13  and  C11_14 
REMARK    4  A    between atoms: C14_19  and  N4_20 
ROOT
HETATM    1  C6  UNL     1      22.762   2.479  51.962  1.00  0.00     0.205 C 
HETATM    2  O1  UNL     1      22.083   2.104  50.818  1.00  0.00    -0.347 OA
HETATM    3  C7  UNL     1      22.256   1.902  49.460  1.00  0.00     0.136 C 
HETATM    4  C8  UNL     1      22.824   2.646  48.500  1.00  0.00     0.026 C 
HETATM    5  C9  UNL     1      23.445   3.949  48.683  1.00  0.00     0.031 C 
HETATM    6  C10 UNL     1      23.878   4.804  49.579  1.00  0.00     0.035 C 
HETATM    7  C15 UNL     1      23.867   4.712  51.059  1.00  0.00     0.052 C 
HETATM    8  C16 UNL     1      23.426   3.794  51.922  1.00  0.00     0.047 C 
HETATM    9 CL2  UNL     1      23.754   4.540  53.504  1.00  0.00    -0.086 Cl
ENDROOT
BRANCH   6  10
HETATM   10  N1  UNL     1      24.414   6.001  49.039  1.00  0.00    -0.338 N 
HETATM   11  H8  UNL     1      24.070   6.937  48.757  1.00  0.00     0.167 HD
BRANCH  10  12
HETATM   12  C11 UNL     1      25.823   5.820  48.825  1.00  0.00     0.178 A 
HETATM   13  N2  UNL     1      26.330   4.578  49.022  1.00  0.00    -0.130 NA
HETATM   14  N3  UNL     1      27.645   4.385  48.820  1.00  0.00    -0.161 NA
HETATM   15  C12 UNL     1      28.396   5.425  48.429  1.00  0.00     0.143 A 
HETATM   16  C13 UNL     1      27.953   6.714  48.207  1.00  0.00     0.055 A 
HETATM   17  C14 UNL     1      26.585   6.903  48.422  1.00  0.00     0.092 A 
BRANCH  17  18
HETATM   18  N4  UNL     1      26.067   8.206  48.238  1.00  0.00    -0.295 N 
HETATM   19 CL1  UNL     1      25.911   9.144  49.717  1.00  0.00     0.011 Cl
HETATM   20  H11 UNL     1      25.825   8.522  47.290  1.00  0.00     0.180 HD
ENDBRANCH  17  18
ENDBRANCH  10  12
ENDBRANCH   6  10
BRANCH   1  21
HETATM   21  C5  UNL     1      23.649   1.380  52.447  1.00  0.00    -0.021 A 
HETATM   22  C4  UNL     1      23.355   0.400  53.354  1.00  0.00     0.010 A 
HETATM   23  C3  UNL     1      24.202  -0.588  53.783  1.00  0.00     0.004 A 
HETATM   24  C2  UNL     1      25.470  -0.624  53.271  1.00  0.00     0.042 A 
HETATM   25  C1  UNL     1      25.834   0.335  52.350  1.00  0.00     0.117 A 
HETATM   26  F1  UNL     1      27.098   0.273  51.869  1.00  0.00    -0.206 F 
HETATM   27  C17 UNL     1      24.942   1.319  51.945  1.00  0.00     0.052 A 
ENDBRANCH   1  21
TORSDOF 4
ENDMDL
