MODEL 1
REMARK VINA RESULT:      -9.1      0.000      0.000
REMARK  4 active torsions:
REMARK  status: ('A' for Active; 'I' for Inactive)
REMARK    1  A    between atoms: C2_2  and  C3_3 
REMARK    2  A    between atoms: C3_3  and  N1_4 
REMARK    3  A    between atoms: C3_3  and  C16_22 
REMARK    4  A    between atoms: N1_4  and  C4_5 
ROOT
HETATM    1  C4  UNL     1      24.942   2.860  52.033  1.00  0.00     0.138 A 
HETATM    2  N2  UNL     1      23.926   3.140  52.862  1.00  0.00    -0.224 NA
HETATM    3  C5  UNL     1      23.046   4.081  52.496  1.00  0.00     0.236 A 
HETATM    4  N3  UNL     1      23.073   4.794  51.356  1.00  0.00    -0.234 NA
HETATM    5  C6  UNL     1      24.065   4.545  50.511  1.00  0.00     0.113 A 
HETATM    6  C7  UNL     1      25.000   3.577  50.848  1.00  0.00     0.045 A 
HETATM    7  C8  UNL     1      26.176   3.059  50.148  1.00  0.00     0.022 C 
HETATM    8  C9  UNL     1      27.076   3.581  49.353  1.00  0.00     0.056 C 
HETATM    9  C10 UNL     1      27.354   4.893  48.782  1.00  0.00     0.179 C 
HETATM   10  O1  UNL     1      28.575   5.035  48.523  1.00  0.00    -0.288 OA
HETATM   11  C11 UNL     1      26.532   6.053  48.452  1.00  0.00     0.009 C 
HETATM   12  C12 UNL     1      25.258   6.392  48.559  1.00  0.00     0.023 C 
HETATM   13  C13 UNL     1      24.687   7.685  48.124  1.00  0.00     0.316 C 
HETATM   14  N4  UNL     1      25.605   8.229  47.119  1.00  0.00     0.088 N 
HETATM   15  C14 UNL     1      26.931   8.332  47.681  1.00  0.00     0.275 C 
HETATM   16  C15 UNL     1      27.551   6.964  47.868  1.00  0.00     0.074 C 
HETATM   17  S1  UNL     1      23.761   5.667  49.159  1.00  0.00    -0.072 SA
HETATM   18  H13 UNL     1      25.596   7.563  46.321  1.00  0.00     0.316 HD
ENDROOT
BRANCH   1  19
HETATM   19  N1  UNL     1      25.937   1.877  52.391  1.00  0.00    -0.365 N 
HETATM   20  H7  UNL     1      26.919   1.805  52.633  1.00  0.00     0.162 HD
BRANCH  19  21
HETATM   21  C3  UNL     1      25.434   0.536  52.462  1.00  0.00     0.116 C 
BRANCH  21  22
HETATM   22  C2  UNL     1      24.489   0.261  53.597  1.00  0.00     0.025 C 
HETATM   23  C1  UNL     1      23.240  -0.422  53.095  1.00  0.00     0.007 C 
ENDBRANCH  21  22
BRANCH  21  24
HETATM   24  C16 UNL     1      26.624  -0.358  52.702  1.00  0.00    -0.036 A 
HETATM   25  C17 UNL     1      26.666  -1.723  52.459  1.00  0.00     0.009 A 
HETATM   26  C18 UNL     1      27.828  -2.411  52.728  1.00  0.00     0.001 A 
HETATM   27  C19 UNL     1      28.946  -1.752  53.236  1.00  0.00     0.000 A 
HETATM   28  C20 UNL     1      28.926  -0.392  53.485  1.00  0.00     0.001 A 
HETATM   29  C21 UNL     1      27.739   0.265  53.202  1.00  0.00     0.009 A 
ENDBRANCH  21  24
ENDBRANCH  19  21
ENDBRANCH   1  19
TORSDOF 4
ENDMDL
MODEL 2
REMARK VINA RESULT:      -8.9      2.011      3.033
REMARK  4 active torsions:
REMARK  status: ('A' for Active; 'I' for Inactive)
REMARK    1  A    between atoms: C2_2  and  C3_3 
REMARK    2  A    between atoms: C3_3  and  N1_4 
REMARK    3  A    between atoms: C3_3  and  C16_22 
REMARK    4  A    between atoms: N1_4  and  C4_5 
ROOT
HETATM    1  C4  UNL     1      24.451   4.096  51.075  1.00  0.00     0.138 A 
HETATM    2  N2  UNL     1      23.431   4.667  51.733  1.00  0.00    -0.224 NA
HETATM    3  C5  UNL     1      22.987   5.858  51.309  1.00  0.00     0.236 A 
HETATM    4  N3  UNL     1      23.466   6.560  50.268  1.00  0.00    -0.234 NA
HETATM    5  C6  UNL     1      24.477   6.026  49.593  1.00  0.00     0.113 A 
HETATM    6  C7  UNL     1      24.969   4.795  49.995  1.00  0.00     0.045 A 
HETATM    7  C8  UNL     1      26.036   3.942  49.469  1.00  0.00     0.022 C 
HETATM    8  C9  UNL     1      27.195   4.165  48.902  1.00  0.00     0.056 C 
HETATM    9  C10 UNL     1      27.983   5.332  48.520  1.00  0.00     0.179 C 
HETATM   10  O1  UNL     1      29.212   5.072  48.499  1.00  0.00    -0.288 OA
HETATM   11  C11 UNL     1      27.654   6.707  48.164  1.00  0.00     0.009 C 
HETATM   12  C12 UNL     1      26.559   7.444  48.074  1.00  0.00     0.023 C 
HETATM   13  C13 UNL     1      26.525   8.866  47.673  1.00  0.00     0.316 C 
HETATM   14  N4  UNL     1      27.750   9.112  46.906  1.00  0.00     0.088 N 
HETATM   15  C14 UNL     1      28.900   8.753  47.703  1.00  0.00     0.275 C 
HETATM   16  C15 UNL     1      29.004   7.252  47.863  1.00  0.00     0.074 C 
HETATM   17  S1  UNL     1      24.821   7.232  48.324  1.00  0.00    -0.072 SA
HETATM   18  H13 UNL     1      27.691   8.514  46.058  1.00  0.00     0.316 HD
ENDROOT
BRANCH   1  19
HETATM   19  N1  UNL     1      24.991   2.829  51.507  1.00  0.00    -0.365 N 
HETATM   20  H7  UNL     1      25.528   2.043  51.157  1.00  0.00     0.162 HD
BRANCH  19  21
HETATM   21  C3  UNL     1      24.734   2.524  52.884  1.00  0.00     0.116 C 
BRANCH  21  22
HETATM   22  C2  UNL     1      25.935   2.120  53.690  1.00  0.00     0.025 C 
HETATM   23  C1  UNL     1      27.184   2.166  52.843  1.00  0.00     0.007 C 
ENDBRANCH  21  22
BRANCH  21  24
HETATM   24  C16 UNL     1      23.819   1.325  52.896  1.00  0.00    -0.036 A 
HETATM   25  C17 UNL     1      22.666   1.185  52.137  1.00  0.00     0.009 A 
HETATM   26  C18 UNL     1      21.928   0.028  52.254  1.00  0.00     0.001 A 
HETATM   27  C19 UNL     1      22.329  -0.989  53.118  1.00  0.00     0.000 A 
HETATM   28  C20 UNL     1      23.475  -0.870  53.883  1.00  0.00     0.001 A 
HETATM   29  C21 UNL     1      24.190   0.308  53.738  1.00  0.00     0.009 A 
ENDBRANCH  21  24
ENDBRANCH  19  21
ENDBRANCH   1  19
TORSDOF 4
ENDMDL
MODEL 3
REMARK VINA RESULT:      -8.8      3.775      7.179
REMARK  4 active torsions:
REMARK  status: ('A' for Active; 'I' for Inactive)
REMARK    1  A    between atoms: C2_2  and  C3_3 
REMARK    2  A    between atoms: C3_3  and  N1_4 
REMARK    3  A    between atoms: C3_3  and  C16_22 
REMARK    4  A    between atoms: N1_4  and  C4_5 
ROOT
HETATM    1  C4  UNL     1      22.219   2.512  52.238  1.00  0.00     0.138 A 
HETATM    2  N2  UNL     1      22.081   3.775  51.810  1.00  0.00    -0.224 NA
HETATM    3  C5  UNL     1      23.172   4.426  51.385  1.00  0.00     0.236 A 
HETATM    4  N3  UNL     1      24.423   3.936  51.341  1.00  0.00    -0.234 NA
HETATM    5  C6  UNL     1      24.599   2.689  51.757  1.00  0.00     0.113 A 
HETATM    6  C7  UNL     1      23.498   1.976  52.205  1.00  0.00     0.045 A 
HETATM    7  C8  UNL     1      23.347   0.607  52.702  1.00  0.00     0.022 C 
HETATM    8  C9  UNL     1      24.097  -0.202  53.408  1.00  0.00     0.056 C 
HETATM    9  C10 UNL     1      25.413  -0.153  54.034  1.00  0.00     0.179 C 
HETATM   10  O1  UNL     1      25.485  -0.934  55.017  1.00  0.00    -0.288 OA
HETATM   11  C11 UNL     1      26.637   0.592  53.769  1.00  0.00     0.009 C 
HETATM   12  C12 UNL     1      27.037   1.515  52.909  1.00  0.00     0.023 C 
HETATM   13  C13 UNL     1      28.389   2.111  52.874  1.00  0.00     0.316 C 
HETATM   14  N4  UNL     1      29.284   1.156  53.533  1.00  0.00     0.088 N 
HETATM   15  C14 UNL     1      28.798   0.878  54.865  1.00  0.00     0.275 C 
HETATM   16  C15 UNL     1      27.535   0.046  54.821  1.00  0.00     0.074 C 
HETATM   17  S1  UNL     1      26.350   2.417  51.552  1.00  0.00    -0.072 SA
HETATM   18  H13 UNL     1      29.273   0.294  52.952  1.00  0.00     0.316 HD
ENDROOT
BRANCH   1  19
HETATM   19  N1  UNL     1      21.084   1.773  52.736  1.00  0.00    -0.365 N 
HETATM   20  H7  UNL     1      20.646   1.498  53.608  1.00  0.00     0.162 HD
BRANCH  19  21
HETATM   21  C3  UNL     1      20.244   1.231  51.708  1.00  0.00     0.116 C 
BRANCH  21  22
HETATM   22  C2  UNL     1      19.212   2.173  51.156  1.00  0.00     0.025 C 
HETATM   23  C1  UNL     1      19.484   2.466  49.700  1.00  0.00     0.007 C 
ENDBRANCH  21  22
BRANCH  21  24
HETATM   24  C16 UNL     1      19.464   0.104  52.337  1.00  0.00    -0.036 A 
HETATM   25  C17 UNL     1      19.919  -0.716  53.359  1.00  0.00     0.009 A 
HETATM   26  C18 UNL     1      19.091  -1.708  53.835  1.00  0.00     0.001 A 
HETATM   27  C19 UNL     1      17.816  -1.889  53.303  1.00  0.00     0.000 A 
HETATM   28  C20 UNL     1      17.343  -1.083  52.285  1.00  0.00     0.001 A 
HETATM   29  C21 UNL     1      18.205  -0.096  51.832  1.00  0.00     0.009 A 
ENDBRANCH  21  24
ENDBRANCH  19  21
ENDBRANCH   1  19
TORSDOF 4
ENDMDL
MODEL 4
REMARK VINA RESULT:      -8.8      2.816      4.397
REMARK  4 active torsions:
REMARK  status: ('A' for Active; 'I' for Inactive)
REMARK    1  A    between atoms: C2_2  and  C3_3 
REMARK    2  A    between atoms: C3_3  and  N1_4 
REMARK    3  A    between atoms: C3_3  and  C16_22 
REMARK    4  A    between atoms: N1_4  and  C4_5 
ROOT
HETATM    1  C4  UNL     1      25.789   2.695  51.621  1.00  0.00     0.138 A 
HETATM    2  N2  UNL     1      26.698   2.575  50.643  1.00  0.00    -0.224 NA
HETATM    3  C5  UNL     1      26.533   3.301  49.528  1.00  0.00     0.236 A 
HETATM    4  N3  UNL     1      25.527   4.157  49.279  1.00  0.00    -0.234 NA
HETATM    5  C6  UNL     1      24.607   4.301  50.225  1.00  0.00     0.113 A 
HETATM    6  C7  UNL     1      24.738   3.570  51.396  1.00  0.00     0.045 A 
HETATM    7  C8  UNL     1      23.929   3.512  52.615  1.00  0.00     0.022 C 
HETATM    8  C9  UNL     1      22.648   3.604  52.872  1.00  0.00     0.056 C 
HETATM    9  C10 UNL     1      21.423   3.805  52.107  1.00  0.00     0.179 C 
HETATM   10  O1  UNL     1      20.427   3.307  52.690  1.00  0.00    -0.288 OA
HETATM   11  C11 UNL     1      21.114   4.449  50.835  1.00  0.00     0.009 C 
HETATM   12  C12 UNL     1      21.788   5.062  49.877  1.00  0.00     0.023 C 
HETATM   13  C13 UNL     1      21.188   5.637  48.654  1.00  0.00     0.316 C 
HETATM   14  N4  UNL     1      19.777   5.889  48.961  1.00  0.00     0.088 N 
HETATM   15  C14 UNL     1      19.152   4.664  49.402  1.00  0.00     0.275 C 
HETATM   16  C15 UNL     1      19.640   4.269  50.779  1.00  0.00     0.074 C 
HETATM   17  S1  UNL     1      23.470   5.487  49.532  1.00  0.00    -0.072 SA
HETATM   18  H13 UNL     1      19.763   6.601  49.719  1.00  0.00     0.316 HD
ENDROOT
BRANCH   1  19
HETATM   19  N1  UNL     1      25.899   1.915  52.830  1.00  0.00    -0.365 N 
HETATM   20  H7  UNL     1      25.963   2.028  53.836  1.00  0.00     0.162 HD
BRANCH  19  21
HETATM   21  C3  UNL     1      25.911   0.497  52.612  1.00  0.00     0.116 C 
BRANCH  21  22
HETATM   22  C2  UNL     1      24.974  -0.297  53.477  1.00  0.00     0.025 C 
HETATM   23  C1  UNL     1      23.543  -0.090  53.040  1.00  0.00     0.007 C 
ENDBRANCH  21  22
BRANCH  21  24
HETATM   24  C16 UNL     1      27.295   0.018  52.971  1.00  0.00    -0.036 A 
HETATM   25  C17 UNL     1      28.331   0.819  53.425  1.00  0.00     0.009 A 
HETATM   26  C18 UNL     1      29.546   0.237  53.715  1.00  0.00     0.001 A 
HETATM   27  C19 UNL     1      29.735  -1.134  53.555  1.00  0.00     0.000 A 
HETATM   28  C20 UNL     1      28.716  -1.951  53.104  1.00  0.00     0.001 A 
HETATM   29  C21 UNL     1      27.509  -1.329  52.823  1.00  0.00     0.009 A 
ENDBRANCH  21  24
ENDBRANCH  19  21
ENDBRANCH   1  19
TORSDOF 4
ENDMDL
MODEL 5
REMARK VINA RESULT:      -8.8      1.545      2.400
REMARK  4 active torsions:
REMARK  status: ('A' for Active; 'I' for Inactive)
REMARK    1  A    between atoms: C2_2  and  C3_3 
REMARK    2  A    between atoms: C3_3  and  N1_4 
REMARK    3  A    between atoms: C3_3  and  C16_22 
REMARK    4  A    between atoms: N1_4  and  C4_5 
ROOT
HETATM    1  C4  UNL     1      24.333   4.675  51.119  1.00  0.00     0.138 A 
HETATM    2  N2  UNL     1      23.300   5.360  51.632  1.00  0.00    -0.224 NA
HETATM    3  C5  UNL     1      22.885   6.460  50.990  1.00  0.00     0.236 A 
HETATM    4  N3  UNL     1      23.407   6.966  49.859  1.00  0.00    -0.234 NA
HETATM    5  C6  UNL     1      24.431   6.314  49.322  1.00  0.00     0.113 A 
HETATM    6  C7  UNL     1      24.894   5.169  49.951  1.00  0.00     0.045 A 
HETATM    7  C8  UNL     1      25.967   4.229  49.619  1.00  0.00     0.022 C 
HETATM    8  C9  UNL     1      27.146   4.342  49.061  1.00  0.00     0.056 C 
HETATM    9  C10 UNL     1      27.960   5.417  48.507  1.00  0.00     0.179 C 
HETATM   10  O1  UNL     1      29.187   5.149  48.573  1.00  0.00    -0.288 OA
HETATM   11  C11 UNL     1      27.661   6.711  47.905  1.00  0.00     0.009 C 
HETATM   12  C12 UNL     1      26.579   7.428  47.650  1.00  0.00     0.023 C 
HETATM   13  C13 UNL     1      26.577   8.758  47.005  1.00  0.00     0.316 C 
HETATM   14  N4  UNL     1      27.828   8.856  46.248  1.00  0.00     0.088 N 
HETATM   15  C14 UNL     1      28.947   8.635  47.134  1.00  0.00     0.275 C 
HETATM   16  C15 UNL     1      29.026   7.184  47.558  1.00  0.00     0.074 C 
HETATM   17  S1  UNL     1      24.831   7.275  47.874  1.00  0.00    -0.072 SA
HETATM   18  H13 UNL     1      27.788   8.119  45.516  1.00  0.00     0.316 HD
ENDROOT
BRANCH   1  19
HETATM   19  N1  UNL     1      24.843   3.500  51.784  1.00  0.00    -0.365 N 
HETATM   20  H7  UNL     1      25.425   3.231  52.569  1.00  0.00     0.162 HD
BRANCH  19  21
HETATM   21  C3  UNL     1      24.406   2.264  51.202  1.00  0.00     0.116 C 
BRANCH  21  22
HETATM   22  C2  UNL     1      22.946   1.953  51.371  1.00  0.00     0.025 C 
HETATM   23  C1  UNL     1      22.302   1.679  50.032  1.00  0.00     0.007 C 
ENDBRANCH  21  22
BRANCH  21  24
HETATM   24  C16 UNL     1      25.139   1.164  51.927  1.00  0.00    -0.036 A 
HETATM   25  C17 UNL     1      26.459   0.798  51.709  1.00  0.00     0.009 A 
HETATM   26  C18 UNL     1      26.995  -0.232  52.450  1.00  0.00     0.001 A 
HETATM   27  C19 UNL     1      26.229  -0.898  53.405  1.00  0.00     0.000 A 
HETATM   28  C20 UNL     1      24.912  -0.548  53.639  1.00  0.00     0.001 A 
HETATM   29  C21 UNL     1      24.408   0.492  52.873  1.00  0.00     0.009 A 
ENDBRANCH  21  24
ENDBRANCH  19  21
ENDBRANCH   1  19
TORSDOF 4
ENDMDL
MODEL 6
REMARK VINA RESULT:      -8.8      2.468      4.135
REMARK  4 active torsions:
REMARK  status: ('A' for Active; 'I' for Inactive)
REMARK    1  A    between atoms: C2_2  and  C3_3 
REMARK    2  A    between atoms: C3_3  and  N1_4 
REMARK    3  A    between atoms: C3_3  and  C16_22 
REMARK    4  A    between atoms: N1_4  and  C4_5 
ROOT
HETATM    1  C4  UNL     1      24.893   5.094  50.502  1.00  0.00     0.138 A 
HETATM    2  N2  UNL     1      24.026   5.764  51.274  1.00  0.00    -0.224 NA
HETATM    3  C5  UNL     1      24.009   7.101  51.200  1.00  0.00     0.236 A 
HETATM    4  N3  UNL     1      24.789   7.864  50.415  1.00  0.00    -0.234 NA
HETATM    5  C6  UNL     1      25.661   7.236  49.636  1.00  0.00     0.113 A 
HETATM    6  C7  UNL     1      25.713   5.851  49.679  1.00  0.00     0.045 A 
HETATM    7  C8  UNL     1      26.527   4.874  48.953  1.00  0.00     0.022 C 
HETATM    8  C9  UNL     1      27.755   4.858  48.498  1.00  0.00     0.056 C 
HETATM    9  C10 UNL     1      28.893   5.769  48.484  1.00  0.00     0.179 C 
HETATM   10  O1  UNL     1      29.982   5.146  48.414  1.00  0.00    -0.288 OA
HETATM   11  C11 UNL     1      29.033   7.220  48.531  1.00  0.00     0.009 C 
HETATM   12  C12 UNL     1      28.227   8.263  48.633  1.00  0.00     0.023 C 
HETATM   13  C13 UNL     1      28.667   9.675  48.657  1.00  0.00     0.316 C 
HETATM   14  N4  UNL     1      29.985   9.711  48.018  1.00  0.00     0.088 N 
HETATM   15  C14 UNL     1      30.879   8.806  48.702  1.00  0.00     0.275 C 
HETATM   16  C15 UNL     1      30.509   7.365  48.427  1.00  0.00     0.074 C 
HETATM   17  S1  UNL     1      26.489   8.559  48.775  1.00  0.00    -0.072 SA
HETATM   18  H13 UNL     1      29.844   9.411  47.033  1.00  0.00     0.316 HD
ENDROOT
BRANCH   1  19
HETATM   19  N1  UNL     1      24.977   3.654  50.563  1.00  0.00    -0.365 N 
HETATM   20  H7  UNL     1      25.256   2.858  50.000  1.00  0.00     0.162 HD
BRANCH  19  21
HETATM   21  C3  UNL     1      24.555   3.098  51.815  1.00  0.00     0.116 C 
BRANCH  21  22
HETATM   22  C2  UNL     1      25.593   2.294  52.546  1.00  0.00     0.025 C 
HETATM   23  C1  UNL     1      26.786   2.033  51.657  1.00  0.00     0.007 C 
ENDBRANCH  21  22
BRANCH  21  24
HETATM   24  C16 UNL     1      23.442   2.129  51.503  1.00  0.00    -0.036 A 
HETATM   25  C17 UNL     1      22.710   2.098  50.326  1.00  0.00     0.009 A 
HETATM   26  C18 UNL     1      21.719   1.152  50.183  1.00  0.00     0.001 A 
HETATM   27  C19 UNL     1      21.453   0.238  51.202  1.00  0.00     0.000 A 
HETATM   28  C20 UNL     1      22.172   0.252  52.383  1.00  0.00     0.001 A 
HETATM   29  C21 UNL     1      23.160   1.218  52.489  1.00  0.00     0.009 A 
ENDBRANCH  21  24
ENDBRANCH  19  21
ENDBRANCH   1  19
TORSDOF 4
ENDMDL
MODEL 7
REMARK VINA RESULT:      -8.5      3.883      6.280
REMARK  4 active torsions:
REMARK  status: ('A' for Active; 'I' for Inactive)
REMARK    1  A    between atoms: C2_2  and  C3_3 
REMARK    2  A    between atoms: C3_3  and  N1_4 
REMARK    3  A    between atoms: C3_3  and  C16_22 
REMARK    4  A    between atoms: N1_4  and  C4_5 
ROOT
HETATM    1  C4  UNL     1      24.201   2.157  51.788  1.00  0.00     0.138 A 
HETATM    2  N2  UNL     1      24.873   2.672  50.748  1.00  0.00    -0.224 NA
HETATM    3  C5  UNL     1      24.172   3.225  49.748  1.00  0.00     0.236 A 
HETATM    4  N3  UNL     1      22.833   3.319  49.673  1.00  0.00    -0.234 NA
HETATM    5  C6  UNL     1      22.135   2.820  50.685  1.00  0.00     0.113 A 
HETATM    6  C7  UNL     1      22.818   2.239  51.743  1.00  0.00     0.045 A 
HETATM    7  C8  UNL     1      22.361   1.627  52.991  1.00  0.00     0.022 C 
HETATM    8  C9  UNL     1      21.318   0.914  53.337  1.00  0.00     0.056 C 
HETATM    9  C10 UNL     1      20.127   0.389  52.681  1.00  0.00     0.179 C 
HETATM   10  O1  UNL     1      19.701  -0.644  53.256  1.00  0.00    -0.288 OA
HETATM   11  C11 UNL     1      19.340   0.799  51.524  1.00  0.00     0.009 C 
HETATM   12  C12 UNL     1      19.394   1.756  50.612  1.00  0.00     0.023 C 
HETATM   13  C13 UNL     1      18.421   1.934  49.513  1.00  0.00     0.316 C 
HETATM   14  N4  UNL     1      17.187   1.268  49.937  1.00  0.00     0.088 N 
HETATM   15  C14 UNL     1      17.467  -0.113  50.254  1.00  0.00     0.275 C 
HETATM   16  C15 UNL     1      18.263  -0.225  51.537  1.00  0.00     0.074 C 
HETATM   17  S1  UNL     1      20.440   3.127  50.222  1.00  0.00    -0.072 SA
HETATM   18  H13 UNL     1      16.851   1.777  50.779  1.00  0.00     0.316 HD
ENDROOT
BRANCH   1  19
HETATM   19  N1  UNL     1      24.902   1.523  52.878  1.00  0.00    -0.365 N 
HETATM   20  H7  UNL     1      25.058   1.619  53.875  1.00  0.00     0.162 HD
BRANCH  19  21
HETATM   21  C3  UNL     1      25.630   0.347  52.498  1.00  0.00     0.116 C 
BRANCH  21  22
HETATM   22  C2  UNL     1      25.156  -0.934  53.124  1.00  0.00     0.025 C 
HETATM   23  C1  UNL     1      24.745  -0.706  54.558  1.00  0.00     0.007 C 
ENDBRANCH  21  22
BRANCH  21  24
HETATM   24  C16 UNL     1      27.043   0.537  52.989  1.00  0.00    -0.036 A 
HETATM   25  C17 UNL     1      27.979  -0.473  53.158  1.00  0.00     0.009 A 
HETATM   26  C18 UNL     1      29.236  -0.146  53.616  1.00  0.00     0.001 A 
HETATM   27  C19 UNL     1      29.567   1.176  53.906  1.00  0.00     0.000 A 
HETATM   28  C20 UNL     1      28.650   2.198  53.745  1.00  0.00     0.001 A 
HETATM   29  C21 UNL     1      27.396   1.830  53.282  1.00  0.00     0.009 A 
ENDBRANCH  21  24
ENDBRANCH  19  21
ENDBRANCH   1  19
TORSDOF 4
ENDMDL
MODEL 8
REMARK VINA RESULT:      -8.5      4.562      6.130
REMARK  4 active torsions:
REMARK  status: ('A' for Active; 'I' for Inactive)
REMARK    1  A    between atoms: C2_2  and  C3_3 
REMARK    2  A    between atoms: C3_3  and  N1_4 
REMARK    3  A    between atoms: C3_3  and  C16_22 
REMARK    4  A    between atoms: N1_4  and  C4_5 
ROOT
HETATM    1  C4  UNL     1      22.792   0.070  52.785  1.00  0.00     0.138 A 
HETATM    2  N2  UNL     1      22.604  -0.632  53.912  1.00  0.00    -0.224 NA
HETATM    3  C5  UNL     1      21.353  -0.969  54.252  1.00  0.00     0.236 A 
HETATM    4  N3  UNL     1      20.236  -0.670  53.566  1.00  0.00    -0.234 NA
HETATM    5  C6  UNL     1      20.382   0.024  52.445  1.00  0.00     0.113 A 
HETATM    6  C7  UNL     1      21.659   0.394  52.054  1.00  0.00     0.045 A 
HETATM    7  C8  UNL     1      22.158   1.129  50.890  1.00  0.00     0.022 C 
HETATM    8  C9  UNL     1      21.701   2.119  50.164  1.00  0.00     0.056 C 
HETATM    9  C10 UNL     1      20.511   2.960  50.145  1.00  0.00     0.179 C 
HETATM   10  O1  UNL     1      20.744   4.080  49.625  1.00  0.00    -0.288 OA
HETATM   11  C11 UNL     1      19.134   2.782  50.592  1.00  0.00     0.009 C 
HETATM   12  C12 UNL     1      18.432   1.839  51.199  1.00  0.00     0.023 C 
HETATM   13  C13 UNL     1      16.996   1.938  51.539  1.00  0.00     0.316 C 
HETATM   14  N4  UNL     1      16.423   2.941  50.637  1.00  0.00     0.088 N 
HETATM   15  C14 UNL     1      17.146   4.184  50.774  1.00  0.00     0.275 C 
HETATM   16  C15 UNL     1      18.532   4.076  50.176  1.00  0.00     0.074 C 
HETATM   17  S1  UNL     1      18.713   0.218  51.847  1.00  0.00    -0.072 SA
HETATM   18  H13 UNL     1      16.524   2.563  49.674  1.00  0.00     0.316 HD
ENDROOT
BRANCH   1  19
HETATM   19  N1  UNL     1      24.114   0.486  52.386  1.00  0.00    -0.365 N 
HETATM   20  H7  UNL     1      24.679   0.621  51.555  1.00  0.00     0.162 HD
BRANCH  19  21
HETATM   21  C3  UNL     1      24.961   0.867  53.479  1.00  0.00     0.116 C 
BRANCH  21  22
HETATM   22  C2  UNL     1      25.423   2.296  53.469  1.00  0.00     0.025 C 
HETATM   23  C1  UNL     1      24.289   3.219  53.092  1.00  0.00     0.007 C 
ENDBRANCH  21  22
BRANCH  21  24
HETATM   24  C16 UNL     1      26.214   0.037  53.363  1.00  0.00    -0.036 A 
HETATM   25  C17 UNL     1      26.305  -1.202  52.746  1.00  0.00     0.009 A 
HETATM   26  C18 UNL     1      27.523  -1.845  52.718  1.00  0.00     0.001 A 
HETATM   27  C19 UNL     1      28.649  -1.264  53.297  1.00  0.00     0.000 A 
HETATM   28  C20 UNL     1      28.582  -0.029  53.916  1.00  0.00     0.001 A 
HETATM   29  C21 UNL     1      27.339   0.586  53.925  1.00  0.00     0.009 A 
ENDBRANCH  21  24
ENDBRANCH  19  21
ENDBRANCH   1  19
TORSDOF 4
ENDMDL
MODEL 9
REMARK VINA RESULT:      -8.4      4.386      7.685
REMARK  4 active torsions:
REMARK  status: ('A' for Active; 'I' for Inactive)
REMARK    1  A    between atoms: C2_2  and  C3_3 
REMARK    2  A    between atoms: C3_3  and  N1_4 
REMARK    3  A    between atoms: C3_3  and  C16_22 
REMARK    4  A    between atoms: N1_4  and  C4_5 
ROOT
HETATM    1  C4  UNL     1      28.180   8.428  49.039  1.00  0.00     0.138 A 
HETATM    2  N2  UNL     1      27.902   9.713  49.305  1.00  0.00    -0.224 NA
HETATM    3  C5  UNL     1      28.786  10.646  48.928  1.00  0.00     0.236 A 
HETATM    4  N3  UNL     1      29.952  10.428  48.295  1.00  0.00    -0.234 NA
HETATM    5  C6  UNL     1      30.261   9.168  48.016  1.00  0.00     0.113 A 
HETATM    6  C7  UNL     1      29.376   8.168  48.387  1.00  0.00     0.045 A 
HETATM    7  C8  UNL     1      29.405   6.714  48.215  1.00  0.00     0.022 C 
HETATM    8  C9  UNL     1      30.350   5.808  48.211  1.00  0.00     0.056 C 
HETATM    9  C10 UNL     1      31.799   5.786  48.369  1.00  0.00     0.179 C 
HETATM   10  O1  UNL     1      32.200   4.679  48.810  1.00  0.00    -0.288 OA
HETATM   11  C11 UNL     1      32.863   6.756  48.129  1.00  0.00     0.009 C 
HETATM   12  C12 UNL     1      32.948   8.010  47.718  1.00  0.00     0.023 C 
HETATM   13  C13 UNL     1      34.209   8.767  47.565  1.00  0.00     0.316 C 
HETATM   14  N4  UNL     1      35.275   7.774  47.411  1.00  0.00     0.088 N 
HETATM   15  C14 UNL     1      35.264   6.873  48.540  1.00  0.00     0.275 C 
HETATM   16  C15 UNL     1      34.062   5.956  48.493  1.00  0.00     0.074 C 
HETATM   17  S1  UNL     1      31.843   9.291  47.202  1.00  0.00    -0.072 SA
HETATM   18  H13 UNL     1      35.074   7.260  46.530  1.00  0.00     0.316 HD
ENDROOT
BRANCH   1  19
HETATM   19  N1  UNL     1      27.280   7.378  49.449  1.00  0.00    -0.365 N 
HETATM   20  H7  UNL     1      26.992   6.868  50.277  1.00  0.00     0.162 HD
BRANCH  19  21
HETATM   21  C3  UNL     1      26.483   6.843  48.384  1.00  0.00     0.116 C 
BRANCH  21  22
HETATM   22  C2  UNL     1      25.249   7.629  48.043  1.00  0.00     0.025 C 
HETATM   23  C1  UNL     1      25.346   8.190  46.645  1.00  0.00     0.007 C 
ENDBRANCH  21  22
BRANCH  21  24
HETATM   24  C16 UNL     1      25.987   5.497  48.851  1.00  0.00    -0.036 A 
HETATM   25  C17 UNL     1      26.789   4.421  49.200  1.00  0.00     0.009 A 
HETATM   26  C18 UNL     1      26.191   3.250  49.610  1.00  0.00     0.001 A 
HETATM   27  C19 UNL     1      24.803   3.143  49.675  1.00  0.00     0.000 A 
HETATM   28  C20 UNL     1      23.985   4.203  49.331  1.00  0.00     0.001 A 
HETATM   29  C21 UNL     1      24.623   5.364  48.924  1.00  0.00     0.009 A 
ENDBRANCH  21  24
ENDBRANCH  19  21
ENDBRANCH   1  19
TORSDOF 4
ENDMDL
