MODEL 1
REMARK VINA RESULT:      -8.2      0.000      0.000
REMARK  5 active torsions:
REMARK  status: ('A' for Active; 'I' for Inactive)
REMARK    1  A    between atoms: N1_1  and  C1_2 
REMARK    2  A    between atoms: C1_2  and  N2_4 
REMARK    3  A    between atoms: C2_5  and  C3_6 
REMARK    4  A    between atoms: C2_5  and  C11_15 
REMARK    5  A    between atoms: C4_7  and  C5_8 
ROOT
HETATM    1  N2  UNL     1      23.168   2.366  52.418  1.00  0.00    -0.224 NA
HETATM    2  C2  UNL     1      23.791   1.249  52.818  1.00  0.00     0.053 C 
ENDROOT
BRANCH   2   3
HETATM    3  C3  UNL     1      25.112   0.558  52.976  1.00  0.00     0.086 C 
HETATM    4  C4  UNL     1      26.140   0.658  52.082  1.00  0.00     0.017 C 
BRANCH   4   5
HETATM    5  C5  UNL     1      27.263  -0.164  52.592  1.00  0.00    -0.040 A 
HETATM    6  C6  UNL     1      27.349  -1.539  52.491  1.00  0.00     0.008 A 
HETATM    7  C7  UNL     1      28.367  -2.332  52.948  1.00  0.00     0.001 A 
HETATM    8  C8  UNL     1      29.426  -1.743  53.575  1.00  0.00     0.001 A 
HETATM    9  C9  UNL     1      29.444  -0.379  53.730  1.00  0.00     0.019 A 
HETATM   10  C10 UNL     1      28.379   0.338  53.240  1.00  0.00     0.017 A 
HETATM   11 BR1  UNL     1      28.477   2.235  53.494  1.00  0.00    -0.051 Br
ENDBRANCH   4   5
ENDBRANCH   2   3
BRANCH   2  12
HETATM   12  C11 UNL     1      22.736   0.323  53.296  1.00  0.00    -0.011 A 
HETATM   13  C12 UNL     1      22.896  -0.793  54.099  1.00  0.00     0.013 A 
HETATM   14  C13 UNL     1      21.946  -1.666  54.557  1.00  0.00     0.001 A 
HETATM   15  C14 UNL     1      20.658  -1.421  54.182  1.00  0.00     0.000 A 
HETATM   16  C15 UNL     1      20.348  -0.348  53.385  1.00  0.00     0.001 A 
HETATM   17  C16 UNL     1      21.381   0.457  52.988  1.00  0.00     0.013 A 
ENDBRANCH   2  12
BRANCH   1  18
HETATM   18  C1  UNL     1      23.948   3.439  51.906  1.00  0.00     0.191 C 
HETATM   19  S1  UNL     1      22.886   4.593  52.375  1.00  0.00    -0.039 SA
BRANCH  18  20
HETATM   20  N1  UNL     1      25.094   4.002  51.241  1.00  0.00    -0.375 N 
HETATM   21  H1  UNL     1      25.786   4.418  51.909  1.00  0.00     0.158 HD
HETATM   22  H2  UNL     1      24.687   3.721  50.334  1.00  0.00     0.158 HD
ENDBRANCH  18  20
ENDBRANCH   1  18
TORSDOF 5
ENDMDL
MODEL 2
REMARK VINA RESULT:      -7.9      2.318      5.988
REMARK  5 active torsions:
REMARK  status: ('A' for Active; 'I' for Inactive)
REMARK    1  A    between atoms: N1_1  and  C1_2 
REMARK    2  A    between atoms: C1_2  and  N2_4 
REMARK    3  A    between atoms: C2_5  and  C3_6 
REMARK    4  A    between atoms: C2_5  and  C11_15 
REMARK    5  A    between atoms: C4_7  and  C5_8 
ROOT
HETATM    1  N2  UNL     1      26.772   2.419  51.648  1.00  0.00    -0.224 NA
HETATM    2  C2  UNL     1      26.247   1.380  52.313  1.00  0.00     0.053 C 
ENDROOT
BRANCH   2   3
HETATM    3  C3  UNL     1      24.984   0.727  52.788  1.00  0.00     0.086 C 
HETATM    4  C4  UNL     1      23.768   0.884  52.187  1.00  0.00     0.017 C 
BRANCH   4   5
HETATM    5  C5  UNL     1      22.782   0.082  52.950  1.00  0.00    -0.040 A 
HETATM    6  C6  UNL     1      23.059  -0.630  54.100  1.00  0.00     0.008 A 
HETATM    7  C7  UNL     1      22.179  -1.379  54.833  1.00  0.00     0.001 A 
HETATM    8  C8  UNL     1      20.881  -1.459  54.418  1.00  0.00     0.001 A 
HETATM    9  C9  UNL     1      20.495  -0.788  53.284  1.00  0.00     0.019 A 
HETATM   10  C10 UNL     1      21.447  -0.059  52.612  1.00  0.00     0.017 A 
HETATM   11 BR1  UNL     1      20.831   0.848  51.041  1.00  0.00    -0.051 Br
ENDBRANCH   4   5
ENDBRANCH   2   3
BRANCH   2  12
HETATM   12  C11 UNL     1      27.386   0.539  52.755  1.00  0.00    -0.011 A 
HETATM   13  C12 UNL     1      27.461  -0.843  52.759  1.00  0.00     0.013 A 
HETATM   14  C13 UNL     1      28.494  -1.646  53.158  1.00  0.00     0.001 A 
HETATM   15  C14 UNL     1      29.614  -1.020  53.620  1.00  0.00     0.000 A 
HETATM   16  C15 UNL     1      29.683   0.349  53.675  1.00  0.00     0.001 A 
HETATM   17  C16 UNL     1      28.588   1.051  53.248  1.00  0.00     0.013 A 
ENDBRANCH   2  12
BRANCH   1  18
HETATM   18  C1  UNL     1      25.896   3.399  51.105  1.00  0.00     0.191 C 
HETATM   19  S1  UNL     1      26.524   3.299  49.598  1.00  0.00    -0.039 SA
BRANCH  18  20
HETATM   20  N1  UNL     1      24.827   4.360  51.180  1.00  0.00    -0.375 N 
HETATM   21  H1  UNL     1      25.115   5.251  51.649  1.00  0.00     0.158 HD
HETATM   22  H2  UNL     1      24.208   3.686  50.700  1.00  0.00     0.158 HD
ENDBRANCH  18  20
ENDBRANCH   1  18
TORSDOF 5
ENDMDL
MODEL 3
REMARK VINA RESULT:      -7.8      1.470      1.966
REMARK  5 active torsions:
REMARK  status: ('A' for Active; 'I' for Inactive)
REMARK    1  A    between atoms: N1_1  and  C1_2 
REMARK    2  A    between atoms: C1_2  and  N2_4 
REMARK    3  A    between atoms: C2_5  and  C3_6 
REMARK    4  A    between atoms: C2_5  and  C11_15 
REMARK    5  A    between atoms: C4_7  and  C5_8 
ROOT
HETATM    1  N2  UNL     1      22.413   2.355  51.645  1.00  0.00    -0.224 NA
HETATM    2  C2  UNL     1      23.288   1.644  52.371  1.00  0.00     0.053 C 
ENDROOT
BRANCH   2   3
HETATM    3  C3  UNL     1      24.724   1.485  52.768  1.00  0.00     0.086 C 
HETATM    4  C4  UNL     1      25.724   1.138  51.904  1.00  0.00     0.017 C 
BRANCH   4   5
HETATM    5  C5  UNL     1      26.989   1.086  52.675  1.00  0.00    -0.040 A 
HETATM    6  C6  UNL     1      27.691   2.190  53.120  1.00  0.00     0.008 A 
HETATM    7  C7  UNL     1      28.858   2.185  53.833  1.00  0.00     0.001 A 
HETATM    8  C8  UNL     1      29.423   0.986  54.159  1.00  0.00     0.001 A 
HETATM    9  C9  UNL     1      28.808  -0.177  53.766  1.00  0.00     0.019 A 
HETATM   10  C10 UNL     1      27.637  -0.076  53.053  1.00  0.00     0.017 A 
HETATM   11 BR1  UNL     1      26.840  -1.742  52.542  1.00  0.00    -0.051 Br
ENDBRANCH   4   5
ENDBRANCH   2   3
BRANCH   2  12
HETATM   12  C11 UNL     1      22.508   0.586  53.058  1.00  0.00    -0.011 A 
HETATM   13  C12 UNL     1      22.988  -0.398  53.905  1.00  0.00     0.013 A 
HETATM   14  C13 UNL     1      22.298  -1.385  54.553  1.00  0.00     0.001 A 
HETATM   15  C14 UNL     1      20.950  -1.425  54.351  1.00  0.00     0.000 A 
HETATM   16  C15 UNL     1      20.333  -0.511  53.534  1.00  0.00     0.001 A 
HETATM   17  C16 UNL     1      21.126   0.433  52.938  1.00  0.00     0.013 A 
ENDBRANCH   2  12
BRANCH   1  18
HETATM   18  C1  UNL     1      22.893   3.448  50.873  1.00  0.00     0.191 C 
HETATM   19  S1  UNL     1      22.372   4.581  51.933  1.00  0.00    -0.039 SA
BRANCH  18  20
HETATM   20  N1  UNL     1      23.546   4.038  49.734  1.00  0.00    -0.375 N 
HETATM   21  H1  UNL     1      23.435   3.468  48.862  1.00  0.00     0.158 HD
HETATM   22  H2  UNL     1      23.855   4.819  50.335  1.00  0.00     0.158 HD
ENDBRANCH  18  20
ENDBRANCH   1  18
TORSDOF 5
ENDMDL
MODEL 4
REMARK VINA RESULT:      -7.6      2.140      5.859
REMARK  5 active torsions:
REMARK  status: ('A' for Active; 'I' for Inactive)
REMARK    1  A    between atoms: N1_1  and  C1_2 
REMARK    2  A    between atoms: C1_2  and  N2_4 
REMARK    3  A    between atoms: C2_5  and  C3_6 
REMARK    4  A    between atoms: C2_5  and  C11_15 
REMARK    5  A    between atoms: C4_7  and  C5_8 
ROOT
HETATM    1  N2  UNL     1      26.390   2.523  50.781  1.00  0.00    -0.224 NA
HETATM    2  C2  UNL     1      25.838   1.639  51.623  1.00  0.00     0.053 C 
ENDROOT
BRANCH   2   3
HETATM    3  C3  UNL     1      24.558   1.033  52.116  1.00  0.00     0.086 C 
HETATM    4  C4  UNL     1      23.993   1.316  53.326  1.00  0.00     0.017 C 
BRANCH   4   5
HETATM    5  C5  UNL     1      22.746   0.522  53.439  1.00  0.00    -0.040 A 
HETATM    6  C6  UNL     1      21.568   0.797  52.771  1.00  0.00     0.008 A 
HETATM    7  C7  UNL     1      20.399   0.091  52.847  1.00  0.00     0.001 A 
HETATM    8  C8  UNL     1      20.348  -1.008  53.656  1.00  0.00     0.001 A 
HETATM    9  C9  UNL     1      21.464  -1.373  54.367  1.00  0.00     0.019 A 
HETATM   10  C10 UNL     1      22.595  -0.604  54.229  1.00  0.00     0.017 A 
HETATM   11 BR1  UNL     1      24.110  -1.177  55.252  1.00  0.00    -0.051 Br
ENDBRANCH   4   5
ENDBRANCH   2   3
BRANCH   2  12
HETATM   12  C11 UNL     1      26.954   1.006  52.366  1.00  0.00    -0.011 A 
HETATM   13  C12 UNL     1      27.992   1.640  53.027  1.00  0.00     0.013 A 
HETATM   14  C13 UNL     1      29.035   1.086  53.719  1.00  0.00     0.001 A 
HETATM   15  C14 UNL     1      29.077  -0.275  53.780  1.00  0.00     0.000 A 
HETATM   16  C15 UNL     1      28.112  -1.037  53.170  1.00  0.00     0.001 A 
HETATM   17  C16 UNL     1      27.116  -0.374  52.505  1.00  0.00     0.013 A 
ENDBRANCH   2  12
BRANCH   1  18
HETATM   18  C1  UNL     1      25.539   3.285  49.933  1.00  0.00     0.191 C 
HETATM   19  S1  UNL     1      26.755   4.204  49.338  1.00  0.00    -0.039 SA
BRANCH  18  20
HETATM   20  N1  UNL     1      24.266   3.644  49.365  1.00  0.00    -0.375 N 
HETATM   21  H1  UNL     1      23.622   4.088  50.063  1.00  0.00     0.158 HD
HETATM   22  H2  UNL     1      24.585   3.275  48.455  1.00  0.00     0.158 HD
ENDBRANCH  18  20
ENDBRANCH   1  18
TORSDOF 5
ENDMDL
MODEL 5
REMARK VINA RESULT:      -7.5      3.760      6.429
REMARK  5 active torsions:
REMARK  status: ('A' for Active; 'I' for Inactive)
REMARK    1  A    between atoms: N1_1  and  C1_2 
REMARK    2  A    between atoms: C1_2  and  N2_4 
REMARK    3  A    between atoms: C2_5  and  C3_6 
REMARK    4  A    between atoms: C2_5  and  C11_15 
REMARK    5  A    between atoms: C4_7  and  C5_8 
ROOT
HETATM    1  N2  UNL     1      24.704   1.338  51.872  1.00  0.00    -0.224 NA
HETATM    2  C2  UNL     1      25.784   2.071  51.565  1.00  0.00     0.053 C 
ENDROOT
BRANCH   2   3
HETATM    3  C3  UNL     1      26.317   3.199  50.735  1.00  0.00     0.086 C 
HETATM    4  C4  UNL     1      25.875   3.502  49.479  1.00  0.00     0.017 C 
BRANCH   4   5
HETATM    5  C5  UNL     1      26.645   4.673  48.999  1.00  0.00    -0.040 A 
HETATM    6  C6  UNL     1      27.979   4.652  48.643  1.00  0.00     0.008 A 
HETATM    7  C7  UNL     1      28.725   5.708  48.195  1.00  0.00     0.001 A 
HETATM    8  C8  UNL     1      28.126   6.929  48.075  1.00  0.00     0.001 A 
HETATM    9  C9  UNL     1      26.800   7.064  48.402  1.00  0.00     0.019 A 
HETATM   10  C10 UNL     1      26.129   5.948  48.843  1.00  0.00     0.017 A 
HETATM   11 BR1  UNL     1      24.283   6.217  49.279  1.00  0.00    -0.051 Br
ENDBRANCH   4   5
ENDBRANCH   2   3
BRANCH   2  12
HETATM   12  C11 UNL     1      26.901   1.545  52.387  1.00  0.00    -0.011 A 
HETATM   13  C12 UNL     1      27.850   2.273  53.083  1.00  0.00     0.013 A 
HETATM   14  C13 UNL     1      28.890   1.820  53.848  1.00  0.00     0.001 A 
HETATM   15  C14 UNL     1      29.030   0.468  53.952  1.00  0.00     0.000 A 
HETATM   16  C15 UNL     1      28.161  -0.382  53.315  1.00  0.00     0.001 A 
HETATM   17  C16 UNL     1      27.157   0.186  52.577  1.00  0.00     0.013 A 
ENDBRANCH   2  12
BRANCH   1  18
HETATM   18  C1  UNL     1      23.473   1.628  51.223  1.00  0.00     0.191 C 
HETATM   19  S1  UNL     1      22.925   2.588  52.430  1.00  0.00    -0.039 SA
BRANCH  18  20
HETATM   20  N1  UNL     1      22.526   1.528  50.143  1.00  0.00    -0.375 N 
HETATM   21  H1  UNL     1      21.536   1.446  50.479  1.00  0.00     0.158 HD
HETATM   22  H2  UNL     1      23.308   1.587  49.472  1.00  0.00     0.158 HD
ENDBRANCH  18  20
ENDBRANCH   1  18
TORSDOF 5
ENDMDL
MODEL 6
REMARK VINA RESULT:      -7.4      3.436      6.042
REMARK  5 active torsions:
REMARK  status: ('A' for Active; 'I' for Inactive)
REMARK    1  A    between atoms: N1_1  and  C1_2 
REMARK    2  A    between atoms: C1_2  and  N2_4 
REMARK    3  A    between atoms: C2_5  and  C3_6 
REMARK    4  A    between atoms: C2_5  and  C11_15 
REMARK    5  A    between atoms: C4_7  and  C5_8 
ROOT
HETATM    1  N2  UNL     1      24.029   3.293  49.273  1.00  0.00    -0.224 NA
HETATM    2  C2  UNL     1      25.197   3.320  49.929  1.00  0.00     0.053 C 
ENDROOT
BRANCH   2   3
HETATM    3  C3  UNL     1      26.020   2.693  51.014  1.00  0.00     0.086 C 
HETATM    4  C4  UNL     1      25.582   2.498  52.293  1.00  0.00     0.017 C 
BRANCH   4   5
HETATM    5  C5  UNL     1      26.680   1.857  53.054  1.00  0.00    -0.040 A 
HETATM    6  C6  UNL     1      27.942   2.392  53.226  1.00  0.00     0.008 A 
HETATM    7  C7  UNL     1      28.981   1.834  53.920  1.00  0.00     0.001 A 
HETATM    8  C8  UNL     1      28.793   0.622  54.520  1.00  0.00     0.001 A 
HETATM    9  C9  UNL     1      27.574  -0.001  54.412  1.00  0.00     0.019 A 
HETATM   10  C10 UNL     1      26.588   0.635  53.696  1.00  0.00     0.017 A 
HETATM   11 BR1  UNL     1      24.917  -0.297  53.592  1.00  0.00    -0.051 Br
ENDBRANCH   4   5
ENDBRANCH   2   3
BRANCH   2  12
HETATM   12  C11 UNL     1      25.994   4.420  49.335  1.00  0.00    -0.011 A 
HETATM   13  C12 UNL     1      25.557   5.691  49.001  1.00  0.00     0.013 A 
HETATM   14  C13 UNL     1      26.265   6.726  48.453  1.00  0.00     0.001 A 
HETATM   15  C14 UNL     1      27.583   6.496  48.190  1.00  0.00     0.000 A 
HETATM   16  C15 UNL     1      28.155   5.280  48.468  1.00  0.00     0.001 A 
HETATM   17  C16 UNL     1      27.349   4.319  49.017  1.00  0.00     0.013 A 
ENDBRANCH   2  12
BRANCH   1  18
HETATM   18  C1  UNL     1      23.058   2.322  49.641  1.00  0.00     0.191 C 
HETATM   19  S1  UNL     1      22.210   2.467  48.249  1.00  0.00    -0.039 SA
BRANCH  18  20
HETATM   20  N1  UNL     1      22.473   1.351  50.528  1.00  0.00    -0.375 N 
HETATM   21  H1  UNL     1      22.984   1.275  51.439  1.00  0.00     0.158 HD
HETATM   22  H2  UNL     1      21.757   1.149  49.811  1.00  0.00     0.158 HD
ENDBRANCH  18  20
ENDBRANCH   1  18
TORSDOF 5
ENDMDL
MODEL 7
REMARK VINA RESULT:      -7.3      3.088      5.242
REMARK  5 active torsions:
REMARK  status: ('A' for Active; 'I' for Inactive)
REMARK    1  A    between atoms: N1_1  and  C1_2 
REMARK    2  A    between atoms: C1_2  and  N2_4 
REMARK    3  A    between atoms: C2_5  and  C3_6 
REMARK    4  A    between atoms: C2_5  and  C11_15 
REMARK    5  A    between atoms: C4_7  and  C5_8 
ROOT
HETATM    1  N2  UNL     1      25.285  -0.267  54.186  1.00  0.00    -0.224 NA
HETATM    2  C2  UNL     1      24.534   0.461  53.349  1.00  0.00     0.053 C 
ENDROOT
BRANCH   2   3
HETATM    3  C3  UNL     1      24.527   1.567  52.337  1.00  0.00     0.086 C 
HETATM    4  C4  UNL     1      24.577   2.895  52.654  1.00  0.00     0.017 C 
BRANCH   4   5
HETATM    5  C5  UNL     1      24.552   3.662  51.386  1.00  0.00    -0.040 A 
HETATM    6  C6  UNL     1      25.603   3.753  50.494  1.00  0.00     0.008 A 
HETATM    7  C7  UNL     1      25.621   4.447  49.315  1.00  0.00     0.001 A 
HETATM    8  C8  UNL     1      24.503   5.139  48.945  1.00  0.00     0.001 A 
HETATM    9  C9  UNL     1      23.398   5.117  49.759  1.00  0.00     0.019 A 
HETATM   10  C10 UNL     1      23.471   4.392  50.924  1.00  0.00     0.017 A 
HETATM   11 BR1  UNL     1      21.889   4.411  52.005  1.00  0.00    -0.051 Br
ENDBRANCH   4   5
ENDBRANCH   2   3
BRANCH   2  12
HETATM   12  C11 UNL     1      23.143  -0.035  53.486  1.00  0.00    -0.011 A 
HETATM   13  C12 UNL     1      22.041   0.328  52.731  1.00  0.00     0.013 A 
HETATM   14  C13 UNL     1      20.748  -0.111  52.831  1.00  0.00     0.001 A 
HETATM   15  C14 UNL     1      20.487  -1.031  53.803  1.00  0.00     0.000 A 
HETATM   16  C15 UNL     1      21.484  -1.485  54.630  1.00  0.00     0.001 A 
HETATM   17  C16 UNL     1      22.740  -0.975  54.436  1.00  0.00     0.013 A 
ENDBRANCH   2  12
BRANCH   1  18
HETATM   18  C1  UNL     1      26.680  -0.002  54.261  1.00  0.00     0.191 C 
HETATM   19  S1  UNL     1      27.057  -0.990  53.012  1.00  0.00    -0.039 SA
BRANCH  18  20
HETATM   20  N1  UNL     1      27.847   0.631  54.817  1.00  0.00    -0.375 N 
HETATM   21  H1  UNL     1      28.418   1.133  54.096  1.00  0.00     0.158 HD
HETATM   22  H2  UNL     1      27.577   0.277  55.749  1.00  0.00     0.158 HD
ENDBRANCH  18  20
ENDBRANCH   1  18
TORSDOF 5
ENDMDL
MODEL 8
REMARK VINA RESULT:      -7.3      1.768      2.319
REMARK  5 active torsions:
REMARK  status: ('A' for Active; 'I' for Inactive)
REMARK    1  A    between atoms: N1_1  and  C1_2 
REMARK    2  A    between atoms: C1_2  and  N2_4 
REMARK    3  A    between atoms: C2_5  and  C3_6 
REMARK    4  A    between atoms: C2_5  and  C11_15 
REMARK    5  A    between atoms: C4_7  and  C5_8 
ROOT
HETATM    1  N2  UNL     1      24.284   3.524  50.263  1.00  0.00    -0.224 NA
HETATM    2  C2  UNL     1      24.469   2.324  50.830  1.00  0.00     0.053 C 
ENDROOT
BRANCH   2   3
HETATM    3  C3  UNL     1      25.470   1.375  51.417  1.00  0.00     0.086 C 
HETATM    4  C4  UNL     1      26.015   1.510  52.662  1.00  0.00     0.017 C 
BRANCH   4   5
HETATM    5  C5  UNL     1      26.952   0.380  52.869  1.00  0.00    -0.040 A 
HETATM    6  C6  UNL     1      26.666  -0.945  52.602  1.00  0.00     0.008 A 
HETATM    7  C7  UNL     1      27.501  -2.015  52.778  1.00  0.00     0.001 A 
HETATM    8  C8  UNL     1      28.756  -1.794  53.268  1.00  0.00     0.001 A 
HETATM    9  C9  UNL     1      29.146  -0.512  53.567  1.00  0.00     0.019 A 
HETATM   10  C10 UNL     1      28.240   0.501  53.358  1.00  0.00     0.017 A 
HETATM   11 BR1  UNL     1      28.858   2.260  53.800  1.00  0.00    -0.051 Br
ENDBRANCH   4   5
ENDBRANCH   2   3
BRANCH   2  12
HETATM   12  C11 UNL     1      23.136   1.679  50.903  1.00  0.00    -0.011 A 
HETATM   13  C12 UNL     1      22.562   1.053  51.996  1.00  0.00     0.013 A 
HETATM   14  C13 UNL     1      21.337   0.450  52.096  1.00  0.00     0.001 A 
HETATM   15  C14 UNL     1      20.559   0.454  50.976  1.00  0.00     0.000 A 
HETATM   16  C15 UNL     1      20.999   1.038  49.815  1.00  0.00     0.001 A 
HETATM   17  C16 UNL     1      22.242   1.612  49.833  1.00  0.00     0.013 A 
ENDBRANCH   2  12
BRANCH   1  18
HETATM   18  C1  UNL     1      25.410   4.370  50.066  1.00  0.00     0.191 C 
HETATM   19  S1  UNL     1      24.605   5.736  50.472  1.00  0.00    -0.039 SA
BRANCH  18  20
HETATM   20  N1  UNL     1      26.782   4.636  49.724  1.00  0.00    -0.375 N 
HETATM   21  H1  UNL     1      27.163   5.484  50.207  1.00  0.00     0.158 HD
HETATM   22  H2  UNL     1      26.773   3.808  49.107  1.00  0.00     0.158 HD
ENDBRANCH  18  20
ENDBRANCH   1  18
TORSDOF 5
ENDMDL
MODEL 9
REMARK VINA RESULT:      -7.2      3.865      5.902
REMARK  5 active torsions:
REMARK  status: ('A' for Active; 'I' for Inactive)
REMARK    1  A    between atoms: N1_1  and  C1_2 
REMARK    2  A    between atoms: C1_2  and  N2_4 
REMARK    3  A    between atoms: C2_5  and  C3_6 
REMARK    4  A    between atoms: C2_5  and  C11_15 
REMARK    5  A    between atoms: C4_7  and  C5_8 
ROOT
HETATM    1  N2  UNL     1      22.924   3.253  51.976  1.00  0.00    -0.224 NA
HETATM    2  C2  UNL     1      24.163   3.252  51.466  1.00  0.00     0.053 C 
ENDROOT
BRANCH   2   3
HETATM    3  C3  UNL     1      25.159   4.004  50.634  1.00  0.00     0.086 C 
HETATM    4  C4  UNL     1      24.836   4.729  49.523  1.00  0.00     0.017 C 
BRANCH   4   5
HETATM    5  C5  UNL     1      26.088   5.316  48.988  1.00  0.00    -0.040 A 
HETATM    6  C6  UNL     1      27.285   4.641  48.852  1.00  0.00     0.008 A 
HETATM    7  C7  UNL     1      28.460   5.144  48.364  1.00  0.00     0.001 A 
HETATM    8  C8  UNL     1      28.496   6.447  47.958  1.00  0.00     0.001 A 
HETATM    9  C9  UNL     1      27.360   7.212  48.049  1.00  0.00     0.019 A 
HETATM   10  C10 UNL     1      26.225   6.622  48.552  1.00  0.00     0.017 A 
HETATM   11 BR1  UNL     1      24.682   7.754  48.646  1.00  0.00    -0.051 Br
ENDBRANCH   4   5
ENDBRANCH   2   3
BRANCH   2  12
HETATM   12  C11 UNL     1      24.804   1.990  51.909  1.00  0.00    -0.011 A 
HETATM   13  C12 UNL     1      26.082   1.547  51.617  1.00  0.00     0.013 A 
HETATM   14  C13 UNL     1      26.701   0.391  52.009  1.00  0.00     0.001 A 
HETATM   15  C14 UNL     1      25.977  -0.455  52.796  1.00  0.00     0.000 A 
HETATM   16  C15 UNL     1      24.693  -0.146  53.167  1.00  0.00     0.001 A 
HETATM   17  C16 UNL     1      24.177   1.039  52.715  1.00  0.00     0.013 A 
ENDBRANCH   2  12
BRANCH   1  18
HETATM   18  C1  UNL     1      22.073   4.361  51.706  1.00  0.00     0.191 C 
HETATM   19  S1  UNL     1      20.704   3.561  52.114  1.00  0.00    -0.039 SA
BRANCH  18  20
HETATM   20  N1  UNL     1      21.803   5.713  51.295  1.00  0.00    -0.375 N 
HETATM   21  H1  UNL     1      22.614   6.356  51.459  1.00  0.00     0.158 HD
HETATM   22  H2  UNL     1      20.858   5.419  51.000  1.00  0.00     0.158 HD
ENDBRANCH  18  20
ENDBRANCH   1  18
TORSDOF 5
ENDMDL
