MODEL 1
REMARK VINA RESULT:      -7.6      0.000      0.000
REMARK  4 active torsions:
REMARK  status: ('A' for Active; 'I' for Inactive)
REMARK    1  A    between atoms: O1_2  and  C2_3 
REMARK    2  A    between atoms: C8_10  and  O2_11 
REMARK    3  A    between atoms: C10_13  and  N2_14 
REMARK    4  A    between atoms: C15_19  and  N3_20 
ROOT
HETATM    1  C2  UNL     1      21.528   0.109  53.218  1.00  0.00     0.070 A 
HETATM    2  C3  UNL     1      22.218  -0.576  54.202  1.00  0.00     0.038 A 
HETATM    3  C4  UNL     1      23.596  -0.567  54.202  1.00  0.00     0.018 A 
HETATM    4  C5  UNL     1      24.350   0.099  53.258  1.00  0.00     0.019 A 
HETATM    5  C6  UNL     1      23.641   0.782  52.277  1.00  0.00     0.069 A 
HETATM    6  C7  UNL     1      22.262   0.789  52.253  1.00  0.00     0.069 A 
HETATM    7  N1  UNL     1      24.374   1.383  51.425  1.00  0.00    -0.251 NA
HETATM    8  C8  UNL     1      25.762   1.132  51.797  1.00  0.00     0.295 A 
HETATM    9  C10 UNL     1      25.634   0.294  52.992  1.00  0.00     0.071 A 
ENDROOT
BRANCH   9  10
HETATM   10  N2  UNL     1      26.627  -0.283  53.825  1.00  0.00    -0.371 N 
HETATM   11  C11 UNL     1      27.248   0.515  54.864  1.00  0.00     0.150 C 
HETATM   12  C12 UNL     1      28.547   1.010  54.305  1.00  0.00    -0.007 C 
HETATM   13  C13 UNL     1      29.421   0.239  53.668  1.00  0.00    -0.000 C 
HETATM   14  C14 UNL     1      29.469  -1.175  53.310  1.00  0.00     0.026 C 
HETATM   15  C15 UNL     1      28.372  -1.918  53.279  1.00  0.00     0.020 C 
HETATM   16  C16 UNL     1      26.932  -1.653  53.548  1.00  0.00     0.179 C 
BRANCH  15  17
HETATM   17  N3  UNL     1      28.582  -3.278  52.910  1.00  0.00    -0.401 N 
HETATM   18  H16 UNL     1      29.446  -3.165  52.304  1.00  0.00     0.156 HD
HETATM   19  H17 UNL     1      28.114  -4.204  53.102  1.00  0.00     0.156 HD
ENDBRANCH  15  17
ENDBRANCH   9  10
BRANCH   8  20
HETATM   20  O2  UNL     1      26.319   2.385  52.024  1.00  0.00    -0.364 OA
HETATM   21  C9  UNL     1      26.451   3.093  50.847  1.00  0.00     0.204 C 
ENDBRANCH   8  20
BRANCH   1  22
HETATM   22  O1  UNL     1      20.152   0.032  53.316  1.00  0.00    -0.356 OA
HETATM   23  C1  UNL     1      19.299   0.080  52.184  1.00  0.00     0.210 C 
ENDBRANCH   1  22
TORSDOF 4
ENDMDL
MODEL 2
REMARK VINA RESULT:      -7.6      2.309      6.372
REMARK  4 active torsions:
REMARK  status: ('A' for Active; 'I' for Inactive)
REMARK    1  A    between atoms: O1_2  and  C2_3 
REMARK    2  A    between atoms: C8_10  and  O2_11 
REMARK    3  A    between atoms: C10_13  and  N2_14 
REMARK    4  A    between atoms: C15_19  and  N3_20 
ROOT
HETATM    1  C2  UNL     1      27.082  -0.138  52.936  1.00  0.00     0.070 A 
HETATM    2  C3  UNL     1      27.014   1.061  52.248  1.00  0.00     0.038 A 
HETATM    3  C4  UNL     1      25.786   1.612  51.955  1.00  0.00     0.018 A 
HETATM    4  C5  UNL     1      24.589   1.029  52.314  1.00  0.00     0.019 A 
HETATM    5  C6  UNL     1      24.674  -0.174  53.005  1.00  0.00     0.069 A 
HETATM    6  C7  UNL     1      25.891  -0.748  53.311  1.00  0.00     0.069 A 
HETATM    7  N1  UNL     1      23.546  -0.679  53.318  1.00  0.00    -0.251 NA
HETATM    8  C8  UNL     1      22.516   0.225  52.819  1.00  0.00     0.295 A 
HETATM    9  C10 UNL     1      23.295   1.293  52.188  1.00  0.00     0.071 A 
ENDROOT
BRANCH   9  10
HETATM   10  N2  UNL     1      22.874   2.471  51.518  1.00  0.00    -0.371 N 
HETATM   11  C11 UNL     1      22.365   2.386  50.163  1.00  0.00     0.150 C 
HETATM   12  C12 UNL     1      23.506   2.734  49.255  1.00  0.00    -0.007 C 
HETATM   13  C13 UNL     1      24.301   3.783  49.432  1.00  0.00    -0.000 C 
HETATM   14  C14 UNL     1      24.378   4.852  50.421  1.00  0.00     0.026 C 
HETATM   15  C15 UNL     1      23.801   4.739  51.609  1.00  0.00     0.020 C 
HETATM   16  C16 UNL     1      22.997   3.678  52.275  1.00  0.00     0.179 C 
BRANCH  15  17
HETATM   17  N3  UNL     1      23.967   5.868  52.463  1.00  0.00    -0.401 N 
HETATM   18  H16 UNL     1      23.886   6.646  51.745  1.00  0.00     0.156 HD
HETATM   19  H17 UNL     1      24.126   6.031  53.493  1.00  0.00     0.156 HD
ENDBRANCH  15  17
ENDBRANCH   9  10
BRANCH   8  20
HETATM   20  O2  UNL     1      21.792   0.618  53.938  1.00  0.00    -0.364 OA
HETATM   21  C9  UNL     1      21.411  -0.471  54.694  1.00  0.00     0.204 C 
ENDBRANCH   8  20
BRANCH   1  22
HETATM   22  O1  UNL     1      28.363  -0.597  53.174  1.00  0.00    -0.356 OA
HETATM   23  C1  UNL     1      29.403   0.245  53.644  1.00  0.00     0.210 C 
ENDBRANCH   1  22
TORSDOF 4
ENDMDL
MODEL 3
REMARK VINA RESULT:      -7.0      2.407      6.732
REMARK  4 active torsions:
REMARK  status: ('A' for Active; 'I' for Inactive)
REMARK    1  A    between atoms: O1_2  and  C2_3 
REMARK    2  A    between atoms: C8_10  and  O2_11 
REMARK    3  A    between atoms: C10_13  and  N2_14 
REMARK    4  A    between atoms: C15_19  and  N3_20 
ROOT
HETATM    1  C2  UNL     1      26.270   0.018  54.443  1.00  0.00     0.070 A 
HETATM    2  C3  UNL     1      26.272   1.177  53.685  1.00  0.00     0.038 A 
HETATM    3  C4  UNL     1      25.141   1.538  52.986  1.00  0.00     0.018 A 
HETATM    4  C5  UNL     1      23.976   0.798  52.995  1.00  0.00     0.019 A 
HETATM    5  C6  UNL     1      23.991  -0.362  53.761  1.00  0.00     0.069 A 
HETATM    6  C7  UNL     1      25.110  -0.746  54.470  1.00  0.00     0.069 A 
HETATM    7  N1  UNL     1      22.896  -1.015  53.742  1.00  0.00    -0.251 NA
HETATM    8  C8  UNL     1      21.971  -0.282  52.884  1.00  0.00     0.295 A 
HETATM    9  C10 UNL     1      22.768   0.871  52.454  1.00  0.00     0.071 A 
ENDROOT
BRANCH   9  10
HETATM   10  N2  UNL     1      22.434   1.958  51.606  1.00  0.00    -0.371 N 
HETATM   11  C11 UNL     1      22.297   3.290  52.162  1.00  0.00     0.150 C 
HETATM   12  C12 UNL     1      20.832   3.511  52.386  1.00  0.00    -0.007 C 
HETATM   13  C13 UNL     1      19.895   3.240  51.485  1.00  0.00    -0.000 C 
HETATM   14  C14 UNL     1      19.905   2.703  50.129  1.00  0.00     0.026 C 
HETATM   15  C15 UNL     1      20.943   2.025  49.660  1.00  0.00     0.020 C 
HETATM   16  C16 UNL     1      22.259   1.621  50.227  1.00  0.00     0.179 C 
BRANCH  15  17
HETATM   17  N3  UNL     1      20.800   1.566  48.319  1.00  0.00    -0.401 N 
HETATM   18  H16 UNL     1      21.531   0.797  48.316  1.00  0.00     0.156 HD
HETATM   19  H17 UNL     1      20.203   1.816  47.485  1.00  0.00     0.156 HD
ENDBRANCH  15  17
ENDBRANCH   9  10
BRANCH   8  20
HETATM   20  O2  UNL     1      20.885   0.033  53.692  1.00  0.00    -0.364 OA
HETATM   21  C9  UNL     1      19.693  -0.165  53.026  1.00  0.00     0.204 C 
ENDBRANCH   8  20
BRANCH   1  22
HETATM   22  O1  UNL     1      27.456  -0.245  55.100  1.00  0.00    -0.356 OA
HETATM   23  C1  UNL     1      28.686   0.359  54.733  1.00  0.00     0.210 C 
ENDBRANCH   1  22
TORSDOF 4
ENDMDL
MODEL 4
REMARK VINA RESULT:      -6.9      4.086      6.431
REMARK  4 active torsions:
REMARK  status: ('A' for Active; 'I' for Inactive)
REMARK    1  A    between atoms: O1_2  and  C2_3 
REMARK    2  A    between atoms: C8_10  and  O2_11 
REMARK    3  A    between atoms: C10_13  and  N2_14 
REMARK    4  A    between atoms: C15_19  and  N3_20 
ROOT
HETATM    1  C2  UNL     1      23.335   0.150  53.620  1.00  0.00     0.070 A 
HETATM    2  C3  UNL     1      24.170   1.091  53.041  1.00  0.00     0.038 A 
HETATM    3  C4  UNL     1      23.634   2.091  52.259  1.00  0.00     0.018 A 
HETATM    4  C5  UNL     1      22.283   2.216  52.010  1.00  0.00     0.019 A 
HETATM    5  C6  UNL     1      21.459   1.264  52.600  1.00  0.00     0.069 A 
HETATM    6  C7  UNL     1      21.969   0.253  53.386  1.00  0.00     0.069 A 
HETATM    7  N1  UNL     1      20.219   1.417  52.345  1.00  0.00    -0.251 NA
HETATM    8  C8  UNL     1      20.096   2.590  51.486  1.00  0.00     0.295 A 
HETATM    9  C10 UNL     1      21.485   3.030  51.332  1.00  0.00     0.071 A 
ENDROOT
BRANCH   9  10
HETATM   10  N2  UNL     1      22.032   4.121  50.610  1.00  0.00    -0.371 N 
HETATM   11  C11 UNL     1      22.126   4.054  49.164  1.00  0.00     0.150 C 
HETATM   12  C12 UNL     1      23.528   3.632  48.845  1.00  0.00    -0.007 C 
HETATM   13  C13 UNL     1      24.609   4.172  49.398  1.00  0.00    -0.000 C 
HETATM   14  C14 UNL     1      24.837   5.225  50.381  1.00  0.00     0.026 C 
HETATM   15  C15 UNL     1      23.877   5.623  51.205  1.00  0.00     0.020 C 
HETATM   16  C16 UNL     1      22.457   5.228  51.410  1.00  0.00     0.179 C 
BRANCH  15  17
HETATM   17  N3  UNL     1      24.256   6.660  52.106  1.00  0.00    -0.401 N 
HETATM   18  H16 UNL     1      24.445   7.438  51.410  1.00  0.00     0.156 HD
HETATM   19  H17 UNL     1      24.361   6.764  53.151  1.00  0.00     0.156 HD
ENDBRANCH  15  17
ENDBRANCH   9  10
BRANCH   8  20
HETATM   20  O2  UNL     1      19.281   3.476  52.182  1.00  0.00    -0.364 OA
HETATM   21  C9  UNL     1      18.197   3.862  51.420  1.00  0.00     0.204 C 
ENDBRANCH   8  20
BRANCH   1  22
HETATM   22  O1  UNL     1      23.980  -0.804  54.382  1.00  0.00    -0.356 OA
HETATM   23  C1  UNL     1      23.364  -1.449  55.485  1.00  0.00     0.210 C 
ENDBRANCH   1  22
TORSDOF 4
ENDMDL
MODEL 5
REMARK VINA RESULT:      -6.9      2.609      7.029
REMARK  4 active torsions:
REMARK  status: ('A' for Active; 'I' for Inactive)
REMARK    1  A    between atoms: O1_2  and  C2_3 
REMARK    2  A    between atoms: C8_10  and  O2_11 
REMARK    3  A    between atoms: C10_13  and  N2_14 
REMARK    4  A    between atoms: C15_19  and  N3_20 
ROOT
HETATM    1  C2  UNL     1      26.602   1.976  52.203  1.00  0.00     0.070 A 
HETATM    2  C3  UNL     1      25.907   2.725  51.268  1.00  0.00     0.038 A 
HETATM    3  C4  UNL     1      24.564   2.494  51.069  1.00  0.00     0.018 A 
HETATM    4  C5  UNL     1      23.848   1.539  51.761  1.00  0.00     0.019 A 
HETATM    5  C6  UNL     1      24.560   0.797  52.697  1.00  0.00     0.069 A 
HETATM    6  C7  UNL     1      25.905   1.007  52.915  1.00  0.00     0.069 A 
HETATM    7  N1  UNL     1      23.862  -0.074  53.314  1.00  0.00    -0.251 NA
HETATM    8  C8  UNL     1      22.501   0.020  52.798  1.00  0.00     0.295 A 
HETATM    9  C10 UNL     1      22.601   1.090  51.802  1.00  0.00     0.071 A 
ENDROOT
BRANCH   9  10
HETATM   10  N2  UNL     1      21.616   1.655  50.952  1.00  0.00    -0.371 N 
HETATM   11  C11 UNL     1      21.156   0.915  49.792  1.00  0.00     0.150 C 
HETATM   12  C12 UNL     1      21.925   1.440  48.617  1.00  0.00    -0.007 C 
HETATM   13  C13 UNL     1      22.094   2.732  48.360  1.00  0.00    -0.000 C 
HETATM   14  C14 UNL     1      21.671   3.968  49.008  1.00  0.00     0.026 C 
HETATM   15  C15 UNL     1      21.284   3.988  50.275  1.00  0.00     0.020 C 
HETATM   16  C16 UNL     1      21.152   2.952  51.336  1.00  0.00     0.179 C 
BRANCH  15  17
HETATM   17  N3  UNL     1      20.900   5.271  50.762  1.00  0.00    -0.401 N 
HETATM   18  H16 UNL     1      19.848   5.139  50.799  1.00  0.00     0.156 HD
HETATM   19  H17 UNL     1      21.393   6.162  51.040  1.00  0.00     0.156 HD
ENDBRANCH  15  17
ENDBRANCH   9  10
BRANCH   8  20
HETATM   20  O2  UNL     1      21.707   0.324  53.898  1.00  0.00    -0.364 OA
HETATM   21  C9  UNL     1      21.512  -0.786  54.694  1.00  0.00     0.204 C 
ENDBRANCH   8  20
BRANCH   1  22
HETATM   22  O1  UNL     1      27.941   2.293  52.318  1.00  0.00    -0.356 OA
HETATM   23  C1  UNL     1      28.595   2.414  53.571  1.00  0.00     0.210 C 
ENDBRANCH   1  22
TORSDOF 4
ENDMDL
MODEL 6
REMARK VINA RESULT:      -6.8      2.440      6.126
REMARK  4 active torsions:
REMARK  status: ('A' for Active; 'I' for Inactive)
REMARK    1  A    between atoms: O1_2  and  C2_3 
REMARK    2  A    between atoms: C8_10  and  O2_11 
REMARK    3  A    between atoms: C10_13  and  N2_14 
REMARK    4  A    between atoms: C15_19  and  N3_20 
ROOT
HETATM    1  C2  UNL     1      28.065   0.058  53.455  1.00  0.00     0.070 A 
HETATM    2  C3  UNL     1      27.182  -0.895  52.978  1.00  0.00     0.038 A 
HETATM    3  C4  UNL     1      25.866  -0.556  52.752  1.00  0.00     0.018 A 
HETATM    4  C5  UNL     1      25.360   0.707  52.979  1.00  0.00     0.019 A 
HETATM    5  C6  UNL     1      26.260   1.653  53.457  1.00  0.00     0.069 A 
HETATM    6  C7  UNL     1      27.582   1.339  53.691  1.00  0.00     0.069 A 
HETATM    7  N1  UNL     1      25.752   2.806  53.652  1.00  0.00    -0.251 NA
HETATM    8  C8  UNL     1      24.342   2.724  53.287  1.00  0.00     0.295 A 
HETATM    9  C10 UNL     1      24.193   1.328  52.866  1.00  0.00     0.071 A 
ENDROOT
BRANCH   9  10
HETATM   10  N2  UNL     1      23.057   0.622  52.396  1.00  0.00    -0.371 N 
HETATM   11  C11 UNL     1      22.460   0.983  51.124  1.00  0.00     0.150 C 
HETATM   12  C12 UNL     1      21.301   1.880  51.435  1.00  0.00    -0.007 C 
HETATM   13  C13 UNL     1      20.390   1.619  52.366  1.00  0.00    -0.000 C 
HETATM   14  C14 UNL     1      20.178   0.530  53.313  1.00  0.00     0.026 C 
HETATM   15  C15 UNL     1      21.158  -0.298  53.646  1.00  0.00     0.020 C 
HETATM   16  C16 UNL     1      22.589  -0.420  53.257  1.00  0.00     0.179 C 
BRANCH  15  17
HETATM   17  N3  UNL     1      20.793  -1.308  54.582  1.00  0.00    -0.401 N 
HETATM   18  H16 UNL     1      21.387  -2.108  54.218  1.00  0.00     0.156 HD
HETATM   19  H17 UNL     1      20.153  -1.381  55.418  1.00  0.00     0.156 HD
ENDBRANCH  15  17
ENDBRANCH   9  10
BRANCH   8  20
HETATM   20  O2  UNL     1      24.166   3.657  52.272  1.00  0.00    -0.364 OA
HETATM   21  C9  UNL     1      23.417   4.732  52.707  1.00  0.00     0.204 C 
ENDBRANCH   8  20
BRANCH   1  22
HETATM   22  O1  UNL     1      29.357  -0.393  53.644  1.00  0.00    -0.356 OA
HETATM   23  C1  UNL     1      29.731  -1.748  53.457  1.00  0.00     0.210 C 
ENDBRANCH   1  22
TORSDOF 4
ENDMDL
MODEL 7
REMARK VINA RESULT:      -6.8      2.842      5.314
REMARK  4 active torsions:
REMARK  status: ('A' for Active; 'I' for Inactive)
REMARK    1  A    between atoms: O1_2  and  C2_3 
REMARK    2  A    between atoms: C8_10  and  O2_11 
REMARK    3  A    between atoms: C10_13  and  N2_14 
REMARK    4  A    between atoms: C15_19  and  N3_20 
ROOT
HETATM    1  C2  UNL     1      20.811  -0.467  53.409  1.00  0.00     0.070 A 
HETATM    2  C3  UNL     1      20.260   0.531  52.624  1.00  0.00     0.038 A 
HETATM    3  C4  UNL     1      21.069   1.524  52.114  1.00  0.00     0.018 A 
HETATM    4  C5  UNL     1      22.427   1.587  52.343  1.00  0.00     0.019 A 
HETATM    5  C6  UNL     1      22.965   0.576  53.133  1.00  0.00     0.069 A 
HETATM    6  C7  UNL     1      22.178  -0.428  53.656  1.00  0.00     0.069 A 
HETATM    7  N1  UNL     1      24.222   0.672  53.319  1.00  0.00    -0.251 NA
HETATM    8  C8  UNL     1      24.676   1.860  52.605  1.00  0.00     0.295 A 
HETATM    9  C10 UNL     1      23.440   2.376  52.010  1.00  0.00     0.071 A 
ENDROOT
BRANCH   9  10
HETATM   10  N2  UNL     1      23.213   3.514  51.195  1.00  0.00    -0.371 N 
HETATM   11  C11 UNL     1      22.939   3.345  49.781  1.00  0.00     0.150 C 
HETATM   12  C12 UNL     1      24.237   3.562  49.064  1.00  0.00    -0.007 C 
HETATM   13  C13 UNL     1      25.053   4.582  49.302  1.00  0.00    -0.000 C 
HETATM   14  C14 UNL     1      25.027   5.723  50.211  1.00  0.00     0.026 C 
HETATM   15  C15 UNL     1      24.250   5.735  51.284  1.00  0.00     0.020 C 
HETATM   16  C16 UNL     1      23.280   4.771  51.873  1.00  0.00     0.179 C 
BRANCH  15  17
HETATM   17  N3  UNL     1      24.337   6.920  52.071  1.00  0.00    -0.401 N 
HETATM   18  H16 UNL     1      23.580   6.713  52.786  1.00  0.00     0.156 HD
HETATM   19  H17 UNL     1      24.916   7.802  52.064  1.00  0.00     0.156 HD
ENDBRANCH  15  17
ENDBRANCH   9  10
BRANCH   8  20
HETATM   20  O2  UNL     1      25.616   1.406  51.688  1.00  0.00    -0.364 OA
HETATM   21  C9  UNL     1      26.717   2.236  51.649  1.00  0.00     0.204 C 
ENDBRANCH   8  20
BRANCH   1  22
HETATM   22  O1  UNL     1      19.908  -1.408  53.866  1.00  0.00    -0.356 OA
HETATM   23  C1  UNL     1      18.541  -1.404  53.490  1.00  0.00     0.210 C 
ENDBRANCH   1  22
TORSDOF 4
ENDMDL
MODEL 8
REMARK VINA RESULT:      -6.6      3.870      7.720
REMARK  4 active torsions:
REMARK  status: ('A' for Active; 'I' for Inactive)
REMARK    1  A    between atoms: O1_2  and  C2_3 
REMARK    2  A    between atoms: C8_10  and  O2_11 
REMARK    3  A    between atoms: C10_13  and  N2_14 
REMARK    4  A    between atoms: C15_19  and  N3_20 
ROOT
HETATM    1  C2  UNL     1      26.876   7.274  47.937  1.00  0.00     0.070 A 
HETATM    2  C3  UNL     1      25.537   7.376  48.271  1.00  0.00     0.038 A 
HETATM    3  C4  UNL     1      24.909   6.326  48.906  1.00  0.00     0.018 A 
HETATM    4  C5  UNL     1      25.549   5.150  49.238  1.00  0.00     0.019 A 
HETATM    5  C6  UNL     1      26.894   5.065  48.897  1.00  0.00     0.069 A 
HETATM    6  C7  UNL     1      27.546   6.100  48.261  1.00  0.00     0.069 A 
HETATM    7  N1  UNL     1      27.446   3.963  49.222  1.00  0.00    -0.251 NA
HETATM    8  C8  UNL     1      26.428   3.143  49.868  1.00  0.00     0.295 A 
HETATM    9  C10 UNL     1      25.242   4.002  49.827  1.00  0.00     0.071 A 
ENDROOT
BRANCH   9  10
HETATM   10  N2  UNL     1      23.922   3.777  50.297  1.00  0.00    -0.371 N 
HETATM   11  C11 UNL     1      23.524   4.285  51.597  1.00  0.00     0.150 C 
HETATM   12  C12 UNL     1      23.655   3.143  52.559  1.00  0.00    -0.007 C 
HETATM   13  C13 UNL     1      23.188   1.922  52.328  1.00  0.00    -0.000 C 
HETATM   14  C14 UNL     1      22.473   1.292  51.223  1.00  0.00     0.026 C 
HETATM   15  C15 UNL     1      22.470   1.823  50.009  1.00  0.00     0.020 C 
HETATM   16  C16 UNL     1      23.077   3.042  49.408  1.00  0.00     0.179 C 
BRANCH  15  17
HETATM   17  N3  UNL     1      21.727   1.089  49.039  1.00  0.00    -0.401 N 
HETATM   18  H16 UNL     1      20.995   1.816  48.791  1.00  0.00     0.156 HD
HETATM   19  H17 UNL     1      21.774   0.127  48.607  1.00  0.00     0.156 HD
ENDBRANCH  15  17
ENDBRANCH   9  10
BRANCH   8  20
HETATM   20  O2  UNL     1      26.913   2.884  51.144  1.00  0.00    -0.364 OA
HETATM   21  C9  UNL     1      26.730   1.561  51.490  1.00  0.00     0.204 C 
ENDBRANCH   8  20
BRANCH   1  22
HETATM   22  O1  UNL     1      27.401   8.384  47.304  1.00  0.00    -0.356 OA
HETATM   23  C1  UNL     1      28.098   9.404  48.000  1.00  0.00     0.210 C 
ENDBRANCH   1  22
TORSDOF 4
ENDMDL
MODEL 9
REMARK VINA RESULT:      -6.6      2.424      5.281
REMARK  4 active torsions:
REMARK  status: ('A' for Active; 'I' for Inactive)
REMARK    1  A    between atoms: O1_2  and  C2_3 
REMARK    2  A    between atoms: C8_10  and  O2_11 
REMARK    3  A    between atoms: C10_13  and  N2_14 
REMARK    4  A    between atoms: C15_19  and  N3_20 
ROOT
HETATM    1  C2  UNL     1      20.404  -0.877  53.541  1.00  0.00     0.070 A 
HETATM    2  C3  UNL     1      20.121   0.232  52.763  1.00  0.00     0.038 A 
HETATM    3  C4  UNL     1      21.139   1.083  52.390  1.00  0.00     0.018 A 
HETATM    4  C5  UNL     1      22.456   0.893  52.751  1.00  0.00     0.019 A 
HETATM    5  C6  UNL     1      22.724  -0.227  53.531  1.00  0.00     0.069 A 
HETATM    6  C7  UNL     1      21.724  -1.093  53.919  1.00  0.00     0.069 A 
HETATM    7  N1  UNL     1      23.952  -0.365  53.843  1.00  0.00    -0.251 NA
HETATM    8  C8  UNL     1      24.678   0.750  53.244  1.00  0.00     0.295 A 
HETATM    9  C10 UNL     1      23.620   1.500  52.562  1.00  0.00     0.071 A 
ENDROOT
BRANCH   9  10
HETATM   10  N2  UNL     1      23.681   2.691  51.794  1.00  0.00    -0.371 N 
HETATM   11  C11 UNL     1      23.736   3.978  52.462  1.00  0.00     0.150 C 
HETATM   12  C12 UNL     1      22.336   4.511  52.478  1.00  0.00    -0.007 C 
HETATM   13  C13 UNL     1      21.536   4.525  51.418  1.00  0.00    -0.000 C 
HETATM   14  C14 UNL     1      21.670   4.097  50.030  1.00  0.00     0.026 C 
HETATM   15  C15 UNL     1      22.605   3.234  49.659  1.00  0.00     0.020 C 
HETATM   16  C16 UNL     1      23.684   2.501  50.377  1.00  0.00     0.179 C 
BRANCH  15  17
HETATM   17  N3  UNL     1      22.606   2.915  48.270  1.00  0.00    -0.401 N 
HETATM   18  H16 UNL     1      21.717   3.414  47.974  1.00  0.00     0.156 HD
HETATM   19  H17 UNL     1      23.224   2.371  47.611  1.00  0.00     0.156 HD
ENDBRANCH  15  17
ENDBRANCH   9  10
BRANCH   8  20
HETATM   20  O2  UNL     1      25.615   0.170  52.397  1.00  0.00    -0.364 OA
HETATM   21  C9  UNL     1      26.415  -0.726  53.076  1.00  0.00     0.204 C 
ENDBRANCH   8  20
BRANCH   1  22
HETATM   22  O1  UNL     1      19.309  -1.658  53.855  1.00  0.00    -0.356 OA
HETATM   23  C1  UNL     1      18.026  -1.440  53.293  1.00  0.00     0.210 C 
ENDBRANCH   1  22
TORSDOF 4
ENDMDL
