MODEL 1
REMARK VINA RESULT:      -8.3      0.000      0.000
REMARK  7 active torsions:
REMARK  status: ('A' for Active; 'I' for Inactive)
REMARK    1  A    between atoms: O1_2  and  C2_3 
REMARK    2  A    between atoms: C6_9  and  N3_10 
REMARK    3  A    between atoms: N3_10  and  C7_11 
REMARK    4  A    between atoms: C15_21  and  O2_22 
REMARK    5  A    between atoms: O2_22  and  C16_23 
REMARK    6  A    between atoms: C16_23  and  C17_24 
REMARK    7  A    between atoms: C17_24  and  N4_25 
ROOT
HETATM    1  C2  UNL     1      22.716  -0.215  52.792  1.00  0.00     0.103 A 
HETATM    2  C3  UNL     1      21.800   0.327  51.893  1.00  0.00     0.072 A 
HETATM    3  C4  UNL     1      22.136   1.513  51.278  1.00  0.00     0.075 A 
HETATM    4  N1  UNL     1      21.234   2.039  50.398  1.00  0.00    -0.241 NA
HETATM    5  C5  UNL     1      21.497   3.191  49.761  1.00  0.00     0.236 A 
HETATM    6  N2  UNL     1      22.654   3.810  50.006  1.00  0.00    -0.224 NA
HETATM    7  C6  UNL     1      23.581   3.365  50.847  1.00  0.00     0.142 A 
HETATM    8  C13 UNL     1      23.313   2.188  51.496  1.00  0.00     0.042 A 
HETATM    9  C14 UNL     1      24.156   1.586  52.393  1.00  0.00     0.057 A 
HETATM   10  C15 UNL     1      23.933   0.411  53.066  1.00  0.00     0.103 A 
ENDROOT
BRANCH   7  11
HETATM   11  N3  UNL     1      24.804   4.033  51.097  1.00  0.00    -0.340 N 
HETATM   12  H6  UNL     1      25.189   4.137  52.056  1.00  0.00     0.167 HD
BRANCH  11  13
HETATM   13  C7  UNL     1      25.696   4.651  50.190  1.00  0.00     0.035 A 
HETATM   14  C8  UNL     1      26.749   4.022  49.543  1.00  0.00     0.032 A 
HETATM   15  C9  UNL     1      27.592   4.653  48.662  1.00  0.00     0.046 A 
HETATM   16  C10 UNL     1      27.431   5.987  48.365  1.00  0.00     0.138 A 
HETATM   17  F1  UNL     1      28.325   6.489  47.482  1.00  0.00    -0.204 F 
HETATM   18  C11 UNL     1      26.397   6.652  48.984  1.00  0.00     0.074 A 
HETATM   19 CL1  UNL     1      26.245   8.344  48.564  1.00  0.00    -0.081 Cl
HETATM   20  C12 UNL     1      25.577   5.974  49.862  1.00  0.00     0.056 A 
ENDBRANCH  11  13
ENDBRANCH   7  11
BRANCH  10  21
HETATM   21  O2  UNL     1      24.653  -0.299  53.969  1.00  0.00    -0.347 OA
BRANCH  21  22
HETATM   22  C16 UNL     1      26.013  -0.603  54.014  1.00  0.00     0.206 C 
BRANCH  22  23
HETATM   23  C17 UNL     1      26.865   0.325  54.824  1.00  0.00     0.299 C 
BRANCH  23  24
HETATM   24  N4  UNL     1      28.269  -0.040  54.779  1.00  0.00     0.090 N 
HETATM   25  C18 UNL     1      28.545  -0.774  53.549  1.00  0.00     0.274 C 
HETATM   26  C19 UNL     1      29.889  -0.071  53.525  1.00  0.00     0.060 C 
HETATM   27  C20 UNL     1      29.066   1.045  54.183  1.00  0.00     0.274 C 
ENDBRANCH  23  24
ENDBRANCH  22  23
ENDBRANCH  21  22
ENDBRANCH  10  21
BRANCH   1  28
HETATM   28  O1  UNL     1      22.293  -1.412  53.363  1.00  0.00    -0.353 OA
HETATM   29  C1  UNL     1      21.247  -1.483  54.292  1.00  0.00     0.210 C 
ENDBRANCH   1  28
TORSDOF 7
ENDMDL
MODEL 2
REMARK VINA RESULT:      -8.1      3.792      6.495
REMARK  7 active torsions:
REMARK  status: ('A' for Active; 'I' for Inactive)
REMARK    1  A    between atoms: O1_2  and  C2_3 
REMARK    2  A    between atoms: C6_9  and  N3_10 
REMARK    3  A    between atoms: N3_10  and  C7_11 
REMARK    4  A    between atoms: C15_21  and  O2_22 
REMARK    5  A    between atoms: O2_22  and  C16_23 
REMARK    6  A    between atoms: C16_23  and  C17_24 
REMARK    7  A    between atoms: C17_24  and  N4_25 
ROOT
HETATM    1  C2  UNL     1      19.529  -0.037  52.284  1.00  0.00     0.103 A 
HETATM    2  C3  UNL     1      19.864  -0.692  53.466  1.00  0.00     0.072 A 
HETATM    3  C4  UNL     1      21.196  -0.736  53.816  1.00  0.00     0.075 A 
HETATM    4  N1  UNL     1      21.517  -1.380  54.977  1.00  0.00    -0.241 NA
HETATM    5  C5  UNL     1      22.796  -1.459  55.379  1.00  0.00     0.236 A 
HETATM    6  N2  UNL     1      23.742  -0.898  54.624  1.00  0.00    -0.224 NA
HETATM    7  C6  UNL     1      23.512  -0.256  53.483  1.00  0.00     0.142 A 
HETATM    8  C13 UNL     1      22.207  -0.174  53.073  1.00  0.00     0.042 A 
HETATM    9  C14 UNL     1      21.790   0.450  51.927  1.00  0.00     0.057 A 
HETATM   10  C15 UNL     1      20.499   0.558  51.475  1.00  0.00     0.103 A 
ENDROOT
BRANCH   7  11
HETATM   11  N3  UNL     1      24.526   0.334  52.691  1.00  0.00    -0.340 N 
HETATM   12  H6  UNL     1      24.331   0.734  51.753  1.00  0.00     0.167 HD
BRANCH  11  13
HETATM   13  C7  UNL     1      25.904   0.499  52.967  1.00  0.00     0.035 A 
HETATM   14  C8  UNL     1      26.526   1.701  53.265  1.00  0.00     0.032 A 
HETATM   15  C9  UNL     1      27.867   1.823  53.534  1.00  0.00     0.046 A 
HETATM   16  C10 UNL     1      28.691   0.722  53.522  1.00  0.00     0.138 A 
HETATM   17  F1  UNL     1      29.990   0.974  53.805  1.00  0.00    -0.204 F 
HETATM   18  C11 UNL     1      28.115  -0.495  53.232  1.00  0.00     0.074 A 
HETATM   19 CL1  UNL     1      29.215  -1.857  53.233  1.00  0.00    -0.081 Cl
HETATM   20  C12 UNL     1      26.764  -0.566  52.968  1.00  0.00     0.056 A 
ENDBRANCH  11  13
ENDBRANCH   7  11
BRANCH  10  21
HETATM   21  O2  UNL     1      19.937   1.131  50.383  1.00  0.00    -0.347 OA
BRANCH  21  22
HETATM   22  C16 UNL     1      20.515   1.786  49.297  1.00  0.00     0.206 C 
BRANCH  22  23
HETATM   23  C17 UNL     1      20.695   3.266  49.445  1.00  0.00     0.299 C 
BRANCH  23  24
HETATM   24  N4  UNL     1      22.064   3.680  49.197  1.00  0.00     0.090 N 
HETATM   25  C18 UNL     1      22.805   3.702  50.453  1.00  0.00     0.274 C 
HETATM   26  C19 UNL     1      24.002   3.209  49.663  1.00  0.00     0.060 C 
HETATM   27  C20 UNL     1      22.900   2.520  48.848  1.00  0.00     0.274 C 
ENDBRANCH  23  24
ENDBRANCH  22  23
ENDBRANCH  21  22
ENDBRANCH  10  21
BRANCH   1  28
HETATM   28  O1  UNL     1      18.164  -0.043  52.012  1.00  0.00    -0.353 OA
HETATM   29  C1  UNL     1      17.312  -1.077  52.421  1.00  0.00     0.210 C 
ENDBRANCH   1  28
TORSDOF 7
ENDMDL
MODEL 3
REMARK VINA RESULT:      -8.0      3.655      6.211
REMARK  7 active torsions:
REMARK  status: ('A' for Active; 'I' for Inactive)
REMARK    1  A    between atoms: O1_2  and  C2_3 
REMARK    2  A    between atoms: C6_9  and  N3_10 
REMARK    3  A    between atoms: N3_10  and  C7_11 
REMARK    4  A    between atoms: C15_21  and  O2_22 
REMARK    5  A    between atoms: O2_22  and  C16_23 
REMARK    6  A    between atoms: C16_23  and  C17_24 
REMARK    7  A    between atoms: C17_24  and  N4_25 
ROOT
HETATM    1  C2  UNL     1      20.627   3.036  52.127  1.00  0.00     0.103 A 
HETATM    2  C3  UNL     1      20.436   1.896  52.906  1.00  0.00     0.072 A 
HETATM    3  C4  UNL     1      21.520   1.070  53.102  1.00  0.00     0.075 A 
HETATM    4  N1  UNL     1      21.327  -0.046  53.866  1.00  0.00    -0.241 NA
HETATM    5  C5  UNL     1      22.341  -0.895  54.099  1.00  0.00     0.236 A 
HETATM    6  N2  UNL     1      23.537  -0.628  53.570  1.00  0.00    -0.224 NA
HETATM    7  C6  UNL     1      23.805   0.433  52.816  1.00  0.00     0.142 A 
HETATM    8  C13 UNL     1      22.771   1.301  52.578  1.00  0.00     0.042 A 
HETATM    9  C14 UNL     1      22.870   2.442  51.827  1.00  0.00     0.057 A 
HETATM   10  C15 UNL     1      21.866   3.339  51.562  1.00  0.00     0.103 A 
ENDROOT
BRANCH   7  11
HETATM   11  N3  UNL     1      25.079   0.704  52.261  1.00  0.00    -0.340 N 
HETATM   12  H6  UNL     1      25.195   1.266  51.396  1.00  0.00     0.167 HD
BRANCH  11  13
HETATM   13  C7  UNL     1      26.361   0.310  52.710  1.00  0.00     0.035 A 
HETATM   14  C8  UNL     1      26.898  -0.962  52.592  1.00  0.00     0.032 A 
HETATM   15  C9  UNL     1      28.151  -1.308  53.034  1.00  0.00     0.046 A 
HETATM   16  C10 UNL     1      28.967  -0.379  53.637  1.00  0.00     0.138 A 
HETATM   17  F1  UNL     1      30.177  -0.844  54.026  1.00  0.00    -0.204 F 
HETATM   18  C11 UNL     1      28.474   0.900  53.774  1.00  0.00     0.074 A 
HETATM   19 CL1  UNL     1      29.560   2.035  54.548  1.00  0.00    -0.081 Cl
HETATM   20  C12 UNL     1      27.210   1.198  53.314  1.00  0.00     0.056 A 
ENDBRANCH  11  13
ENDBRANCH   7  11
BRANCH  10  21
HETATM   21  O2  UNL     1      21.808   4.490  50.849  1.00  0.00    -0.347 OA
BRANCH  21  22
HETATM   22  C16 UNL     1      22.508   4.898  49.715  1.00  0.00     0.206 C 
BRANCH  22  23
HETATM   23  C17 UNL     1      23.863   5.490  49.961  1.00  0.00     0.299 C 
BRANCH  23  24
HETATM   24  N4  UNL     1      24.887   4.877  49.134  1.00  0.00     0.090 N 
HETATM   25  C18 UNL     1      26.136   5.620  49.270  1.00  0.00     0.274 C 
HETATM   26  C19 UNL     1      26.847   4.284  49.167  1.00  0.00     0.060 C 
HETATM   27  C20 UNL     1      25.571   3.802  49.870  1.00  0.00     0.274 C 
ENDBRANCH  23  24
ENDBRANCH  22  23
ENDBRANCH  21  22
ENDBRANCH  10  21
BRANCH   1  28
HETATM   28  O1  UNL     1      19.479   3.810  51.984  1.00  0.00    -0.353 OA
HETATM   29  C1  UNL     1      18.234   3.267  51.641  1.00  0.00     0.210 C 
ENDBRANCH   1  28
TORSDOF 7
ENDMDL
MODEL 4
REMARK VINA RESULT:      -8.0      3.756      6.472
REMARK  7 active torsions:
REMARK  status: ('A' for Active; 'I' for Inactive)
REMARK    1  A    between atoms: O1_2  and  C2_3 
REMARK    2  A    between atoms: C6_9  and  N3_10 
REMARK    3  A    between atoms: N3_10  and  C7_11 
REMARK    4  A    between atoms: C15_21  and  O2_22 
REMARK    5  A    between atoms: O2_22  and  C16_23 
REMARK    6  A    between atoms: C16_23  and  C17_24 
REMARK    7  A    between atoms: C17_24  and  N4_25 
ROOT
HETATM    1  C2  UNL     1      21.983   3.132  49.923  1.00  0.00     0.103 A 
HETATM    2  C3  UNL     1      23.085   3.697  49.286  1.00  0.00     0.072 A 
HETATM    3  C4  UNL     1      24.329   3.447  49.823  1.00  0.00     0.075 A 
HETATM    4  N1  UNL     1      25.406   4.003  49.194  1.00  0.00    -0.241 NA
HETATM    5  C5  UNL     1      26.648   3.800  49.662  1.00  0.00     0.236 A 
HETATM    6  N2  UNL     1      26.807   3.046  50.752  1.00  0.00    -0.224 NA
HETATM    7  C6  UNL     1      25.813   2.472  51.421  1.00  0.00     0.142 A 
HETATM    8  C13 UNL     1      24.545   2.679  50.943  1.00  0.00     0.042 A 
HETATM    9  C14 UNL     1      23.408   2.162  51.506  1.00  0.00     0.057 A 
HETATM   10  C15 UNL     1      22.121   2.341  51.064  1.00  0.00     0.103 A 
ENDROOT
BRANCH   7  11
HETATM   11  N3  UNL     1      25.997   1.675  52.577  1.00  0.00    -0.340 N 
HETATM   12  H6  UNL     1      25.627   1.956  53.505  1.00  0.00     0.167 HD
BRANCH  11  13
HETATM   13  C7  UNL     1      26.661   0.435  52.720  1.00  0.00     0.035 A 
HETATM   14  C8  UNL     1      26.107  -0.809  52.458  1.00  0.00     0.032 A 
HETATM   15  C9  UNL     1      26.785  -1.995  52.602  1.00  0.00     0.046 A 
HETATM   16  C10 UNL     1      28.093  -2.011  53.028  1.00  0.00     0.138 A 
HETATM   17  F1  UNL     1      28.648  -3.241  53.127  1.00  0.00    -0.204 F 
HETATM   18  C11 UNL     1      28.684  -0.797  53.300  1.00  0.00     0.074 A 
HETATM   19 CL1  UNL     1      30.348  -0.886  53.837  1.00  0.00    -0.081 Cl
HETATM   20  C12 UNL     1      27.962   0.366  53.140  1.00  0.00     0.056 A 
ENDBRANCH  11  13
ENDBRANCH   7  11
BRANCH  10  21
HETATM   21  O2  UNL     1      20.915   1.906  51.504  1.00  0.00    -0.347 OA
BRANCH  21  22
HETATM   22  C16 UNL     1      20.526   1.390  52.740  1.00  0.00     0.206 C 
BRANCH  22  23
HETATM   23  C17 UNL     1      20.046  -0.029  52.734  1.00  0.00     0.299 C 
BRANCH  23  24
HETATM   24  N4  UNL     1      20.824  -0.875  53.622  1.00  0.00     0.090 N 
HETATM   25  C18 UNL     1      22.207  -0.930  53.159  1.00  0.00     0.274 C 
HETATM   26  C19 UNL     1      22.611  -0.954  54.620  1.00  0.00     0.060 C 
HETATM   27  C20 UNL     1      21.348  -0.093  54.753  1.00  0.00     0.274 C 
ENDBRANCH  23  24
ENDBRANCH  22  23
ENDBRANCH  21  22
ENDBRANCH  10  21
BRANCH   1  28
HETATM   28  O1  UNL     1      20.770   3.438  49.311  1.00  0.00    -0.353 OA
HETATM   29  C1  UNL     1      20.457   4.720  48.842  1.00  0.00     0.210 C 
ENDBRANCH   1  28
TORSDOF 7
ENDMDL
MODEL 5
REMARK VINA RESULT:      -7.9      3.643      6.292
REMARK  7 active torsions:
REMARK  status: ('A' for Active; 'I' for Inactive)
REMARK    1  A    between atoms: O1_2  and  C2_3 
REMARK    2  A    between atoms: C6_9  and  N3_10 
REMARK    3  A    between atoms: N3_10  and  C7_11 
REMARK    4  A    between atoms: C15_21  and  O2_22 
REMARK    5  A    between atoms: O2_22  and  C16_23 
REMARK    6  A    between atoms: C16_23  and  C17_24 
REMARK    7  A    between atoms: C17_24  and  N4_25 
ROOT
HETATM    1  C2  UNL     1      21.135   2.602  51.780  1.00  0.00     0.103 A 
HETATM    2  C3  UNL     1      20.688   1.821  52.843  1.00  0.00     0.072 A 
HETATM    3  C4  UNL     1      21.552   0.873  53.345  1.00  0.00     0.075 A 
HETATM    4  N1  UNL     1      21.108   0.110  54.387  1.00  0.00    -0.241 NA
HETATM    5  C5  UNL     1      21.898  -0.832  54.926  1.00  0.00     0.236 A 
HETATM    6  N2  UNL     1      23.122  -1.008  54.423  1.00  0.00    -0.224 NA
HETATM    7  C6  UNL     1      23.627  -0.309  53.412  1.00  0.00     0.142 A 
HETATM    8  C13 UNL     1      22.821   0.653  52.862  1.00  0.00     0.042 A 
HETATM    9  C14 UNL     1      23.180   1.464  51.818  1.00  0.00     0.057 A 
HETATM   10  C15 UNL     1      22.410   2.439  51.236  1.00  0.00     0.103 A 
ENDROOT
BRANCH   7  11
HETATM   11  N3  UNL     1      24.927  -0.507  52.888  1.00  0.00    -0.340 N 
HETATM   12  H6  UNL     1      25.113  -1.167  52.109  1.00  0.00     0.167 HD
BRANCH  11  13
HETATM   13  C7  UNL     1      26.153   0.089  53.268  1.00  0.00     0.035 A 
HETATM   14  C8  UNL     1      26.323   1.416  53.631  1.00  0.00     0.032 A 
HETATM   15  C9  UNL     1      27.528   1.960  54.002  1.00  0.00     0.046 A 
HETATM   16  C10 UNL     1      28.668   1.190  54.035  1.00  0.00     0.138 A 
HETATM   17  F1  UNL     1      29.790   1.842  54.418  1.00  0.00    -0.204 F 
HETATM   18  C11 UNL     1      28.545  -0.136  53.683  1.00  0.00     0.074 A 
HETATM   19 CL1  UNL     1      30.030  -1.062  53.746  1.00  0.00    -0.081 Cl
HETATM   20  C12 UNL     1      27.313  -0.635  53.318  1.00  0.00     0.056 A 
ENDBRANCH  11  13
ENDBRANCH   7  11
BRANCH  10  21
HETATM   21  O2  UNL     1      22.617   3.307  50.215  1.00  0.00    -0.347 OA
BRANCH  21  22
HETATM   22  C16 UNL     1      23.734   3.514  49.407  1.00  0.00     0.206 C 
BRANCH  22  23
HETATM   23  C17 UNL     1      24.767   4.456  49.947  1.00  0.00     0.299 C 
BRANCH  23  24
HETATM   24  N4  UNL     1      25.583   5.036  48.896  1.00  0.00     0.090 N 
HETATM   25  C18 UNL     1      26.094   6.332  49.331  1.00  0.00     0.274 C 
HETATM   26  C19 UNL     1      27.367   5.992  48.580  1.00  0.00     0.060 C 
HETATM   27  C20 UNL     1      26.975   4.572  49.007  1.00  0.00     0.274 C 
ENDBRANCH  23  24
ENDBRANCH  22  23
ENDBRANCH  21  22
ENDBRANCH  10  21
BRANCH   1  28
HETATM   28  O1  UNL     1      20.197   3.532  51.341  1.00  0.00    -0.353 OA
HETATM   29  C1  UNL     1      18.817   3.355  51.503  1.00  0.00     0.210 C 
ENDBRANCH   1  28
TORSDOF 7
ENDMDL
MODEL 6
REMARK VINA RESULT:      -7.7      3.844      7.034
REMARK  7 active torsions:
REMARK  status: ('A' for Active; 'I' for Inactive)
REMARK    1  A    between atoms: O1_2  and  C2_3 
REMARK    2  A    between atoms: C6_9  and  N3_10 
REMARK    3  A    between atoms: N3_10  and  C7_11 
REMARK    4  A    between atoms: C15_21  and  O2_22 
REMARK    5  A    between atoms: O2_22  and  C16_23 
REMARK    6  A    between atoms: C16_23  and  C17_24 
REMARK    7  A    between atoms: C17_24  and  N4_25 
ROOT
HETATM    1  C2  UNL     1      26.961   0.685  53.288  1.00  0.00     0.103 A 
HETATM    2  C3  UNL     1      26.531  -0.001  54.422  1.00  0.00     0.072 A 
HETATM    3  C4  UNL     1      25.219  -0.419  54.455  1.00  0.00     0.075 A 
HETATM    4  N1  UNL     1      24.804  -1.091  55.569  1.00  0.00    -0.241 NA
HETATM    5  C5  UNL     1      23.539  -1.529  55.669  1.00  0.00     0.236 A 
HETATM    6  N2  UNL     1      22.698  -1.295  54.659  1.00  0.00    -0.224 NA
HETATM    7  C6  UNL     1      23.023  -0.649  53.544  1.00  0.00     0.142 A 
HETATM    8  C13 UNL     1      24.315  -0.202  53.442  1.00  0.00     0.042 A 
HETATM    9  C14 UNL     1      24.820   0.478  52.365  1.00  0.00     0.057 A 
HETATM   10  C15 UNL     1      26.102   0.943  52.218  1.00  0.00     0.103 A 
ENDROOT
BRANCH   7  11
HETATM   11  N3  UNL     1      22.120  -0.407  52.481  1.00  0.00    -0.340 N 
HETATM   12  H6  UNL     1      22.059  -1.034  51.655  1.00  0.00     0.167 HD
BRANCH  11  13
HETATM   13  C7  UNL     1      21.185   0.641  52.312  1.00  0.00     0.035 A 
HETATM   14  C8  UNL     1      21.442   1.988  52.518  1.00  0.00     0.032 A 
HETATM   15  C9  UNL     1      20.511   2.981  52.337  1.00  0.00     0.046 A 
HETATM   16  C10 UNL     1      19.231   2.681  51.929  1.00  0.00     0.138 A 
HETATM   17  F1  UNL     1      18.411   3.748  51.787  1.00  0.00    -0.204 F 
HETATM   18  C11 UNL     1      18.932   1.355  51.712  1.00  0.00     0.074 A 
HETATM   19 CL1  UNL     1      17.290   1.039  51.194  1.00  0.00    -0.081 Cl
HETATM   20  C12 UNL     1      19.901   0.394  51.907  1.00  0.00     0.056 A 
ENDBRANCH  11  13
ENDBRANCH   7  11
BRANCH  10  21
HETATM   21  O2  UNL     1      26.742   1.621  51.234  1.00  0.00    -0.347 OA
BRANCH  21  22
HETATM   22  C16 UNL     1      26.671   2.961  50.855  1.00  0.00     0.206 C 
BRANCH  22  23
HETATM   23  C17 UNL     1      25.387   3.394  50.216  1.00  0.00     0.299 C 
BRANCH  23  24
HETATM   24  N4  UNL     1      25.599   4.382  49.174  1.00  0.00     0.090 N 
HETATM   25  C18 UNL     1      25.614   5.718  49.762  1.00  0.00     0.274 C 
HETATM   26  C19 UNL     1      26.683   6.066  48.744  1.00  0.00     0.060 C 
HETATM   27  C20 UNL     1      27.037   4.586  48.939  1.00  0.00     0.274 C 
ENDBRANCH  23  24
ENDBRANCH  22  23
ENDBRANCH  21  22
ENDBRANCH  10  21
BRANCH   1  28
HETATM   28  O1  UNL     1      28.298   1.067  53.342  1.00  0.00    -0.353 OA
HETATM   29  C1  UNL     1      28.714   2.307  53.844  1.00  0.00     0.210 C 
ENDBRANCH   1  28
TORSDOF 7
ENDMDL
MODEL 7
REMARK VINA RESULT:      -7.6      1.682      4.856
REMARK  7 active torsions:
REMARK  status: ('A' for Active; 'I' for Inactive)
REMARK    1  A    between atoms: O1_2  and  C2_3 
REMARK    2  A    between atoms: C6_9  and  N3_10 
REMARK    3  A    between atoms: N3_10  and  C7_11 
REMARK    4  A    between atoms: C15_21  and  O2_22 
REMARK    5  A    between atoms: O2_22  and  C16_23 
REMARK    6  A    between atoms: C16_23  and  C17_24 
REMARK    7  A    between atoms: C17_24  and  N4_25 
ROOT
HETATM    1  C2  UNL     1      23.125   0.148  53.171  1.00  0.00     0.103 A 
HETATM    2  C3  UNL     1      24.429   0.166  53.661  1.00  0.00     0.072 A 
HETATM    3  C4  UNL     1      25.358   0.915  52.972  1.00  0.00     0.075 A 
HETATM    4  N1  UNL     1      26.635   0.929  53.457  1.00  0.00    -0.241 NA
HETATM    5  C5  UNL     1      27.591   1.638  52.837  1.00  0.00     0.236 A 
HETATM    6  N2  UNL     1      27.269   2.328  51.740  1.00  0.00    -0.224 NA
HETATM    7  C6  UNL     1      26.053   2.365  51.206  1.00  0.00     0.142 A 
HETATM    8  C13 UNL     1      25.077   1.641  51.839  1.00  0.00     0.042 A 
HETATM    9  C14 UNL     1      23.772   1.568  51.427  1.00  0.00     0.057 A 
HETATM   10  C15 UNL     1      22.762   0.859  52.027  1.00  0.00     0.103 A 
ENDROOT
BRANCH   7  11
HETATM   11  N3  UNL     1      25.726   3.100  50.041  1.00  0.00    -0.340 N 
HETATM   12  H6  UNL     1      25.073   2.733  49.322  1.00  0.00     0.167 HD
BRANCH  11  13
HETATM   13  C7  UNL     1      26.169   4.378  49.627  1.00  0.00     0.035 A 
HETATM   14  C8  UNL     1      27.289   4.627  48.849  1.00  0.00     0.032 A 
HETATM   15  C9  UNL     1      27.687   5.882  48.458  1.00  0.00     0.046 A 
HETATM   16  C10 UNL     1      26.970   6.996  48.832  1.00  0.00     0.138 A 
HETATM   17  F1  UNL     1      27.465   8.173  48.383  1.00  0.00    -0.204 F 
HETATM   18  C11 UNL     1      25.849   6.796  49.606  1.00  0.00     0.074 A 
HETATM   19 CL1  UNL     1      24.981   8.251  50.047  1.00  0.00    -0.081 Cl
HETATM   20  C12 UNL     1      25.490   5.516  49.972  1.00  0.00     0.056 A 
ENDBRANCH  11  13
ENDBRANCH   7  11
BRANCH  10  21
HETATM   21  O2  UNL     1      21.447   0.689  51.745  1.00  0.00    -0.347 OA
BRANCH  21  22
HETATM   22  C16 UNL     1      20.398   1.606  51.700  1.00  0.00     0.206 C 
BRANCH  22  23
HETATM   23  C17 UNL     1      20.258   2.378  50.423  1.00  0.00     0.299 C 
BRANCH  23  24
HETATM   24  N4  UNL     1      20.377   3.810  50.632  1.00  0.00     0.090 N 
HETATM   25  C18 UNL     1      20.932   4.067  51.957  1.00  0.00     0.274 C 
HETATM   26  C19 UNL     1      21.668   5.237  51.333  1.00  0.00     0.060 C 
HETATM   27  C20 UNL     1      21.664   4.303  50.116  1.00  0.00     0.274 C 
ENDBRANCH  23  24
ENDBRANCH  22  23
ENDBRANCH  21  22
ENDBRANCH  10  21
BRANCH   1  28
HETATM   28  O1  UNL     1      22.258  -0.632  53.930  1.00  0.00    -0.353 OA
HETATM   29  C1  UNL     1      22.646  -1.266  55.117  1.00  0.00     0.210 C 
ENDBRANCH   1  28
TORSDOF 7
ENDMDL
MODEL 8
REMARK VINA RESULT:      -7.6      4.960      7.490
REMARK  7 active torsions:
REMARK  status: ('A' for Active; 'I' for Inactive)
REMARK    1  A    between atoms: O1_2  and  C2_3 
REMARK    2  A    between atoms: C6_9  and  N3_10 
REMARK    3  A    between atoms: N3_10  and  C7_11 
REMARK    4  A    between atoms: C15_21  and  O2_22 
REMARK    5  A    between atoms: O2_22  and  C16_23 
REMARK    6  A    between atoms: C16_23  and  C17_24 
REMARK    7  A    between atoms: C17_24  and  N4_25 
ROOT
HETATM    1  C2  UNL     1      24.638   1.915  52.023  1.00  0.00     0.103 A 
HETATM    2  C3  UNL     1      23.782   2.980  51.754  1.00  0.00     0.072 A 
HETATM    3  C4  UNL     1      22.442   2.803  52.020  1.00  0.00     0.075 A 
HETATM    4  N1  UNL     1      21.607   3.852  51.755  1.00  0.00    -0.241 NA
HETATM    5  C5  UNL     1      20.289   3.749  51.991  1.00  0.00     0.236 A 
HETATM    6  N2  UNL     1      19.814   2.605  52.489  1.00  0.00    -0.224 NA
HETATM    7  C6  UNL     1      20.558   1.541  52.772  1.00  0.00     0.142 A 
HETATM    8  C13 UNL     1      21.903   1.646  52.531  1.00  0.00     0.042 A 
HETATM    9  C14 UNL     1      22.814   0.650  52.766  1.00  0.00     0.057 A 
HETATM   10  C15 UNL     1      24.167   0.708  52.542  1.00  0.00     0.103 A 
ENDROOT
BRANCH   7  11
HETATM   11  N3  UNL     1      20.040   0.334  53.299  1.00  0.00    -0.340 N 
HETATM   12  H6  UNL     1      20.515  -0.183  54.063  1.00  0.00     0.167 HD
BRANCH  11  13
HETATM   13  C7  UNL     1      18.870  -0.377  52.942  1.00  0.00     0.035 A 
HETATM   14  C8  UNL     1      17.925   0.042  52.019  1.00  0.00     0.032 A 
HETATM   15  C9  UNL     1      16.803  -0.678  51.690  1.00  0.00     0.046 A 
HETATM   16  C10 UNL     1      16.550  -1.896  52.280  1.00  0.00     0.138 A 
HETATM   17  F1  UNL     1      15.414  -2.506  51.870  1.00  0.00    -0.204 F 
HETATM   18  C11 UNL     1      17.465  -2.353  53.203  1.00  0.00     0.074 A 
HETATM   19 CL1  UNL     1      17.087  -3.907  53.915  1.00  0.00    -0.081 Cl
HETATM   20  C12 UNL     1      18.576  -1.592  53.499  1.00  0.00     0.056 A 
ENDBRANCH  11  13
ENDBRANCH   7  11
BRANCH  10  21
HETATM   21  O2  UNL     1      25.181  -0.175  52.718  1.00  0.00    -0.347 OA
BRANCH  21  22
HETATM   22  C16 UNL     1      25.726  -0.718  53.880  1.00  0.00     0.206 C 
BRANCH  22  23
HETATM   23  C17 UNL     1      26.781   0.104  54.554  1.00  0.00     0.299 C 
BRANCH  23  24
HETATM   24  N4  UNL     1      27.949   0.294  53.713  1.00  0.00     0.090 N 
HETATM   25  C18 UNL     1      29.121   0.533  54.548  1.00  0.00     0.274 C 
HETATM   26  C19 UNL     1      29.912  -0.261  53.527  1.00  0.00     0.060 C 
HETATM   27  C20 UNL     1      28.574  -1.000  53.395  1.00  0.00     0.274 C 
ENDBRANCH  23  24
ENDBRANCH  22  23
ENDBRANCH  21  22
ENDBRANCH  10  21
BRANCH   1  28
HETATM   28  O1  UNL     1      25.971   2.184  51.724  1.00  0.00    -0.353 OA
HETATM   29  C1  UNL     1      26.362   2.958  50.624  1.00  0.00     0.210 C 
ENDBRANCH   1  28
TORSDOF 7
ENDMDL
MODEL 9
REMARK VINA RESULT:      -7.6      4.183      6.672
REMARK  7 active torsions:
REMARK  status: ('A' for Active; 'I' for Inactive)
REMARK    1  A    between atoms: O1_2  and  C2_3 
REMARK    2  A    between atoms: C6_9  and  N3_10 
REMARK    3  A    between atoms: N3_10  and  C7_11 
REMARK    4  A    between atoms: C15_21  and  O2_22 
REMARK    5  A    between atoms: O2_22  and  C16_23 
REMARK    6  A    between atoms: C16_23  and  C17_24 
REMARK    7  A    between atoms: C17_24  and  N4_25 
ROOT
HETATM    1  C2  UNL     1      26.201   3.839  49.714  1.00  0.00     0.103 A 
HETATM    2  C3  UNL     1      25.174   4.513  49.058  1.00  0.00     0.072 A 
HETATM    3  C4  UNL     1      23.914   4.449  49.611  1.00  0.00     0.075 A 
HETATM    4  N1  UNL     1      22.911   5.113  48.962  1.00  0.00    -0.241 NA
HETATM    5  C5  UNL     1      21.659   5.094  49.446  1.00  0.00     0.236 A 
HETATM    6  N2  UNL     1      21.415   4.416  50.569  1.00  0.00    -0.224 NA
HETATM    7  C6  UNL     1      22.333   3.745  51.257  1.00  0.00     0.142 A 
HETATM    8  C13 UNL     1      23.611   3.764  50.764  1.00  0.00     0.042 A 
HETATM    9  C14 UNL     1      24.678   3.131  51.345  1.00  0.00     0.057 A 
HETATM   10  C15 UNL     1      25.973   3.122  50.890  1.00  0.00     0.103 A 
ENDROOT
BRANCH   7  11
HETATM   11  N3  UNL     1      22.060   3.029  52.447  1.00  0.00    -0.340 N 
HETATM   12  H6  UNL     1      22.454   3.312  53.365  1.00  0.00     0.167 HD
BRANCH  11  13
HETATM   13  C7  UNL     1      21.265   1.875  52.643  1.00  0.00     0.035 A 
HETATM   14  C8  UNL     1      19.998   1.673  52.119  1.00  0.00     0.032 A 
HETATM   15  C9  UNL     1      19.257   0.535  52.324  1.00  0.00     0.046 A 
HETATM   16  C10 UNL     1      19.750  -0.499  53.086  1.00  0.00     0.138 A 
HETATM   17  F1  UNL     1      18.924  -1.564  53.211  1.00  0.00    -0.204 F 
HETATM   18  C11 UNL     1      21.007  -0.342  53.627  1.00  0.00     0.074 A 
HETATM   19 CL1  UNL     1      21.578  -1.692  54.584  1.00  0.00    -0.081 Cl
HETATM   20  C12 UNL     1      21.712   0.819  53.392  1.00  0.00     0.056 A 
ENDBRANCH  11  13
ENDBRANCH   7  11
BRANCH  10  21
HETATM   21  O2  UNL     1      27.117   2.552  51.342  1.00  0.00    -0.347 OA
BRANCH  21  22
HETATM   22  C16 UNL     1      27.330   1.602  52.338  1.00  0.00     0.206 C 
BRANCH  22  23
HETATM   23  C17 UNL     1      26.801   0.228  52.057  1.00  0.00     0.299 C 
BRANCH  23  24
HETATM   24  N4  UNL     1      26.529  -0.514  53.275  1.00  0.00     0.090 N 
HETATM   25  C18 UNL     1      26.366   0.414  54.389  1.00  0.00     0.274 C 
HETATM   26  C19 UNL     1      25.303  -0.530  54.916  1.00  0.00     0.060 C 
HETATM   27  C20 UNL     1      25.085  -0.767  53.416  1.00  0.00     0.274 C 
ENDBRANCH  23  24
ENDBRANCH  22  23
ENDBRANCH  21  22
ENDBRANCH  10  21
BRANCH   1  28
HETATM   28  O1  UNL     1      27.436   3.960  49.085  1.00  0.00    -0.353 OA
HETATM   29  C1  UNL     1      27.918   5.175  48.582  1.00  0.00     0.210 C 
ENDBRANCH   1  28
TORSDOF 7
ENDMDL
