MODEL 1
REMARK VINA RESULT:      -8.9      0.000      0.000
REMARK  7 active torsions:
REMARK  status: ('A' for Active; 'I' for Inactive)
REMARK    1  A    between atoms: O1_2  and  C2_3 
REMARK    2  A    between atoms: C5_6  and  N1_7 
REMARK    3  A    between atoms: N1_7  and  C6_8 
REMARK    4  A    between atoms: N4_16  and  C12_17 
REMARK    5  A    between atoms: C12_17  and  C13_18 
REMARK    6  A    between atoms: C13_18  and  C14_19 
REMARK    7  A    between atoms: C14_19  and  N5_20 
ROOT
HETATM    1  C6  UNL     1      25.124   0.975  51.944  1.00  0.00     0.111 A 
HETATM    2  N2  UNL     1      23.843   1.138  52.091  1.00  0.00    -0.228 NA
HETATM    3  C7  UNL     1      23.244   2.276  51.484  1.00  0.00     0.235 A 
HETATM    4  N3  UNL     1      23.896   3.153  50.797  1.00  0.00    -0.245 NA
HETATM    5  C8  UNL     1      25.299   2.964  50.640  1.00  0.00     0.055 A 
HETATM    6  C9  UNL     1      25.911   3.834  49.961  1.00  0.00     0.015 A 
HETATM    7  C10 UNL     1      26.806   4.472  49.375  1.00  0.00     0.018 A 
HETATM    8  C11 UNL     1      27.566   5.039  48.862  1.00  0.00     0.081 A 
HETATM    9  N4  UNL     1      28.420   5.707  48.267  1.00  0.00    -0.340 N 
HETATM   10  C19 UNL     1      26.998   6.430  48.180  1.00  0.00     0.214 A 
HETATM   11  O3  UNL     1      26.853   7.614  47.504  1.00  0.00    -0.198 OA
HETATM   12  C20 UNL     1      25.517   6.193  48.684  1.00  0.00     0.077 A 
HETATM   13  O4  UNL     1      25.341   4.987  49.336  1.00  0.00     0.000 OA
HETATM   14  C21 UNL     1      26.098   1.850  51.196  1.00  0.00     0.138 A 
ENDROOT
BRANCH   1  15
HETATM   15  N1  UNL     1      25.662  -0.183  52.577  1.00  0.00    -0.344 N 
HETATM   16  H7  UNL     1      25.161  -1.119  52.515  1.00  0.00     0.167 HD
BRANCH  15  17
HETATM   17  C5  UNL     1      26.884  -0.137  53.317  1.00  0.00     0.032 A 
HETATM   18  C4  UNL     1      28.055  -0.979  53.096  1.00  0.00     0.028 A 
HETATM   19  C3  UNL     1      29.010  -0.678  53.956  1.00  0.00     0.011 A 
HETATM   20  C2  UNL     1      28.549   0.418  54.845  1.00  0.00     0.168 A 
HETATM   21  C22 UNL     1      27.178   0.665  54.326  1.00  0.00     0.038 A 
BRANCH  20  22
HETATM   22  O1  UNL     1      29.375   1.514  54.820  1.00  0.00    -0.383 OA
HETATM   23  C1  UNL     1      28.817   2.400  53.870  1.00  0.00     0.202 C 
ENDBRANCH  20  22
ENDBRANCH  15  17
ENDBRANCH   1  15
BRANCH   9  24
HETATM   24  C12 UNL     1      29.276   6.543  47.574  1.00  0.00     0.128 C 
BRANCH  24  25
HETATM   25  C13 UNL     1      30.727   6.373  48.043  1.00  0.00     0.050 C 
BRANCH  25  26
HETATM   26  C14 UNL     1      31.201   5.013  47.574  1.00  0.00     0.274 C 
BRANCH  26  27
HETATM   27  N5  UNL     1      32.455   4.647  48.148  1.00  0.00     0.092 N 
HETATM   28  C15 UNL     1      33.525   5.561  47.901  1.00  0.00     0.298 C 
HETATM   29  C16 UNL     1      34.834   5.039  48.432  1.00  0.00     0.198 C 
HETATM   30  O2  UNL     1      35.114   3.741  48.059  1.00  0.00    -0.388 OA
HETATM   31  C17 UNL     1      34.180   3.260  47.124  1.00  0.00     0.198 C 
HETATM   32  C18 UNL     1      32.792   3.320  47.735  1.00  0.00     0.298 C 
ENDBRANCH  26  27
ENDBRANCH  25  26
ENDBRANCH  24  25
ENDBRANCH   9  24
TORSDOF 7
ENDMDL
MODEL 2
REMARK VINA RESULT:      -8.6      1.177      1.689
REMARK  7 active torsions:
REMARK  status: ('A' for Active; 'I' for Inactive)
REMARK    1  A    between atoms: O1_2  and  C2_3 
REMARK    2  A    between atoms: C5_6  and  N1_7 
REMARK    3  A    between atoms: N1_7  and  C6_8 
REMARK    4  A    between atoms: N4_16  and  C12_17 
REMARK    5  A    between atoms: C12_17  and  C13_18 
REMARK    6  A    between atoms: C13_18  and  C14_19 
REMARK    7  A    between atoms: C14_19  and  N5_20 
ROOT
HETATM    1  C6  UNL     1      24.123   2.320  51.336  1.00  0.00     0.111 A 
HETATM    2  N2  UNL     1      22.961   2.901  51.338  1.00  0.00    -0.228 NA
HETATM    3  C7  UNL     1      22.844   4.153  50.674  1.00  0.00     0.235 A 
HETATM    4  N3  UNL     1      23.821   4.743  50.071  1.00  0.00    -0.245 NA
HETATM    5  C8  UNL     1      25.090   4.097  50.073  1.00  0.00     0.055 A 
HETATM    6  C9  UNL     1      26.026   4.694  49.474  1.00  0.00     0.015 A 
HETATM    7  C10 UNL     1      27.140   4.982  48.997  1.00  0.00     0.018 A 
HETATM    8  C11 UNL     1      28.096   5.249  48.577  1.00  0.00     0.081 A 
HETATM    9  N4  UNL     1      29.183   5.578  48.087  1.00  0.00    -0.340 N 
HETATM   10  C19 UNL     1      28.100   6.728  47.843  1.00  0.00     0.214 A 
HETATM   11  O3  UNL     1      28.431   7.870  47.163  1.00  0.00    -0.198 OA
HETATM   12  C20 UNL     1      26.578   7.010  48.175  1.00  0.00     0.077 A 
HETATM   13  O4  UNL     1      25.943   5.951  48.795  1.00  0.00     0.000 OA
HETATM   14  C21 UNL     1      25.408   2.800  50.709  1.00  0.00     0.138 A 
ENDROOT
BRANCH   1  15
HETATM   15  N1  UNL     1      24.174   1.070  52.019  1.00  0.00    -0.344 N 
HETATM   16  H7  UNL     1      23.322   0.436  52.057  1.00  0.00     0.167 HD
BRANCH  15  17
HETATM   17  C5  UNL     1      25.361   0.621  52.678  1.00  0.00     0.032 A 
HETATM   18  C4  UNL     1      26.391  -0.236  52.102  1.00  0.00     0.028 A 
HETATM   19  C3  UNL     1      27.350  -0.461  52.981  1.00  0.00     0.011 A 
HETATM   20  C2  UNL     1      27.034   0.242  54.250  1.00  0.00     0.168 A 
HETATM   21  C22 UNL     1      25.739   0.891  53.916  1.00  0.00     0.038 A 
BRANCH  20  22
HETATM   22  O1  UNL     1      28.023   1.110  54.643  1.00  0.00    -0.383 OA
HETATM   23  C1  UNL     1      29.245   0.487  54.302  1.00  0.00     0.202 C 
ENDBRANCH  20  22
ENDBRANCH  15  17
ENDBRANCH   1  15
BRANCH   9  24
HETATM   24  C12 UNL     1      30.338   6.063  47.501  1.00  0.00     0.128 C 
BRANCH  24  25
HETATM   25  C13 UNL     1      31.565   5.241  47.919  1.00  0.00     0.050 C 
BRANCH  25  26
HETATM   26  C14 UNL     1      32.778   6.139  47.797  1.00  0.00     0.274 C 
BRANCH  26  27
HETATM   27  N5  UNL     1      33.885   5.477  47.186  1.00  0.00     0.092 N 
HETATM   28  C15 UNL     1      33.568   4.718  46.018  1.00  0.00     0.298 C 
HETATM   29  C16 UNL     1      34.764   3.954  45.512  1.00  0.00     0.198 C 
HETATM   30  O2  UNL     1      35.421   3.231  46.485  1.00  0.00    -0.388 OA
HETATM   31  C17 UNL     1      34.716   3.243  47.701  1.00  0.00     0.198 C 
HETATM   32  C18 UNL     1      34.555   4.680  48.165  1.00  0.00     0.298 C 
ENDBRANCH  26  27
ENDBRANCH  25  26
ENDBRANCH  24  25
ENDBRANCH   9  24
TORSDOF 7
ENDMDL
MODEL 3
REMARK VINA RESULT:      -8.5      1.045      1.305
REMARK  7 active torsions:
REMARK  status: ('A' for Active; 'I' for Inactive)
REMARK    1  A    between atoms: O1_2  and  C2_3 
REMARK    2  A    between atoms: C5_6  and  N1_7 
REMARK    3  A    between atoms: N1_7  and  C6_8 
REMARK    4  A    between atoms: N4_16  and  C12_17 
REMARK    5  A    between atoms: C12_17  and  C13_18 
REMARK    6  A    between atoms: C13_18  and  C14_19 
REMARK    7  A    between atoms: C14_19  and  N5_20 
ROOT
HETATM    1  C6  UNL     1      24.808   0.619  52.388  1.00  0.00     0.111 A 
HETATM    2  N2  UNL     1      23.514   0.654  52.498  1.00  0.00    -0.228 NA
HETATM    3  C7  UNL     1      22.818   1.700  51.832  1.00  0.00     0.235 A 
HETATM    4  N3  UNL     1      23.396   2.613  51.126  1.00  0.00    -0.245 NA
HETATM    5  C8  UNL     1      24.814   2.565  51.009  1.00  0.00     0.055 A 
HETATM    6  C9  UNL     1      25.352   3.467  50.310  1.00  0.00     0.015 A 
HETATM    7  C10 UNL     1      26.193   4.172  49.720  1.00  0.00     0.018 A 
HETATM    8  C11 UNL     1      26.904   4.794  49.203  1.00  0.00     0.081 A 
HETATM    9  N4  UNL     1      27.701   5.524  48.601  1.00  0.00    -0.340 N 
HETATM   10  C19 UNL     1      26.215   6.093  48.452  1.00  0.00     0.214 A 
HETATM   11  O3  UNL     1      25.969   7.229  47.726  1.00  0.00    -0.198 OA
HETATM   12  C20 UNL     1      24.753   5.724  48.931  1.00  0.00     0.077 A 
HETATM   13  O4  UNL     1      24.684   4.531  49.626  1.00  0.00     0.000 OA
HETATM   14  C21 UNL     1      25.707   1.561  51.628  1.00  0.00     0.138 A 
ENDROOT
BRANCH   1  15
HETATM   15  N1  UNL     1      25.444  -0.453  53.079  1.00  0.00    -0.344 N 
HETATM   16  H7  UNL     1      24.944  -1.380  53.224  1.00  0.00     0.167 HD
BRANCH  15  17
HETATM   17  C5  UNL     1      26.768  -0.328  53.606  1.00  0.00     0.032 A 
HETATM   18  C4  UNL     1      27.957  -1.014  53.112  1.00  0.00     0.028 A 
HETATM   19  C3  UNL     1      29.015  -0.676  53.824  1.00  0.00     0.011 A 
HETATM   20  C2  UNL     1      28.614   0.287  54.880  1.00  0.00     0.168 A 
HETATM   21  C22 UNL     1      27.157   0.420  54.624  1.00  0.00     0.038 A 
BRANCH  20  22
HETATM   22  O1  UNL     1      29.314   1.468  54.822  1.00  0.00    -0.383 OA
HETATM   23  C1  UNL     1      28.676   2.250  53.833  1.00  0.00     0.202 C 
ENDBRANCH  20  22
ENDBRANCH  15  17
ENDBRANCH   1  15
BRANCH   9  24
HETATM   24  C12 UNL     1      28.485   6.418  47.894  1.00  0.00     0.128 C 
BRANCH  24  25
HETATM   25  C13 UNL     1      29.949   5.961  47.846  1.00  0.00     0.050 C 
BRANCH  25  26
HETATM   26  C14 UNL     1      30.768   6.970  48.624  1.00  0.00     0.274 C 
BRANCH  26  27
HETATM   27  N5  UNL     1      32.134   6.994  48.212  1.00  0.00     0.092 N 
HETATM   28  C15 UNL     1      32.350   6.803  46.812  1.00  0.00     0.298 C 
HETATM   29  C16 UNL     1      33.817   6.717  46.484  1.00  0.00     0.198 C 
HETATM   30  O2  UNL     1      34.521   5.839  47.281  1.00  0.00    -0.388 OA
HETATM   31  C17 UNL     1      33.664   5.097  48.113  1.00  0.00     0.198 C 
HETATM   32  C18 UNL     1      32.878   6.054  48.992  1.00  0.00     0.298 C 
ENDBRANCH  26  27
ENDBRANCH  25  26
ENDBRANCH  24  25
ENDBRANCH   9  24
TORSDOF 7
ENDMDL
MODEL 4
REMARK VINA RESULT:      -8.4      7.177     12.761
REMARK  7 active torsions:
REMARK  status: ('A' for Active; 'I' for Inactive)
REMARK    1  A    between atoms: O1_2  and  C2_3 
REMARK    2  A    between atoms: C5_6  and  N1_7 
REMARK    3  A    between atoms: N1_7  and  C6_8 
REMARK    4  A    between atoms: N4_16  and  C12_17 
REMARK    5  A    between atoms: C12_17  and  C13_18 
REMARK    6  A    between atoms: C13_18  and  C14_19 
REMARK    7  A    between atoms: C14_19  and  N5_20 
ROOT
HETATM    1  C6  UNL     1      23.339  -0.004  53.709  1.00  0.00     0.111 A 
HETATM    2  N2  UNL     1      23.552  -0.909  54.616  1.00  0.00    -0.228 NA
HETATM    3  C7  UNL     1      22.451  -1.708  55.030  1.00  0.00     0.235 A 
HETATM    4  N3  UNL     1      21.256  -1.587  54.556  1.00  0.00    -0.245 NA
HETATM    5  C8  UNL     1      21.033  -0.594  53.560  1.00  0.00     0.055 A 
HETATM    6  C9  UNL     1      19.857  -0.500  53.113  1.00  0.00     0.015 A 
HETATM    7  C10 UNL     1      18.856  -0.137  52.467  1.00  0.00     0.018 A 
HETATM    8  C11 UNL     1      17.978   0.163  51.919  1.00  0.00     0.081 A 
HETATM    9  N4  UNL     1      16.956   0.490  51.304  1.00  0.00    -0.340 N 
HETATM   10  C19 UNL     1      16.613  -0.648  52.372  1.00  0.00     0.214 A 
HETATM   11  O3  UNL     1      15.337  -1.131  52.496  1.00  0.00    -0.198 OA
HETATM   12  C20 UNL     1      17.364  -1.505  53.470  1.00  0.00     0.077 A 
HETATM   13  O4  UNL     1      18.728  -1.287  53.503  1.00  0.00     0.000 OA
HETATM   14  C21 UNL     1      22.047   0.330  53.007  1.00  0.00     0.138 A 
ENDROOT
BRANCH   1  15
HETATM   15  N1  UNL     1      24.483   0.762  53.340  1.00  0.00    -0.344 N 
HETATM   16  H7  UNL     1      24.376   1.738  52.931  1.00  0.00     0.167 HD
BRANCH  15  17
HETATM   17  C5  UNL     1      25.811   0.256  53.502  1.00  0.00     0.032 A 
HETATM   18  C4  UNL     1      26.487  -0.679  52.610  1.00  0.00     0.028 A 
HETATM   19  C3  UNL     1      27.704  -0.941  53.051  1.00  0.00     0.011 A 
HETATM   20  C2  UNL     1      27.949  -0.185  54.305  1.00  0.00     0.168 A 
HETATM   21  C22 UNL     1      26.660   0.536  54.475  1.00  0.00     0.038 A 
BRANCH  20  22
HETATM   22  O1  UNL     1      29.053   0.629  54.234  1.00  0.00    -0.383 OA
HETATM   23  C1  UNL     1      30.037  -0.111  53.539  1.00  0.00     0.202 C 
ENDBRANCH  20  22
ENDBRANCH  15  17
ENDBRANCH   1  15
BRANCH   9  24
HETATM   24  C12 UNL     1      15.747   0.764  50.691  1.00  0.00     0.128 C 
BRANCH  24  25
HETATM   25  C13 UNL     1      15.160   2.094  51.182  1.00  0.00     0.050 C 
BRANCH  25  26
HETATM   26  C14 UNL     1      13.720   1.839  51.576  1.00  0.00     0.274 C 
BRANCH  26  27
HETATM   27  N5  UNL     1      13.381   2.449  52.822  1.00  0.00     0.092 N 
HETATM   28  C15 UNL     1      12.037   2.231  53.258  1.00  0.00     0.298 C 
HETATM   29  C16 UNL     1      11.728   3.008  54.510  1.00  0.00     0.198 C 
HETATM   30  O2  UNL     1      12.085   4.338  54.448  1.00  0.00    -0.388 OA
HETATM   31  C17 UNL     1      12.506   4.700  53.156  1.00  0.00     0.198 C 
HETATM   32  C18 UNL     1      13.696   3.842  52.766  1.00  0.00     0.298 C 
ENDBRANCH  26  27
ENDBRANCH  25  26
ENDBRANCH  24  25
ENDBRANCH   9  24
TORSDOF 7
ENDMDL
MODEL 5
REMARK VINA RESULT:      -8.4      1.742      7.746
REMARK  7 active torsions:
REMARK  status: ('A' for Active; 'I' for Inactive)
REMARK    1  A    between atoms: O1_2  and  C2_3 
REMARK    2  A    between atoms: C5_6  and  N1_7 
REMARK    3  A    between atoms: N1_7  and  C6_8 
REMARK    4  A    between atoms: N4_16  and  C12_17 
REMARK    5  A    between atoms: C12_17  and  C13_18 
REMARK    6  A    between atoms: C13_18  and  C14_19 
REMARK    7  A    between atoms: C14_19  and  N5_20 
ROOT
HETATM    1  C6  UNL     1      28.424   7.041  47.846  1.00  0.00     0.111 A 
HETATM    2  N2  UNL     1      28.123   8.296  47.995  1.00  0.00    -0.228 NA
HETATM    3  C7  UNL     1      26.983   8.617  48.784  1.00  0.00     0.235 A 
HETATM    4  N3  UNL     1      26.234   7.737  49.359  1.00  0.00    -0.245 NA
HETATM    5  C8  UNL     1      26.574   6.364  49.192  1.00  0.00     0.055 A 
HETATM    6  C9  UNL     1      25.828   5.526  49.767  1.00  0.00     0.015 A 
HETATM    7  C10 UNL     1      25.332   4.459  50.177  1.00  0.00     0.018 A 
HETATM    8  C11 UNL     1      24.887   3.548  50.541  1.00  0.00     0.081 A 
HETATM    9  N4  UNL     1      24.358   2.515  50.971  1.00  0.00    -0.340 N 
HETATM   10  C19 UNL     1      23.506   3.793  51.411  1.00  0.00     0.214 A 
HETATM   11  O3  UNL     1      22.372   3.654  52.168  1.00  0.00    -0.198 OA
HETATM   12  C20 UNL     1      23.552   5.365  51.233  1.00  0.00     0.077 A 
HETATM   13  O4  UNL     1      24.677   5.813  50.568  1.00  0.00     0.000 OA
HETATM   14  C21 UNL     1      27.714   5.836  48.410  1.00  0.00     0.138 A 
ENDROOT
BRANCH   1  15
HETATM   15  N1  UNL     1      29.575   6.788  47.045  1.00  0.00    -0.344 N 
HETATM   16  H7  UNL     1      29.564   6.982  46.000  1.00  0.00     0.167 HD
BRANCH  15  17
HETATM   17  C5  UNL     1      30.782   6.264  47.606  1.00  0.00     0.032 A 
HETATM   18  C4  UNL     1      31.180   4.861  47.628  1.00  0.00     0.028 A 
HETATM   19  C3  UNL     1      32.350   4.722  48.223  1.00  0.00     0.011 A 
HETATM   20  C2  UNL     1      32.844   6.053  48.660  1.00  0.00     0.168 A 
HETATM   21  C22 UNL     1      31.746   6.943  48.202  1.00  0.00     0.038 A 
BRANCH  20  22
HETATM   22  O1  UNL     1      34.080   6.361  48.147  1.00  0.00    -0.383 OA
HETATM   23  C1  UNL     1      34.340   7.695  48.534  1.00  0.00     0.202 C 
ENDBRANCH  20  22
ENDBRANCH  15  17
ENDBRANCH   1  15
BRANCH   9  24
HETATM   24  C12 UNL     1      23.670   1.441  51.505  1.00  0.00     0.128 C 
BRANCH  24  25
HETATM   25  C13 UNL     1      24.266   1.009  52.851  1.00  0.00     0.050 C 
BRANCH  25  26
HETATM   26  C14 UNL     1      25.701   0.596  52.603  1.00  0.00     0.274 C 
BRANCH  26  27
HETATM   27  N5  UNL     1      26.619   1.275  53.460  1.00  0.00     0.092 N 
HETATM   28  C15 UNL     1      27.750   1.851  52.802  1.00  0.00     0.298 C 
HETATM   29  C16 UNL     1      28.726   2.436  53.789  1.00  0.00     0.198 C 
HETATM   30  O2  UNL     1      29.057   1.586  54.822  1.00  0.00    -0.388 OA
HETATM   31  C17 UNL     1      28.528   0.298  54.621  1.00  0.00     0.198 C 
HETATM   32  C18 UNL     1      27.017   0.396  54.515  1.00  0.00     0.298 C 
ENDBRANCH  26  27
ENDBRANCH  25  26
ENDBRANCH  24  25
ENDBRANCH   9  24
TORSDOF 7
ENDMDL
MODEL 6
REMARK VINA RESULT:      -8.2      5.262      7.623
REMARK  7 active torsions:
REMARK  status: ('A' for Active; 'I' for Inactive)
REMARK    1  A    between atoms: O1_2  and  C2_3 
REMARK    2  A    between atoms: C5_6  and  N1_7 
REMARK    3  A    between atoms: N1_7  and  C6_8 
REMARK    4  A    between atoms: N4_16  and  C12_17 
REMARK    5  A    between atoms: C12_17  and  C13_18 
REMARK    6  A    between atoms: C13_18  and  C14_19 
REMARK    7  A    between atoms: C14_19  and  N5_20 
ROOT
HETATM    1  C6  UNL     1      23.880  -0.946  54.510  1.00  0.00     0.111 A 
HETATM    2  N2  UNL     1      23.062  -1.522  55.340  1.00  0.00    -0.228 NA
HETATM    3  C7  UNL     1      21.675  -1.498  55.029  1.00  0.00     0.235 A 
HETATM    4  N3  UNL     1      21.182  -0.940  53.975  1.00  0.00    -0.245 NA
HETATM    5  C8  UNL     1      22.086  -0.314  53.070  1.00  0.00     0.055 A 
HETATM    6  C9  UNL     1      21.579   0.220  52.046  1.00  0.00     0.015 A 
HETATM    7  C10 UNL     1      21.437   0.827  50.968  1.00  0.00     0.018 A 
HETATM    8  C11 UNL     1      21.293   1.350  50.037  1.00  0.00     0.081 A 
HETATM    9  N4  UNL     1      21.102   1.947  48.971  1.00  0.00    -0.340 N 
HETATM   10  C19 UNL     1      19.706   1.508  49.612  1.00  0.00     0.214 A 
HETATM   11  O3  UNL     1      18.524   1.791  48.979  1.00  0.00    -0.198 OA
HETATM   12  C20 UNL     1      19.180   0.759  50.902  1.00  0.00     0.077 A 
HETATM   13  O4  UNL     1      20.191   0.261  51.703  1.00  0.00     0.000 OA
HETATM   14  C21 UNL     1      23.556  -0.233  53.221  1.00  0.00     0.138 A 
ENDROOT
BRANCH   1  15
HETATM   15  N1  UNL     1      25.255  -1.005  54.879  1.00  0.00    -0.344 N 
HETATM   16  H7  UNL     1      25.591  -1.687  55.622  1.00  0.00     0.167 HD
BRANCH  15  17
HETATM   17  C5  UNL     1      26.234  -0.156  54.273  1.00  0.00     0.032 A 
HETATM   18  C4  UNL     1      26.248   1.302  54.314  1.00  0.00     0.028 A 
HETATM   19  C3  UNL     1      27.289   1.773  53.652  1.00  0.00     0.011 A 
HETATM   20  C2  UNL     1      28.077   0.642  53.100  1.00  0.00     0.168 A 
HETATM   21  C22 UNL     1      27.291  -0.527  53.572  1.00  0.00     0.038 A 
BRANCH  20  22
HETATM   22  O1  UNL     1      29.388   0.651  53.509  1.00  0.00    -0.383 OA
HETATM   23  C1  UNL     1      29.793  -0.702  53.547  1.00  0.00     0.202 C 
ENDBRANCH  20  22
ENDBRANCH  15  17
ENDBRANCH   1  15
BRANCH   9  24
HETATM   24  C12 UNL     1      20.755   2.596  47.799  1.00  0.00     0.128 C 
BRANCH  24  25
HETATM   25  C13 UNL     1      20.943   4.114  47.924  1.00  0.00     0.050 C 
BRANCH  25  26
HETATM   26  C14 UNL     1      22.420   4.375  48.128  1.00  0.00     0.274 C 
BRANCH  26  27
HETATM   27  N5  UNL     1      22.693   5.014  49.375  1.00  0.00     0.092 N 
HETATM   28  C15 UNL     1      23.573   4.298  50.244  1.00  0.00     0.298 C 
HETATM   29  C16 UNL     1      23.707   4.979  51.581  1.00  0.00     0.198 C 
HETATM   30  O2  UNL     1      22.503   5.316  52.162  1.00  0.00    -0.388 OA
HETATM   31  C17 UNL     1      21.416   4.791  51.440  1.00  0.00     0.198 C 
HETATM   32  C18 UNL     1      21.458   5.330  50.022  1.00  0.00     0.298 C 
ENDBRANCH  26  27
ENDBRANCH  25  26
ENDBRANCH  24  25
ENDBRANCH   9  24
TORSDOF 7
ENDMDL
MODEL 7
REMARK VINA RESULT:      -8.1      3.559      4.583
REMARK  7 active torsions:
REMARK  status: ('A' for Active; 'I' for Inactive)
REMARK    1  A    between atoms: O1_2  and  C2_3 
REMARK    2  A    between atoms: C5_6  and  N1_7 
REMARK    3  A    between atoms: N1_7  and  C6_8 
REMARK    4  A    between atoms: N4_16  and  C12_17 
REMARK    5  A    between atoms: C12_17  and  C13_18 
REMARK    6  A    between atoms: C13_18  and  C14_19 
REMARK    7  A    between atoms: C14_19  and  N5_20 
ROOT
HETATM    1  C6  UNL     1      23.211   0.253  53.291  1.00  0.00     0.111 A 
HETATM    2  N2  UNL     1      21.975  -0.149  53.315  1.00  0.00    -0.228 NA
HETATM    3  C7  UNL     1      20.974   0.756  52.867  1.00  0.00     0.235 A 
HETATM    4  N3  UNL     1      21.220   1.948  52.437  1.00  0.00    -0.245 NA
HETATM    5  C8  UNL     1      22.577   2.378  52.412  1.00  0.00     0.055 A 
HETATM    6  C9  UNL     1      22.790   3.546  51.985  1.00  0.00     0.015 A 
HETATM    7  C10 UNL     1      23.353   4.601  51.638  1.00  0.00     0.018 A 
HETATM    8  C11 UNL     1      23.821   5.522  51.332  1.00  0.00     0.081 A 
HETATM    9  N4  UNL     1      24.335   6.590  50.977  1.00  0.00    -0.340 N 
HETATM   10  C19 UNL     1      22.744   6.681  50.861  1.00  0.00     0.214 A 
HETATM   11  O3  UNL     1      22.138   7.823  50.407  1.00  0.00    -0.198 OA
HETATM   12  C20 UNL     1      21.483   5.765  51.136  1.00  0.00     0.077 A 
HETATM   13  O4  UNL     1      21.808   4.480  51.525  1.00  0.00     0.000 OA
HETATM   14  C21 UNL     1      23.752   1.586  52.839  1.00  0.00     0.138 A 
ENDROOT
BRANCH   1  15
HETATM   15  N1  UNL     1      24.164  -0.699  53.754  1.00  0.00    -0.344 N 
HETATM   16  H7  UNL     1      23.852  -1.640  54.139  1.00  0.00     0.167 HD
BRANCH  15  17
HETATM   17  C5  UNL     1      25.569  -0.433  53.725  1.00  0.00     0.032 A 
HETATM   18  C4  UNL     1      26.342   0.220  54.776  1.00  0.00     0.028 A 
HETATM   19  C3  UNL     1      27.612   0.311  54.428  1.00  0.00     0.011 A 
HETATM   20  C2  UNL     1      27.800  -0.288  53.082  1.00  0.00     0.168 A 
HETATM   21  C22 UNL     1      26.417  -0.722  52.753  1.00  0.00     0.038 A 
BRANCH  20  22
HETATM   22  O1  UNL     1      28.733  -1.295  53.069  1.00  0.00    -0.383 OA
HETATM   23  C1  UNL     1      29.841  -0.809  53.799  1.00  0.00     0.202 C 
ENDBRANCH  20  22
ENDBRANCH  15  17
ENDBRANCH   1  15
BRANCH   9  24
HETATM   24  C12 UNL     1      24.783   7.829  50.557  1.00  0.00     0.128 C 
BRANCH  24  25
HETATM   25  C13 UNL     1      26.228   7.758  50.045  1.00  0.00     0.050 C 
BRANCH  25  26
HETATM   26  C14 UNL     1      26.647   9.162  49.666  1.00  0.00     0.274 C 
BRANCH  26  27
HETATM   27  N5  UNL     1      27.660   9.175  48.660  1.00  0.00     0.092 N 
HETATM   28  C15 UNL     1      27.669   8.037  47.796  1.00  0.00     0.298 C 
HETATM   29  C16 UNL     1      28.841   8.070  46.849  1.00  0.00     0.198 C 
HETATM   30  O2  UNL     1      30.051   8.314  47.462  1.00  0.00    -0.388 OA
HETATM   31  C17 UNL     1      29.931   8.309  48.863  1.00  0.00     0.198 C 
HETATM   32  C18 UNL     1      28.934   9.377  49.276  1.00  0.00     0.298 C 
ENDBRANCH  26  27
ENDBRANCH  25  26
ENDBRANCH  24  25
ENDBRANCH   9  24
TORSDOF 7
ENDMDL
MODEL 8
REMARK VINA RESULT:      -8.0      1.893      2.507
REMARK  7 active torsions:
REMARK  status: ('A' for Active; 'I' for Inactive)
REMARK    1  A    between atoms: O1_2  and  C2_3 
REMARK    2  A    between atoms: C5_6  and  N1_7 
REMARK    3  A    between atoms: N1_7  and  C6_8 
REMARK    4  A    between atoms: N4_16  and  C12_17 
REMARK    5  A    between atoms: C12_17  and  C13_18 
REMARK    6  A    between atoms: C13_18  and  C14_19 
REMARK    7  A    between atoms: C14_19  and  N5_20 
ROOT
HETATM    1  C6  UNL     1      23.982   2.641  51.515  1.00  0.00     0.111 A 
HETATM    2  N2  UNL     1      23.076   3.162  52.288  1.00  0.00    -0.228 NA
HETATM    3  C7  UNL     1      22.946   4.578  52.298  1.00  0.00     0.235 A 
HETATM    4  N3  UNL     1      23.671   5.373  51.586  1.00  0.00    -0.245 NA
HETATM    5  C8  UNL     1      24.659   4.793  50.741  1.00  0.00     0.055 A 
HETATM    6  C9  UNL     1      25.352   5.593  50.053  1.00  0.00     0.015 A 
HETATM    7  C10 UNL     1      26.190   6.062  49.261  1.00  0.00     0.018 A 
HETATM    8  C11 UNL     1      26.909   6.487  48.580  1.00  0.00     0.081 A 
HETATM    9  N4  UNL     1      27.727   6.999  47.805  1.00  0.00    -0.340 N 
HETATM   10  C19 UNL     1      26.902   8.138  48.565  1.00  0.00     0.214 A 
HETATM   11  O3  UNL     1      27.138   9.463  48.309  1.00  0.00    -0.198 OA
HETATM   12  C20 UNL     1      25.759   8.244  49.653  1.00  0.00     0.077 A 
HETATM   13  O4  UNL     1      25.246   7.020  50.038  1.00  0.00     0.000 OA
HETATM   14  C21 UNL     1      24.946   3.349  50.596  1.00  0.00     0.138 A 
ENDROOT
BRANCH   1  15
HETATM   15  N1  UNL     1      24.062   1.219  51.552  1.00  0.00    -0.344 N 
HETATM   16  H7  UNL     1      23.505   0.624  50.869  1.00  0.00     0.167 HD
BRANCH  15  17
HETATM   17  C5  UNL     1      24.885   0.536  52.502  1.00  0.00     0.032 A 
HETATM   18  C4  UNL     1      24.423  -0.140  53.709  1.00  0.00     0.028 A 
HETATM   19  C3  UNL     1      25.442  -0.665  54.363  1.00  0.00     0.011 A 
HETATM   20  C2  UNL     1      26.702  -0.377  53.631  1.00  0.00     0.168 A 
HETATM   21  C22 UNL     1      26.199   0.395  52.465  1.00  0.00     0.038 A 
BRANCH  20  22
HETATM   22  O1  UNL     1      27.405  -1.510  53.306  1.00  0.00    -0.383 OA
HETATM   23  C1  UNL     1      28.771  -1.152  53.368  1.00  0.00     0.202 C 
ENDBRANCH  20  22
ENDBRANCH  15  17
ENDBRANCH   1  15
BRANCH   9  24
HETATM   24  C12 UNL     1      28.595   7.693  46.981  1.00  0.00     0.128 C 
BRANCH  24  25
HETATM   25  C13 UNL     1      30.055   7.316  47.264  1.00  0.00     0.050 C 
BRANCH  25  26
HETATM   26  C14 UNL     1      30.383   7.784  48.666  1.00  0.00     0.274 C 
BRANCH  26  27
HETATM   27  N5  UNL     1      31.731   7.492  49.035  1.00  0.00     0.092 N 
HETATM   28  C15 UNL     1      32.717   7.852  48.066  1.00  0.00     0.298 C 
HETATM   29  C16 UNL     1      34.092   7.397  48.479  1.00  0.00     0.198 C 
HETATM   30  O2  UNL     1      34.153   6.077  48.870  1.00  0.00    -0.388 OA
HETATM   31  C17 UNL     1      32.937   5.412  48.632  1.00  0.00     0.198 C 
HETATM   32  C18 UNL     1      31.831   6.113  49.399  1.00  0.00     0.298 C 
ENDBRANCH  26  27
ENDBRANCH  25  26
ENDBRANCH  24  25
ENDBRANCH   9  24
TORSDOF 7
ENDMDL
MODEL 9
REMARK VINA RESULT:      -7.9      1.980      8.346
REMARK  7 active torsions:
REMARK  status: ('A' for Active; 'I' for Inactive)
REMARK    1  A    between atoms: O1_2  and  C2_3 
REMARK    2  A    between atoms: C5_6  and  N1_7 
REMARK    3  A    between atoms: N1_7  and  C6_8 
REMARK    4  A    between atoms: N4_16  and  C12_17 
REMARK    5  A    between atoms: C12_17  and  C13_18 
REMARK    6  A    between atoms: C13_18  and  C14_19 
REMARK    7  A    between atoms: C14_19  and  N5_20 
ROOT
HETATM    1  C6  UNL     1      30.259   6.516  47.764  1.00  0.00     0.111 A 
HETATM    2  N2  UNL     1      29.981   7.597  47.098  1.00  0.00    -0.228 NA
HETATM    3  C7  UNL     1      28.614   7.973  46.981  1.00  0.00     0.235 A 
HETATM    4  N3  UNL     1      27.637   7.306  47.498  1.00  0.00    -0.245 NA
HETATM    5  C8  UNL     1      27.952   6.124  48.228  1.00  0.00     0.055 A 
HETATM    6  C9  UNL     1      26.979   5.494  48.725  1.00  0.00     0.015 A 
HETATM    7  C10 UNL     1      26.295   4.649  49.333  1.00  0.00     0.018 A 
HETATM    8  C11 UNL     1      25.686   3.928  49.853  1.00  0.00     0.081 A 
HETATM    9  N4  UNL     1      24.965   3.113  50.442  1.00  0.00    -0.340 N 
HETATM   10  C19 UNL     1      24.067   4.221  49.721  1.00  0.00     0.214 A 
HETATM   11  O3  UNL     1      22.700   4.187  49.818  1.00  0.00    -0.198 OA
HETATM   12  C20 UNL     1      24.269   5.504  48.818  1.00  0.00     0.077 A 
HETATM   13  O4  UNL     1      25.595   5.844  48.630  1.00  0.00     0.000 OA
HETATM   14  C21 UNL     1      29.306   5.573  48.455  1.00  0.00     0.138 A 
ENDROOT
BRANCH   1  15
HETATM   15  N1  UNL     1      31.645   6.195  47.843  1.00  0.00    -0.344 N 
HETATM   16  H7  UNL     1      32.184   6.328  48.749  1.00  0.00     0.167 HD
BRANCH  15  17
HETATM   17  C5  UNL     1      32.364   5.687  46.716  1.00  0.00     0.032 A 
HETATM   18  C4  UNL     1      32.354   4.307  46.242  1.00  0.00     0.028 A 
HETATM   19  C3  UNL     1      33.128   4.178  45.180  1.00  0.00     0.011 A 
HETATM   20  C2  UNL     1      33.736   5.491  44.847  1.00  0.00     0.168 A 
HETATM   21  C22 UNL     1      33.163   6.362  45.906  1.00  0.00     0.038 A 
BRANCH  20  22
HETATM   22  O1  UNL     1      33.464   5.898  43.565  1.00  0.00    -0.383 OA
HETATM   23  C1  UNL     1      33.389   4.718  42.790  1.00  0.00     0.202 C 
ENDBRANCH  20  22
ENDBRANCH  15  17
ENDBRANCH   1  15
BRANCH   9  24
HETATM   24  C12 UNL     1      24.053   2.274  51.056  1.00  0.00     0.128 C 
BRANCH  24  25
HETATM   25  C13 UNL     1      24.757   1.173  51.859  1.00  0.00     0.050 C 
BRANCH  25  26
HETATM   26  C14 UNL     1      25.540   1.846  52.967  1.00  0.00     0.274 C 
BRANCH  26  27
HETATM   27  N5  UNL     1      26.806   1.228  53.192  1.00  0.00     0.092 N 
HETATM   28  C15 UNL     1      27.014   0.736  54.517  1.00  0.00     0.298 C 
HETATM   29  C16 UNL     1      28.415   0.214  54.701  1.00  0.00     0.198 C 
HETATM   30  O2  UNL     1      29.398   1.079  54.268  1.00  0.00    -0.388 OA
HETATM   31  C17 UNL     1      28.863   2.327  53.904  1.00  0.00     0.198 C 
HETATM   32  C18 UNL     1      27.846   2.125  52.795  1.00  0.00     0.298 C 
ENDBRANCH  26  27
ENDBRANCH  25  26
ENDBRANCH  24  25
ENDBRANCH   9  24
TORSDOF 7
ENDMDL
