MODEL 1
REMARK VINA RESULT:      -7.8      0.000      0.000
REMARK  7 active torsions:
REMARK  status: ('A' for Active; 'I' for Inactive)
REMARK    1  A    between atoms: O1_2  and  C2_3 
REMARK    2  A    between atoms: C2_3  and  C3_4 
REMARK    3  A    between atoms: C8_12  and  N3_13 
REMARK    4  A    between atoms: N3_13  and  C9_14 
REMARK    5  A    between atoms: C17_25  and  C18_26 
REMARK    6  A    between atoms: C18_26  and  O4_27 
REMARK    7  A    between atoms: O4_27  and  P2_28 
ROOT
HETATM    1  C3  UNL     1      24.062  -0.801  53.819  1.00  0.00     0.184 C 
HETATM    2  O2  UNL     1      23.233  -0.356  52.776  1.00  0.00    -0.338 OA
HETATM    3  C4  UNL     1      23.006   0.978  52.487  1.00  0.00     0.105 A 
HETATM    4  C5  UNL     1      21.829   1.536  52.023  1.00  0.00     0.072 A 
HETATM    5  C6  UNL     1      21.747   2.900  51.775  1.00  0.00     0.075 A 
HETATM    6  N1  UNL     1      20.593   3.426  51.323  1.00  0.00    -0.241 NA
HETATM    7  C7  UNL     1      20.507   4.743  51.082  1.00  0.00     0.236 A 
HETATM    8  N2  UNL     1      21.592   5.508  51.302  1.00  0.00    -0.224 NA
HETATM    9  C8  UNL     1      22.750   4.995  51.754  1.00  0.00     0.142 A 
HETATM   10  C14 UNL     1      22.892   3.654  52.016  1.00  0.00     0.042 A 
HETATM   11  C15 UNL     1      24.070   3.140  52.473  1.00  0.00     0.057 A 
HETATM   12  C16 UNL     1      24.104   1.791  52.704  1.00  0.00     0.103 A 
HETATM   13  O3  UNL     1      25.265   1.204  53.168  1.00  0.00    -0.338 OA
HETATM   14  C17 UNL     1      25.319   0.035  53.943  1.00  0.00     0.184 C 
ENDROOT
BRANCH   9  15
HETATM   15  N3  UNL     1      23.811   5.920  51.940  1.00  0.00    -0.339 N 
HETATM   16  H9  UNL     1      24.191   6.354  52.802  1.00  0.00     0.167 HD
BRANCH  15  17
HETATM   17  C9  UNL     1      24.545   6.402  50.821  1.00  0.00     0.048 A 
HETATM   18  C10 UNL     1      25.433   5.648  50.075  1.00  0.00     0.031 A 
HETATM   19  C11 UNL     1      26.135   6.103  49.007  1.00  0.00     0.004 A 
HETATM   20  C12 UNL     1      26.121   7.369  48.452  1.00  0.00     0.025 A 
HETATM   21  C13 UNL     1      25.349   8.442  48.912  1.00  0.00     0.049 A 
HETATM   22 CL1  UNL     1      25.424  10.000  48.115  1.00  0.00    -0.083 Cl
HETATM   23  P1  UNL     1      24.365   8.059  50.292  1.00  0.00     0.021 P 
ENDBRANCH  15  17
ENDBRANCH   9  15
BRANCH  14  24
HETATM   24  C18 UNL     1      26.534  -0.779  53.559  1.00  0.00     0.207 C 
BRANCH  24  25
HETATM   25  O4  UNL     1      27.508  -0.610  54.521  1.00  0.00    -0.365 OA
BRANCH  25  26
HETATM   26  P2  UNL     1      28.956   0.077  53.907  1.00  0.00     0.008 P 
HETATM   27  C19 UNL     1      28.712   1.904  53.703  1.00  0.00     0.072 C 
HETATM   28  H17 UNL     1      29.372  -0.472  52.637  1.00  0.00     0.087 HD
ENDBRANCH  25  26
ENDBRANCH  24  25
ENDBRANCH  14  24
BRANCH   1  29
HETATM   29  C2  UNL     1      23.289  -0.796  55.115  1.00  0.00     0.202 C 
BRANCH  29  30
HETATM   30  O1  UNL     1      22.391  -1.812  55.269  1.00  0.00    -0.393 OA
HETATM   31  C1  UNL     1      21.200  -1.596  54.635  1.00  0.00     0.201 C 
ENDBRANCH  29  30
ENDBRANCH   1  29
TORSDOF 7
ENDMDL
MODEL 2
REMARK VINA RESULT:      -7.5      4.370      6.651
REMARK  7 active torsions:
REMARK  status: ('A' for Active; 'I' for Inactive)
REMARK    1  A    between atoms: O1_2  and  C2_3 
REMARK    2  A    between atoms: C2_3  and  C3_4 
REMARK    3  A    between atoms: C8_12  and  N3_13 
REMARK    4  A    between atoms: N3_13  and  C9_14 
REMARK    5  A    between atoms: C17_25  and  C18_26 
REMARK    6  A    between atoms: C18_26  and  O4_27 
REMARK    7  A    between atoms: O4_27  and  P2_28 
ROOT
HETATM    1  C3  UNL     1      26.144   1.725  53.374  1.00  0.00     0.184 C 
HETATM    2  O2  UNL     1      25.086   2.618  53.611  1.00  0.00    -0.338 OA
HETATM    3  C4  UNL     1      23.904   2.620  52.891  1.00  0.00     0.105 A 
HETATM    4  C5  UNL     1      23.144   3.725  52.550  1.00  0.00     0.072 A 
HETATM    5  C6  UNL     1      21.973   3.574  51.820  1.00  0.00     0.075 A 
HETATM    6  N1  UNL     1      21.246   4.661  51.497  1.00  0.00    -0.241 NA
HETATM    7  C7  UNL     1      20.113   4.522  50.792  1.00  0.00     0.236 A 
HETATM    8  N2  UNL     1      19.734   3.285  50.424  1.00  0.00    -0.224 NA
HETATM    9  C8  UNL     1      20.450   2.193  50.740  1.00  0.00     0.142 A 
HETATM   10  C14 UNL     1      21.617   2.278  51.461  1.00  0.00     0.042 A 
HETATM   11  C15 UNL     1      22.338   1.165  51.778  1.00  0.00     0.057 A 
HETATM   12  C16 UNL     1      23.487   1.361  52.499  1.00  0.00     0.103 A 
HETATM   13  O3  UNL     1      24.266   0.279  52.854  1.00  0.00    -0.338 OA
HETATM   14  C17 UNL     1      25.652   0.325  53.074  1.00  0.00     0.184 C 
ENDROOT
BRANCH   9  15
HETATM   15  N3  UNL     1      19.928   0.952  50.286  1.00  0.00    -0.339 N 
HETATM   16  H9  UNL     1      20.183   0.366  49.470  1.00  0.00     0.167 HD
BRANCH  15  17
HETATM   17  C9  UNL     1      18.874   0.317  50.997  1.00  0.00     0.048 A 
HETATM   18  C10 UNL     1      19.005  -0.278  52.240  1.00  0.00     0.031 A 
HETATM   19  C11 UNL     1      18.001  -0.885  52.922  1.00  0.00     0.004 A 
HETATM   20  C12 UNL     1      16.681  -1.040  52.542  1.00  0.00     0.025 A 
HETATM   21  C13 UNL     1      16.129  -0.579  51.342  1.00  0.00     0.049 A 
HETATM   22 CL1  UNL     1      14.435  -0.842  50.981  1.00  0.00    -0.083 Cl
HETATM   23  P1  UNL     1      17.266   0.240  50.313  1.00  0.00     0.021 P 
ENDBRANCH  15  17
ENDBRANCH   9  15
BRANCH  14  24
HETATM   24  C18 UNL     1      26.024  -0.618  54.197  1.00  0.00     0.207 C 
BRANCH  24  25
HETATM   25  O4  UNL     1      27.381  -0.522  54.429  1.00  0.00    -0.365 OA
BRANCH  25  26
HETATM   26  P2  UNL     1      28.328  -1.373  53.278  1.00  0.00     0.008 P 
HETATM   27  C19 UNL     1      30.102  -0.870  53.476  1.00  0.00     0.072 C 
HETATM   28  H17 UNL     1      27.937  -1.136  51.907  1.00  0.00     0.087 HD
ENDBRANCH  25  26
ENDBRANCH  24  25
ENDBRANCH  14  24
BRANCH   1  29
HETATM   29  C2  UNL     1      26.997   2.244  52.242  1.00  0.00     0.202 C 
BRANCH  29  30
HETATM   30  O1  UNL     1      28.341   2.273  52.483  1.00  0.00    -0.393 OA
HETATM   31  C1  UNL     1      28.661   2.520  53.787  1.00  0.00     0.201 C 
ENDBRANCH  29  30
ENDBRANCH   1  29
TORSDOF 7
ENDMDL
MODEL 3
REMARK VINA RESULT:      -7.5      3.665      6.599
REMARK  7 active torsions:
REMARK  status: ('A' for Active; 'I' for Inactive)
REMARK    1  A    between atoms: O1_2  and  C2_3 
REMARK    2  A    between atoms: C2_3  and  C3_4 
REMARK    3  A    between atoms: C8_12  and  N3_13 
REMARK    4  A    between atoms: N3_13  and  C9_14 
REMARK    5  A    between atoms: C17_25  and  C18_26 
REMARK    6  A    between atoms: C18_26  and  O4_27 
REMARK    7  A    between atoms: O4_27  and  P2_28 
ROOT
HETATM    1  C3  UNL     1      27.109   1.897  51.706  1.00  0.00     0.184 C 
HETATM    2  O2  UNL     1      26.454   0.673  51.919  1.00  0.00    -0.338 OA
HETATM    3  C4  UNL     1      25.162   0.564  52.401  1.00  0.00     0.105 A 
HETATM    4  C5  UNL     1      24.670  -0.424  53.235  1.00  0.00     0.072 A 
HETATM    5  C6  UNL     1      23.343  -0.405  53.641  1.00  0.00     0.075 A 
HETATM    6  N1  UNL     1      22.881  -1.375  54.453  1.00  0.00    -0.241 NA
HETATM    7  C7  UNL     1      21.598  -1.362  54.848  1.00  0.00     0.236 A 
HETATM    8  N2  UNL     1      20.803  -0.367  54.414  1.00  0.00    -0.224 NA
HETATM    9  C8  UNL     1      21.251   0.607  53.604  1.00  0.00     0.142 A 
HETATM   10  C14 UNL     1      22.554   0.641  53.169  1.00  0.00     0.042 A 
HETATM   11  C15 UNL     1      23.002   1.632  52.346  1.00  0.00     0.057 A 
HETATM   12  C16 UNL     1      24.319   1.573  51.972  1.00  0.00     0.103 A 
HETATM   13  O3  UNL     1      24.839   2.544  51.140  1.00  0.00    -0.338 OA
HETATM   14  C17 UNL     1      26.186   2.941  51.114  1.00  0.00     0.184 C 
ENDROOT
BRANCH   9  15
HETATM   15  N3  UNL     1      20.300   1.591  53.226  1.00  0.00    -0.339 N 
HETATM   16  H9  UNL     1      20.078   2.516  53.639  1.00  0.00     0.167 HD
BRANCH  15  17
HETATM   17  C9  UNL     1      19.454   1.374  52.104  1.00  0.00     0.048 A 
HETATM   18  C10 UNL     1      18.609   0.289  51.949  1.00  0.00     0.031 A 
HETATM   19  C11 UNL     1      17.801   0.078  50.881  1.00  0.00     0.004 A 
HETATM   20  C12 UNL     1      17.648   0.866  49.755  1.00  0.00     0.025 A 
HETATM   21  C13 UNL     1      18.328   2.066  49.514  1.00  0.00     0.049 A 
HETATM   22 CL1  UNL     1      18.041   2.972  48.042  1.00  0.00    -0.083 Cl
HETATM   23  P1  UNL     1      19.427   2.519  50.782  1.00  0.00     0.021 P 
ENDBRANCH  15  17
ENDBRANCH   9  15
BRANCH  14  24
HETATM   24  C18 UNL     1      26.597   3.266  49.695  1.00  0.00     0.207 C 
BRANCH  24  25
HETATM   25  O4  UNL     1      25.625   4.057  49.119  1.00  0.00    -0.365 OA
BRANCH  25  26
HETATM   26  P2  UNL     1      25.975   5.735  49.207  1.00  0.00     0.008 P 
HETATM   27  C19 UNL     1      24.889   6.505  50.499  1.00  0.00     0.072 C 
HETATM   28  H17 UNL     1      25.774   6.442  47.963  1.00  0.00     0.087 HD
ENDBRANCH  25  26
ENDBRANCH  24  25
ENDBRANCH  14  24
BRANCH   1  29
HETATM   29  C2  UNL     1      27.701   2.385  53.005  1.00  0.00     0.202 C 
BRANCH  29  30
HETATM   30  O1  UNL     1      28.950   1.915  53.297  1.00  0.00    -0.393 OA
HETATM   31  C1  UNL     1      28.980   1.056  54.358  1.00  0.00     0.201 C 
ENDBRANCH  29  30
ENDBRANCH   1  29
TORSDOF 7
ENDMDL
MODEL 4
REMARK VINA RESULT:      -7.3      2.570      3.025
REMARK  7 active torsions:
REMARK  status: ('A' for Active; 'I' for Inactive)
REMARK    1  A    between atoms: O1_2  and  C2_3 
REMARK    2  A    between atoms: C2_3  and  C3_4 
REMARK    3  A    between atoms: C8_12  and  N3_13 
REMARK    4  A    between atoms: N3_13  and  C9_14 
REMARK    5  A    between atoms: C17_25  and  C18_26 
REMARK    6  A    between atoms: C18_26  and  O4_27 
REMARK    7  A    between atoms: O4_27  and  P2_28 
ROOT
HETATM    1  C3  UNL     1      21.629  -0.142  52.387  1.00  0.00     0.184 C 
HETATM    2  O2  UNL     1      21.757   0.040  51.000  1.00  0.00    -0.338 OA
HETATM    3  C4  UNL     1      22.128   1.235  50.410  1.00  0.00     0.105 A 
HETATM    4  C5  UNL     1      21.679   1.737  49.202  1.00  0.00     0.072 A 
HETATM    5  C6  UNL     1      22.141   2.958  48.732  1.00  0.00     0.075 A 
HETATM    6  N1  UNL     1      21.693   3.431  47.554  1.00  0.00    -0.241 NA
HETATM    7  C7  UNL     1      22.136   4.612  47.094  1.00  0.00     0.236 A 
HETATM    8  N2  UNL     1      23.027   5.295  47.836  1.00  0.00    -0.224 NA
HETATM    9  C8  UNL     1      23.483   4.835  49.013  1.00  0.00     0.142 A 
HETATM   10  C14 UNL     1      23.062   3.632  49.529  1.00  0.00     0.042 A 
HETATM   11  C15 UNL     1      23.529   3.170  50.725  1.00  0.00     0.057 A 
HETATM   12  C16 UNL     1      23.045   1.962  51.149  1.00  0.00     0.103 A 
HETATM   13  O3  UNL     1      23.474   1.434  52.350  1.00  0.00    -0.338 OA
HETATM   14  C17 UNL     1      22.726   0.562  53.157  1.00  0.00     0.184 C 
ENDROOT
BRANCH   9  15
HETATM   15  N3  UNL     1      24.421   5.662  49.686  1.00  0.00    -0.339 N 
HETATM   16  H9  UNL     1      24.322   6.251  50.533  1.00  0.00     0.167 HD
BRANCH  15  17
HETATM   17  C9  UNL     1      25.752   5.775  49.200  1.00  0.00     0.048 A 
HETATM   18  C10 UNL     1      26.632   4.718  49.053  1.00  0.00     0.031 A 
HETATM   19  C11 UNL     1      27.903   4.822  48.589  1.00  0.00     0.004 A 
HETATM   20  C12 UNL     1      28.573   5.960  48.180  1.00  0.00     0.025 A 
HETATM   21  C13 UNL     1      28.036   7.252  48.171  1.00  0.00     0.049 A 
HETATM   22 CL1  UNL     1      28.995   8.613  47.626  1.00  0.00    -0.083 Cl
HETATM   23  P1  UNL     1      26.394   7.334  48.736  1.00  0.00     0.021 P 
ENDBRANCH  15  17
ENDBRANCH   9  15
BRANCH  14  24
HETATM   24  C18 UNL     1      23.645  -0.448  53.809  1.00  0.00     0.207 C 
BRANCH  24  25
HETATM   25  O4  UNL     1      24.872  -0.405  53.181  1.00  0.00    -0.365 OA
BRANCH  25  26
HETATM   26  P2  UNL     1      26.157   0.035  54.232  1.00  0.00     0.008 P 
HETATM   27  C19 UNL     1      26.676   1.773  53.846  1.00  0.00     0.072 C 
HETATM   28  H17 UNL     1      27.316  -0.821  54.129  1.00  0.00     0.087 HD
ENDBRANCH  25  26
ENDBRANCH  24  25
ENDBRANCH  14  24
BRANCH   1  29
HETATM   29  C2  UNL     1      20.271   0.339  52.835  1.00  0.00     0.202 C 
BRANCH  29  30
HETATM   30  O1  UNL     1      19.209  -0.158  52.135  1.00  0.00    -0.393 OA
HETATM   31  C1  UNL     1      18.403   0.806  51.599  1.00  0.00     0.201 C 
ENDBRANCH  29  30
ENDBRANCH   1  29
TORSDOF 7
ENDMDL
MODEL 5
REMARK VINA RESULT:      -7.2      4.176      7.125
REMARK  7 active torsions:
REMARK  status: ('A' for Active; 'I' for Inactive)
REMARK    1  A    between atoms: O1_2  and  C2_3 
REMARK    2  A    between atoms: C2_3  and  C3_4 
REMARK    3  A    between atoms: C8_12  and  N3_13 
REMARK    4  A    between atoms: N3_13  and  C9_14 
REMARK    5  A    between atoms: C17_25  and  C18_26 
REMARK    6  A    between atoms: C18_26  and  O4_27 
REMARK    7  A    between atoms: O4_27  and  P2_28 
ROOT
HETATM    1  C3  UNL     1      18.959   3.041  51.215  1.00  0.00     0.184 C 
HETATM    2  O2  UNL     1      19.399   2.678  52.499  1.00  0.00    -0.338 OA
HETATM    3  C4  UNL     1      20.549   1.946  52.741  1.00  0.00     0.105 A 
HETATM    4  C5  UNL     1      20.740   1.012  53.742  1.00  0.00     0.072 A 
HETATM    5  C6  UNL     1      21.954   0.351  53.865  1.00  0.00     0.075 A 
HETATM    6  N1  UNL     1      22.122  -0.556  54.846  1.00  0.00    -0.241 NA
HETATM    7  C7  UNL     1      23.294  -1.198  54.970  1.00  0.00     0.236 A 
HETATM    8  N2  UNL     1      24.278  -0.911  54.099  1.00  0.00    -0.224 NA
HETATM    9  C8  UNL     1      24.124  -0.008  53.115  1.00  0.00     0.142 A 
HETATM   10  C14 UNL     1      22.945   0.678  52.944  1.00  0.00     0.042 A 
HETATM   11  C15 UNL     1      22.795   1.593  51.944  1.00  0.00     0.057 A 
HETATM   12  C16 UNL     1      21.580   2.219  51.861  1.00  0.00     0.103 A 
HETATM   13  O3  UNL     1      21.359   3.157  50.872  1.00  0.00    -0.338 OA
HETATM   14  C17 UNL     1      20.105   3.459  50.317  1.00  0.00     0.184 C 
ENDROOT
BRANCH   9  15
HETATM   15  N3  UNL     1      25.247   0.193  52.271  1.00  0.00    -0.339 N 
HETATM   16  H9  UNL     1      25.307   0.415  51.260  1.00  0.00     0.167 HD
BRANCH  15  17
HETATM   17  C9  UNL     1      26.564   0.096  52.797  1.00  0.00     0.048 A 
HETATM   18  C10 UNL     1      27.337  -1.052  52.787  1.00  0.00     0.031 A 
HETATM   19  C11 UNL     1      28.594  -1.149  53.289  1.00  0.00     0.004 A 
HETATM   20  C12 UNL     1      29.349  -0.165  53.898  1.00  0.00     0.025 A 
HETATM   21  C13 UNL     1      28.934   1.155  54.109  1.00  0.00     0.049 A 
HETATM   22 CL1  UNL     1      29.993   2.308  54.895  1.00  0.00    -0.083 Cl
HETATM   23  P1  UNL     1      27.329   1.488  53.529  1.00  0.00     0.021 P 
ENDBRANCH  15  17
ENDBRANCH   9  15
BRANCH  14  24
HETATM   24  C18 UNL     1      20.022   4.937  50.009  1.00  0.00     0.207 C 
BRANCH  24  25
HETATM   25  O4  UNL     1      20.703   5.187  48.836  1.00  0.00    -0.365 OA
BRANCH  25  26
HETATM   26  P2  UNL     1      22.062   6.214  49.046  1.00  0.00     0.008 P 
HETATM   27  C19 UNL     1      21.974   6.985  50.730  1.00  0.00     0.072 C 
HETATM   28  H17 UNL     1      22.155   7.272  48.065  1.00  0.00     0.087 HD
ENDBRANCH  25  26
ENDBRANCH  24  25
ENDBRANCH  14  24
BRANCH   1  29
HETATM   29  C2  UNL     1      18.192   1.895  50.602  1.00  0.00     0.202 C 
BRANCH  29  30
HETATM   30  O1  UNL     1      17.532   1.088  51.484  1.00  0.00    -0.393 OA
HETATM   31  C1  UNL     1      17.809  -0.240  51.327  1.00  0.00     0.201 C 
ENDBRANCH  29  30
ENDBRANCH   1  29
TORSDOF 7
ENDMDL
MODEL 6
REMARK VINA RESULT:      -7.2      4.871      8.119
REMARK  7 active torsions:
REMARK  status: ('A' for Active; 'I' for Inactive)
REMARK    1  A    between atoms: O1_2  and  C2_3 
REMARK    2  A    between atoms: C2_3  and  C3_4 
REMARK    3  A    between atoms: C8_12  and  N3_13 
REMARK    4  A    between atoms: N3_13  and  C9_14 
REMARK    5  A    between atoms: C17_25  and  C18_26 
REMARK    6  A    between atoms: C18_26  and  O4_27 
REMARK    7  A    between atoms: O4_27  and  P2_28 
ROOT
HETATM    1  C3  UNL     1      27.987   7.558  48.264  1.00  0.00     0.184 C 
HETATM    2  O2  UNL     1      27.113   7.741  49.348  1.00  0.00    -0.338 OA
HETATM    3  C4  UNL     1      26.078   6.876  49.657  1.00  0.00     0.105 A 
HETATM    4  C5  UNL     1      24.844   7.217  50.181  1.00  0.00     0.072 A 
HETATM    5  C6  UNL     1      23.896   6.237  50.441  1.00  0.00     0.075 A 
HETATM    6  N1  UNL     1      22.699   6.587  50.952  1.00  0.00    -0.241 NA
HETATM    7  C7  UNL     1      21.779   5.644  51.206  1.00  0.00     0.236 A 
HETATM    8  N2  UNL     1      22.084   4.361  50.940  1.00  0.00    -0.224 NA
HETATM    9  C8  UNL     1      23.274   3.999  50.431  1.00  0.00     0.142 A 
HETATM   10  C14 UNL     1      24.252   4.923  50.152  1.00  0.00     0.042 A 
HETATM   11  C15 UNL     1      25.457   4.548  49.636  1.00  0.00     0.057 A 
HETATM   12  C16 UNL     1      26.361   5.548  49.394  1.00  0.00     0.103 A 
HETATM   13  O3  UNL     1      27.601   5.240  48.872  1.00  0.00    -0.338 OA
HETATM   14  C17 UNL     1      28.379   6.106  48.086  1.00  0.00     0.184 C 
ENDROOT
BRANCH   9  15
HETATM   15  N3  UNL     1      23.457   2.609  50.201  1.00  0.00    -0.339 N 
HETATM   16  H9  UNL     1      23.504   2.066  49.319  1.00  0.00     0.167 HD
BRANCH  15  17
HETATM   17  C9  UNL     1      23.612   1.718  51.298  1.00  0.00     0.048 A 
HETATM   18  C10 UNL     1      24.805   1.473  51.955  1.00  0.00     0.031 A 
HETATM   19  C11 UNL     1      24.956   0.623  53.001  1.00  0.00     0.004 A 
HETATM   20  C12 UNL     1      23.995  -0.156  53.616  1.00  0.00     0.025 A 
HETATM   21  C13 UNL     1      22.643  -0.204  53.253  1.00  0.00     0.049 A 
HETATM   22 CL1  UNL     1      21.525  -1.237  54.119  1.00  0.00    -0.083 Cl
HETATM   23  P1  UNL     1      22.238   0.828  51.915  1.00  0.00     0.021 P 
ENDBRANCH  15  17
ENDBRANCH   9  15
BRANCH  14  24
HETATM   24  C18 UNL     1      29.845   5.911  48.407  1.00  0.00     0.207 C 
BRANCH  24  25
HETATM   25  O4  UNL     1      30.274   4.732  47.835  1.00  0.00    -0.365 OA
BRANCH  25  26
HETATM   26  P2  UNL     1      31.960   4.708  47.513  1.00  0.00     0.008 P 
HETATM   27  C19 UNL     1      32.383   3.114  46.663  1.00  0.00     0.072 C 
HETATM   28  H17 UNL     1      32.784   4.828  48.693  1.00  0.00     0.087 HD
ENDBRANCH  25  26
ENDBRANCH  24  25
ENDBRANCH  14  24
BRANCH   1  29
HETATM   29  C2  UNL     1      27.350   8.095  47.006  1.00  0.00     0.202 C 
BRANCH  29  30
HETATM   30  O1  UNL     1      26.654   9.261  47.149  1.00  0.00    -0.393 OA
HETATM   31  C1  UNL     1      25.387   9.211  46.642  1.00  0.00     0.201 C 
ENDBRANCH  29  30
ENDBRANCH   1  29
TORSDOF 7
ENDMDL
MODEL 7
REMARK VINA RESULT:      -7.1      4.386      8.147
REMARK  7 active torsions:
REMARK  status: ('A' for Active; 'I' for Inactive)
REMARK    1  A    between atoms: O1_2  and  C2_3 
REMARK    2  A    between atoms: C2_3  and  C3_4 
REMARK    3  A    between atoms: C8_12  and  N3_13 
REMARK    4  A    between atoms: N3_13  and  C9_14 
REMARK    5  A    between atoms: C17_25  and  C18_26 
REMARK    6  A    between atoms: C18_26  and  O4_27 
REMARK    7  A    between atoms: O4_27  and  P2_28 
ROOT
HETATM    1  C3  UNL     1      27.091   7.472  48.342  1.00  0.00     0.184 C 
HETATM    2  O2  UNL     1      26.360   7.537  49.539  1.00  0.00    -0.338 OA
HETATM    3  C4  UNL     1      25.557   6.513  50.009  1.00  0.00     0.105 A 
HETATM    4  C5  UNL     1      24.367   6.645  50.703  1.00  0.00     0.072 A 
HETATM    5  C6  UNL     1      23.665   5.521  51.114  1.00  0.00     0.075 A 
HETATM    6  N1  UNL     1      22.508   5.668  51.788  1.00  0.00    -0.241 NA
HETATM    7  C7  UNL     1      21.825   4.585  52.189  1.00  0.00     0.236 A 
HETATM    8  N2  UNL     1      22.323   3.369  51.900  1.00  0.00    -0.224 NA
HETATM    9  C8  UNL     1      23.475   3.208  51.228  1.00  0.00     0.142 A 
HETATM   10  C14 UNL     1      24.215   4.283  50.796  1.00  0.00     0.042 A 
HETATM   11  C15 UNL     1      25.384   4.112  50.114  1.00  0.00     0.057 A 
HETATM   12  C16 UNL     1      26.042   5.249  49.728  1.00  0.00     0.103 A 
HETATM   13  O3  UNL     1      27.232   5.150  49.034  1.00  0.00    -0.338 OA
HETATM   14  C17 UNL     1      27.717   6.109  48.131  1.00  0.00     0.184 C 
ENDROOT
BRANCH   9  15
HETATM   15  N3  UNL     1      23.879   1.867  50.995  1.00  0.00    -0.339 N 
HETATM   16  H9  UNL     1      23.865   1.293  50.131  1.00  0.00     0.167 HD
BRANCH  15  17
HETATM   17  C9  UNL     1      24.406   1.084  52.058  1.00  0.00     0.048 A 
HETATM   18  C10 UNL     1      23.657   0.264  52.883  1.00  0.00     0.031 A 
HETATM   19  C11 UNL     1      24.156  -0.485  53.898  1.00  0.00     0.004 A 
HETATM   20  C12 UNL     1      25.469  -0.588  54.318  1.00  0.00     0.025 A 
HETATM   21  C13 UNL     1      26.554   0.086  53.745  1.00  0.00     0.049 A 
HETATM   22 CL1  UNL     1      28.173  -0.136  54.375  1.00  0.00    -0.083 Cl
HETATM   23  P1  UNL     1      26.119   1.110  52.410  1.00  0.00     0.021 P 
ENDBRANCH  15  17
ENDBRANCH   9  15
BRANCH  14  24
HETATM   24  C18 UNL     1      29.223   6.198  48.236  1.00  0.00     0.207 C 
BRANCH  24  25
HETATM   25  O4  UNL     1      29.614   7.492  47.965  1.00  0.00    -0.365 OA
BRANCH  25  26
HETATM   26  P2  UNL     1      30.951   8.010  48.909  1.00  0.00     0.008 P 
HETATM   27  C19 UNL     1      30.651   9.753  49.464  1.00  0.00     0.072 C 
HETATM   28  H17 UNL     1      32.215   7.965  48.210  1.00  0.00     0.087 HD
ENDBRANCH  25  26
ENDBRANCH  24  25
ENDBRANCH  14  24
BRANCH   1  29
HETATM   29  C2  UNL     1      26.194   7.831  47.183  1.00  0.00     0.202 C 
BRANCH  29  30
HETATM   30  O1  UNL     1      25.317   8.852  47.411  1.00  0.00    -0.393 OA
HETATM   31  C1  UNL     1      25.548   9.958  46.643  1.00  0.00     0.201 C 
ENDBRANCH  29  30
ENDBRANCH   1  29
TORSDOF 7
ENDMDL
MODEL 8
REMARK VINA RESULT:      -6.9      3.001      4.084
REMARK  7 active torsions:
REMARK  status: ('A' for Active; 'I' for Inactive)
REMARK    1  A    between atoms: O1_2  and  C2_3 
REMARK    2  A    between atoms: C2_3  and  C3_4 
REMARK    3  A    between atoms: C8_12  and  N3_13 
REMARK    4  A    between atoms: N3_13  and  C9_14 
REMARK    5  A    between atoms: C17_25  and  C18_26 
REMARK    6  A    between atoms: C18_26  and  O4_27 
REMARK    7  A    between atoms: O4_27  and  P2_28 
ROOT
HETATM    1  C3  UNL     1      21.672   0.705  51.323  1.00  0.00     0.184 C 
HETATM    2  O2  UNL     1      21.877   1.036  49.974  1.00  0.00    -0.338 OA
HETATM    3  C4  UNL     1      22.358   2.261  49.546  1.00  0.00     0.105 A 
HETATM    4  C5  UNL     1      22.002   2.933  48.391  1.00  0.00     0.072 A 
HETATM    5  C6  UNL     1      22.571   4.163  48.089  1.00  0.00     0.075 A 
HETATM    6  N1  UNL     1      22.212   4.802  46.959  1.00  0.00    -0.241 NA
HETATM    7  C7  UNL     1      22.758   5.992  46.661  1.00  0.00     0.236 A 
HETATM    8  N2  UNL     1      23.660   6.515  47.512  1.00  0.00    -0.224 NA
HETATM    9  C8  UNL     1      24.026   5.887  48.643  1.00  0.00     0.142 A 
HETATM   10  C14 UNL     1      23.498   4.668  48.995  1.00  0.00     0.042 A 
HETATM   11  C15 UNL     1      23.875   4.036  50.143  1.00  0.00     0.057 A 
HETATM   12  C16 UNL     1      23.288   2.826  50.401  1.00  0.00     0.103 A 
HETATM   13  O3  UNL     1      23.623   2.131  51.546  1.00  0.00    -0.338 OA
HETATM   14  C17 UNL     1      22.779   1.229  52.214  1.00  0.00     0.184 C 
ENDROOT
BRANCH   9  15
HETATM   15  N3  UNL     1      24.987   6.557  49.445  1.00  0.00    -0.339 N 
HETATM   16  H9  UNL     1      24.888   7.067  50.342  1.00  0.00     0.167 HD
BRANCH  15  17
HETATM   17  C9  UNL     1      26.351   6.597  49.043  1.00  0.00     0.048 A 
HETATM   18  C10 UNL     1      27.105   5.491  48.694  1.00  0.00     0.031 A 
HETATM   19  C11 UNL     1      28.406   5.526  48.310  1.00  0.00     0.004 A 
HETATM   20  C12 UNL     1      29.232   6.627  48.189  1.00  0.00     0.025 A 
HETATM   21  C13 UNL     1      28.856   7.950  48.450  1.00  0.00     0.049 A 
HETATM   22 CL1  UNL     1      30.005   9.258  48.257  1.00  0.00    -0.083 Cl
HETATM   23  P1  UNL     1      27.204   8.122  48.962  1.00  0.00     0.021 P 
ENDBRANCH  15  17
ENDBRANCH   9  15
BRANCH  14  24
HETATM   24  C18 UNL     1      23.593   0.084  52.774  1.00  0.00     0.207 C 
BRANCH  24  25
HETATM   25  O4  UNL     1      22.754  -0.984  53.015  1.00  0.00    -0.365 OA
BRANCH  25  26
HETATM   26  P2  UNL     1      22.142  -1.018  54.618  1.00  0.00     0.008 P 
HETATM   27  C19 UNL     1      23.513  -1.499  55.771  1.00  0.00     0.072 C 
HETATM   28  H17 UNL     1      21.044  -1.937  54.807  1.00  0.00     0.087 HD
ENDBRANCH  25  26
ENDBRANCH  24  25
ENDBRANCH  14  24
BRANCH   1  29
HETATM   29  C2  UNL     1      20.332   1.231  51.774  1.00  0.00     0.202 C 
BRANCH  29  30
HETATM   30  O1  UNL     1      20.367   2.377  52.516  1.00  0.00    -0.393 OA
HETATM   31  C1  UNL     1      19.777   3.447  51.904  1.00  0.00     0.201 C 
ENDBRANCH  29  30
ENDBRANCH   1  29
TORSDOF 7
ENDMDL
MODEL 9
REMARK VINA RESULT:      -6.9      5.769      9.094
REMARK  7 active torsions:
REMARK  status: ('A' for Active; 'I' for Inactive)
REMARK    1  A    between atoms: O1_2  and  C2_3 
REMARK    2  A    between atoms: C2_3  and  C3_4 
REMARK    3  A    between atoms: C8_12  and  N3_13 
REMARK    4  A    between atoms: N3_13  and  C9_14 
REMARK    5  A    between atoms: C17_25  and  C18_26 
REMARK    6  A    between atoms: C18_26  and  O4_27 
REMARK    7  A    between atoms: O4_27  and  P2_28 
ROOT
HETATM    1  C3  UNL     1      30.919   7.170  47.394  1.00  0.00     0.184 C 
HETATM    2  O2  UNL     1      29.954   7.699  48.266  1.00  0.00    -0.338 OA
HETATM    3  C4  UNL     1      28.723   7.112  48.501  1.00  0.00     0.105 A 
HETATM    4  C5  UNL     1      27.527   7.764  48.742  1.00  0.00     0.072 A 
HETATM    5  C6  UNL     1      26.363   7.040  48.962  1.00  0.00     0.075 A 
HETATM    6  N1  UNL     1      25.208   7.692  49.195  1.00  0.00    -0.241 NA
HETATM    7  C7  UNL     1      24.079   6.998  49.408  1.00  0.00     0.236 A 
HETATM    8  N2  UNL     1      24.139   5.654  49.384  1.00  0.00    -0.224 NA
HETATM    9  C8  UNL     1      25.285   4.991  49.153  1.00  0.00     0.142 A 
HETATM   10  C14 UNL     1      26.468   5.653  48.928  1.00  0.00     0.042 A 
HETATM   11  C15 UNL     1      27.628   4.974  48.695  1.00  0.00     0.057 A 
HETATM   12  C16 UNL     1      28.751   5.729  48.483  1.00  0.00     0.103 A 
HETATM   13  O3  UNL     1      29.959   5.108  48.240  1.00  0.00    -0.338 OA
HETATM   14  C17 UNL     1      31.012   5.662  47.494  1.00  0.00     0.184 C 
ENDROOT
BRANCH   9  15
HETATM   15  N3  UNL     1      25.198   3.574  49.156  1.00  0.00    -0.339 N 
HETATM   16  H9  UNL     1      25.141   2.894  48.375  1.00  0.00     0.167 HD
BRANCH  15  17
HETATM   17  C9  UNL     1      25.177   2.862  50.387  1.00  0.00     0.048 A 
HETATM   18  C10 UNL     1      26.292   2.585  51.159  1.00  0.00     0.031 A 
HETATM   19  C11 UNL     1      26.276   1.906  52.333  1.00  0.00     0.004 A 
HETATM   20  C12 UNL     1      25.190   1.361  52.991  1.00  0.00     0.025 A 
HETATM   21  C13 UNL     1      23.864   1.419  52.544  1.00  0.00     0.049 A 
HETATM   22 CL1  UNL     1      22.576   0.686  53.477  1.00  0.00    -0.083 Cl
HETATM   23  P1  UNL     1      23.668   2.260  51.035  1.00  0.00     0.021 P 
ENDBRANCH  15  17
ENDBRANCH   9  15
BRANCH  14  24
HETATM   24  C18 UNL     1      32.338   5.254  48.098  1.00  0.00     0.207 C 
BRANCH  24  25
HETATM   25  O4  UNL     1      33.004   6.386  48.519  1.00  0.00    -0.365 OA
BRANCH  25  26
HETATM   26  P2  UNL     1      34.701   6.303  48.280  1.00  0.00     0.008 P 
HETATM   27  C19 UNL     1      35.378   8.028  48.196  1.00  0.00     0.072 C 
HETATM   28  H17 UNL     1      35.091   5.602  47.079  1.00  0.00     0.087 HD
ENDBRANCH  25  26
ENDBRANCH  24  25
ENDBRANCH  14  24
BRANCH   1  29
HETATM   29  C2  UNL     1      30.604   7.591  45.979  1.00  0.00     0.202 C 
BRANCH  29  30
HETATM   30  O1  UNL     1      29.965   8.790  45.849  1.00  0.00    -0.393 OA
HETATM   31  C1  UNL     1      29.702   9.136  44.554  1.00  0.00     0.201 C 
ENDBRANCH  29  30
ENDBRANCH   1  29
TORSDOF 7
ENDMDL
