MODEL 1
REMARK VINA RESULT:      -7.5      0.000      0.000
REMARK  9 active torsions:
REMARK  status: ('A' for Active; 'I' for Inactive)
REMARK    1  A    between atoms: C2_2  and  C3_3 
REMARK       I    between atoms: C3_3  and  N1_5 
REMARK    2  A    between atoms: N1_5  and  C4_6 
REMARK    3  A    between atoms: C6_8  and  N2_9 
REMARK    4  A    between atoms: N2_9  and  C7_10 
REMARK    5  A    between atoms: C13_19  and  O2_20 
REMARK    6  A    between atoms: C16_23  and  O3_24 
REMARK    7  A    between atoms: O3_24  and  C17_25 
REMARK    8  A    between atoms: C17_25  and  C18_26 
REMARK    9  A    between atoms: C18_26  and  N6_27 
ROOT
HETATM    1  C4  UNL     1      22.537   0.863  51.844  1.00  0.00     0.071 A 
HETATM    2  C5  UNL     1      23.554   1.226  52.700  1.00  0.00     0.065 A 
HETATM    3  C6  UNL     1      24.504   2.186  52.426  1.00  0.00     0.085 A 
HETATM    4  C13 UNL     1      24.363   2.782  51.191  1.00  0.00     0.098 A 
HETATM    5  C15 UNL     1      23.360   2.444  50.312  1.00  0.00     0.078 A 
HETATM    6  C16 UNL     1      22.431   1.478  50.625  1.00  0.00     0.098 A 
ENDROOT
BRANCH   3   7
HETATM    7  N2  UNL     1      25.553   2.572  53.294  1.00  0.00    -0.184 N 
HETATM    8  H6  UNL     1      25.381   3.435  53.867  1.00  0.00     0.184 HD
BRANCH   7   9
HETATM    9  C7  UNL     1      26.805   1.932  53.480  1.00  0.00     0.744 A 
HETATM   10  N3  UNL     1      27.931   2.487  53.920  1.00  0.00    -0.071 NA
HETATM   11  C8  UNL     1      29.093   1.852  54.082  1.00  0.00     0.168 A 
HETATM   12  C9  UNL     1      29.190   0.523  53.786  1.00  0.00     0.076 A 
HETATM   13  C10 UNL     1      30.141  -0.458  53.806  1.00  0.00     0.034 A 
HETATM   14  N4  UNL     1      28.051  -0.030  53.342  1.00  0.00    -0.228 N 
HETATM   15  C11 UNL     1      29.552  -1.625  53.363  1.00  0.00     0.022 A 
HETATM   16  C12 UNL     1      28.225  -1.350  53.069  1.00  0.00     0.119 A 
HETATM   17  N5  UNL     1      26.933   0.630  53.198  1.00  0.00     0.026 NA
ENDBRANCH   7   9
ENDBRANCH   3   7
BRANCH   4  18
HETATM   18  O2  UNL     1      25.267   3.764  50.814  1.00  0.00    -0.354 OA
HETATM   19  C14 UNL     1      26.376   3.465  49.992  1.00  0.00     0.210 C 
ENDBRANCH   4  18
BRANCH   1  20
HETATM   20  N1  UNL     1      21.586  -0.148  52.200  1.00  0.00    -0.321 N 
HETATM   21  C3  UNL     1      20.473   0.341  52.958  1.00  0.00     0.245 C 
HETATM   22  O1  UNL     1      20.503   1.577  53.194  1.00  0.00    -0.268 OA
HETATM   23  H4  UNL     1      21.717  -1.156  51.917  1.00  0.00     0.169 HD
BRANCH  21  24
HETATM   24  C2  UNL     1      19.454  -0.618  53.364  1.00  0.00     0.064 C 
HETATM   25  C1  UNL     1      18.285  -0.876  52.809  1.00  0.00     0.017 C 
ENDBRANCH  21  24
ENDBRANCH   1  20
BRANCH   6  26
HETATM   26  O3  UNL     1      21.395   1.097  49.770  1.00  0.00    -0.347 OA
BRANCH  26  27
HETATM   27  C17 UNL     1      20.748   2.144  49.075  1.00  0.00     0.206 C 
BRANCH  27  28
HETATM   28  C18 UNL     1      19.299   2.278  49.491  1.00  0.00     0.297 C 
BRANCH  28  29
HETATM   29  N6  UNL     1      18.959   3.648  49.824  1.00  0.00     0.082 N 
HETATM   30  C19 UNL     1      20.151   4.475  49.696  1.00  0.00     0.309 C 
HETATM   31  C20 UNL     1      18.553   3.677  51.215  1.00  0.00     0.309 C 
ENDBRANCH  28  29
ENDBRANCH  27  28
ENDBRANCH  26  27
ENDBRANCH   6  26
TORSDOF 9
ENDMDL
MODEL 2
REMARK VINA RESULT:      -7.5      3.439      6.913
REMARK  9 active torsions:
REMARK  status: ('A' for Active; 'I' for Inactive)
REMARK    1  A    between atoms: C2_2  and  C3_3 
REMARK       I    between atoms: C3_3  and  N1_5 
REMARK    2  A    between atoms: N1_5  and  C4_6 
REMARK    3  A    between atoms: C6_8  and  N2_9 
REMARK    4  A    between atoms: N2_9  and  C7_10 
REMARK    5  A    between atoms: C13_19  and  O2_20 
REMARK    6  A    between atoms: C16_23  and  O3_24 
REMARK    7  A    between atoms: O3_24  and  C17_25 
REMARK    8  A    between atoms: C17_25  and  C18_26 
REMARK    9  A    between atoms: C18_26  and  N6_27 
ROOT
HETATM    1  C4  UNL     1      26.411   1.618  52.015  1.00  0.00     0.071 A 
HETATM    2  C5  UNL     1      26.530   2.447  50.921  1.00  0.00     0.065 A 
HETATM    3  C6  UNL     1      25.546   3.302  50.474  1.00  0.00     0.085 A 
HETATM    4  C13 UNL     1      24.390   3.271  51.224  1.00  0.00     0.098 A 
HETATM    5  C15 UNL     1      24.237   2.456  52.321  1.00  0.00     0.078 A 
HETATM    6  C16 UNL     1      25.246   1.616  52.734  1.00  0.00     0.098 A 
ENDROOT
BRANCH   3   7
HETATM    7  N2  UNL     1      25.653   4.161  49.354  1.00  0.00    -0.184 N 
HETATM    8  H6  UNL     1      24.839   4.156  48.692  1.00  0.00     0.184 HD
BRANCH   7   9
HETATM    9  C7  UNL     1      26.728   5.026  49.024  1.00  0.00     0.744 A 
HETATM   10  N3  UNL     1      27.939   4.674  48.601  1.00  0.00    -0.071 NA
HETATM   11  C8  UNL     1      28.928   5.516  48.299  1.00  0.00     0.168 A 
HETATM   12  C9  UNL     1      28.734   6.862  48.418  1.00  0.00     0.076 A 
HETATM   13  C10 UNL     1      29.444   8.015  48.225  1.00  0.00     0.034 A 
HETATM   14  N4  UNL     1      27.511   7.211  48.846  1.00  0.00    -0.228 N 
HETATM   15  C11 UNL     1      28.621   9.075  48.545  1.00  0.00     0.022 A 
HETATM   16  C12 UNL     1      27.395   8.562  48.940  1.00  0.00     0.119 A 
HETATM   17  N5  UNL     1      26.571   6.351  49.130  1.00  0.00     0.026 NA
ENDBRANCH   7   9
ENDBRANCH   3   7
BRANCH   4  18
HETATM   18  O2  UNL     1      23.335   4.094  50.861  1.00  0.00    -0.354 OA
HETATM   19  C14 UNL     1      23.071   5.298  51.551  1.00  0.00     0.210 C 
ENDBRANCH   4  18
BRANCH   1  20
HETATM   20  N1  UNL     1      27.481   0.754  52.417  1.00  0.00    -0.321 N 
HETATM   21  C3  UNL     1      28.356   1.328  53.396  1.00  0.00     0.245 C 
HETATM   22  O1  UNL     1      28.052   2.498  53.748  1.00  0.00    -0.268 OA
HETATM   23  H4  UNL     1      27.592  -0.215  52.014  1.00  0.00     0.169 HD
BRANCH  21  24
HETATM   24  C2  UNL     1      29.473   0.520  53.865  1.00  0.00     0.064 C 
HETATM   25  C1  UNL     1      29.719  -0.761  53.658  1.00  0.00     0.017 C 
ENDBRANCH  21  24
ENDBRANCH   1  20
BRANCH   6  26
HETATM   26  O3  UNL     1      25.142   0.769  53.839  1.00  0.00    -0.347 OA
BRANCH  26  27
HETATM   27  C17 UNL     1      24.568  -0.500  53.596  1.00  0.00     0.206 C 
BRANCH  27  28
HETATM   28  C18 UNL     1      23.251  -0.665  54.323  1.00  0.00     0.297 C 
BRANCH  28  29
HETATM   29  N6  UNL     1      22.231  -1.238  53.466  1.00  0.00     0.082 N 
HETATM   30  C19 UNL     1      21.745  -0.210  52.557  1.00  0.00     0.309 C 
HETATM   31  C20 UNL     1      21.121  -1.639  54.307  1.00  0.00     0.309 C 
ENDBRANCH  28  29
ENDBRANCH  27  28
ENDBRANCH  26  27
ENDBRANCH   6  26
TORSDOF 9
ENDMDL
MODEL 3
REMARK VINA RESULT:      -7.5      1.762      4.614
REMARK  9 active torsions:
REMARK  status: ('A' for Active; 'I' for Inactive)
REMARK    1  A    between atoms: C2_2  and  C3_3 
REMARK       I    between atoms: C3_3  and  N1_5 
REMARK    2  A    between atoms: N1_5  and  C4_6 
REMARK    3  A    between atoms: C6_8  and  N2_9 
REMARK    4  A    between atoms: N2_9  and  C7_10 
REMARK    5  A    between atoms: C13_19  and  O2_20 
REMARK    6  A    between atoms: C16_23  and  O3_24 
REMARK    7  A    between atoms: O3_24  and  C17_25 
REMARK    8  A    between atoms: C17_25  and  C18_26 
REMARK    9  A    between atoms: C18_26  and  N6_27 
ROOT
HETATM    1  C4  UNL     1      24.069   3.727  51.579  1.00  0.00     0.071 A 
HETATM    2  C5  UNL     1      24.590   2.679  52.307  1.00  0.00     0.065 A 
HETATM    3  C6  UNL     1      23.841   1.677  52.884  1.00  0.00     0.085 A 
HETATM    4  C13 UNL     1      22.483   1.797  52.676  1.00  0.00     0.098 A 
HETATM    5  C15 UNL     1      21.930   2.830  51.956  1.00  0.00     0.078 A 
HETATM    6  C16 UNL     1      22.715   3.812  51.396  1.00  0.00     0.098 A 
ENDROOT
BRANCH   3   7
HETATM    7  N2  UNL     1      24.359   0.592  53.632  1.00  0.00    -0.184 N 
HETATM    8  H6  UNL     1      23.756   0.248  54.419  1.00  0.00     0.184 HD
BRANCH   7   9
HETATM    9  C7  UNL     1      25.593  -0.081  53.442  1.00  0.00     0.744 A 
HETATM   10  N3  UNL     1      25.787  -1.235  52.809  1.00  0.00    -0.071 NA
HETATM   11  C8  UNL     1      26.965  -1.840  52.649  1.00  0.00     0.168 A 
HETATM   12  C9  UNL     1      28.096  -1.271  53.158  1.00  0.00     0.076 A 
HETATM   13  C10 UNL     1      29.435  -1.543  53.217  1.00  0.00     0.034 A 
HETATM   14  N4  UNL     1      27.894  -0.108  53.796  1.00  0.00    -0.228 N 
HETATM   15  C11 UNL     1      30.043  -0.514  53.907  1.00  0.00     0.022 A 
HETATM   16  C12 UNL     1      29.063   0.395  54.274  1.00  0.00     0.119 A 
HETATM   17  N5  UNL     1      26.721   0.450  53.929  1.00  0.00     0.026 NA
ENDBRANCH   7   9
ENDBRANCH   3   7
BRANCH   4  18
HETATM   18  O2  UNL     1      21.636   0.840  53.214  1.00  0.00    -0.354 OA
HETATM   19  C14 UNL     1      20.449   0.455  52.553  1.00  0.00     0.210 C 
ENDBRANCH   4  18
BRANCH   1  20
HETATM   20  N1  UNL     1      24.915   4.734  51.011  1.00  0.00    -0.321 N 
HETATM   21  C3  UNL     1      25.501   4.362  49.757  1.00  0.00     0.245 C 
HETATM   22  O1  UNL     1      25.185   3.213  49.352  1.00  0.00    -0.268 OA
HETATM   23  H4  UNL     1      25.075   5.659  51.491  1.00  0.00     0.169 HD
BRANCH  21  24
HETATM   24  C2  UNL     1      26.377   5.326  49.104  1.00  0.00     0.064 C 
HETATM   25  C1  UNL     1      27.575   5.142  48.583  1.00  0.00     0.017 C 
ENDBRANCH  21  24
ENDBRANCH   1  20
BRANCH   6  26
HETATM   26  O3  UNL     1      22.205   4.881  50.657  1.00  0.00    -0.347 OA
BRANCH  26  27
HETATM   27  C17 UNL     1      21.230   4.555  49.686  1.00  0.00     0.206 C 
BRANCH  27  28
HETATM   28  C18 UNL     1      21.862   4.017  48.420  1.00  0.00     0.297 C 
BRANCH  28  29
HETATM   29  N6  UNL     1      21.202   2.812  47.959  1.00  0.00     0.082 N 
HETATM   30  C19 UNL     1      19.985   2.614  48.734  1.00  0.00     0.309 C 
HETATM   31  C20 UNL     1      22.082   1.693  48.231  1.00  0.00     0.309 C 
ENDBRANCH  28  29
ENDBRANCH  27  28
ENDBRANCH  26  27
ENDBRANCH   6  26
TORSDOF 9
ENDMDL
MODEL 4
REMARK VINA RESULT:      -7.5      2.367      4.993
REMARK  9 active torsions:
REMARK  status: ('A' for Active; 'I' for Inactive)
REMARK    1  A    between atoms: C2_2  and  C3_3 
REMARK       I    between atoms: C3_3  and  N1_5 
REMARK    2  A    between atoms: N1_5  and  C4_6 
REMARK    3  A    between atoms: C6_8  and  N2_9 
REMARK    4  A    between atoms: N2_9  and  C7_10 
REMARK    5  A    between atoms: C13_19  and  O2_20 
REMARK    6  A    between atoms: C16_23  and  O3_24 
REMARK    7  A    between atoms: O3_24  and  C17_25 
REMARK    8  A    between atoms: C17_25  and  C18_26 
REMARK    9  A    between atoms: C18_26  and  N6_27 
ROOT
HETATM    1  C4  UNL     1      24.240   3.856  51.436  1.00  0.00     0.071 A 
HETATM    2  C5  UNL     1      24.745   2.846  52.227  1.00  0.00     0.065 A 
HETATM    3  C6  UNL     1      23.983   1.872  52.835  1.00  0.00     0.085 A 
HETATM    4  C13 UNL     1      22.631   1.979  52.589  1.00  0.00     0.098 A 
HETATM    5  C15 UNL     1      22.094   2.973  51.805  1.00  0.00     0.078 A 
HETATM    6  C16 UNL     1      22.891   3.928  51.216  1.00  0.00     0.098 A 
ENDROOT
BRANCH   3   7
HETATM    7  N2  UNL     1      24.485   0.827  53.649  1.00  0.00    -0.184 N 
HETATM    8  H6  UNL     1      23.914   0.592  54.497  1.00  0.00     0.184 HD
BRANCH   7   9
HETATM    9  C7  UNL     1      25.664   0.065  53.451  1.00  0.00     0.744 A 
HETATM   10  N3  UNL     1      25.765  -1.110  52.836  1.00  0.00    -0.071 NA
HETATM   11  C8  UNL     1      26.894  -1.801  52.668  1.00  0.00     0.168 A 
HETATM   12  C9  UNL     1      28.072  -1.305  53.148  1.00  0.00     0.076 A 
HETATM   13  C10 UNL     1      29.389  -1.670  53.191  1.00  0.00     0.034 A 
HETATM   14  N4  UNL     1      27.963  -0.120  53.768  1.00  0.00    -0.228 N 
HETATM   15  C11 UNL     1      30.080  -0.676  53.853  1.00  0.00     0.022 A 
HETATM   16  C12 UNL     1      29.173   0.307  54.218  1.00  0.00     0.119 A 
HETATM   17  N5  UNL     1      26.836   0.523  53.910  1.00  0.00     0.026 NA
ENDBRANCH   7   9
ENDBRANCH   3   7
BRANCH   4  18
HETATM   18  O2  UNL     1      21.772   1.047  53.154  1.00  0.00    -0.354 OA
HETATM   19  C14 UNL     1      21.186   0.023  52.378  1.00  0.00     0.210 C 
ENDBRANCH   4  18
BRANCH   1  20
HETATM   20  N1  UNL     1      25.098   4.835  50.838  1.00  0.00    -0.321 N 
HETATM   21  C3  UNL     1      25.749   4.386  49.643  1.00  0.00     0.245 C 
HETATM   22  O1  UNL     1      25.469   3.207  49.305  1.00  0.00    -0.268 OA
HETATM   23  H4  UNL     1      25.222   5.794  51.260  1.00  0.00     0.169 HD
BRANCH  21  24
HETATM   24  C2  UNL     1      26.641   5.318  48.965  1.00  0.00     0.064 C 
HETATM   25  C1  UNL     1      27.871   5.123  48.526  1.00  0.00     0.017 C 
ENDBRANCH  21  24
ENDBRANCH   1  20
BRANCH   6  26
HETATM   26  O3  UNL     1      22.397   4.958  50.413  1.00  0.00    -0.347 OA
BRANCH  26  27
HETATM   27  C17 UNL     1      21.502   5.856  51.037  1.00  0.00     0.206 C 
BRANCH  27  28
HETATM   28  C18 UNL     1      21.862   7.296  50.743  1.00  0.00     0.297 C 
BRANCH  28  29
HETATM   29  N6  UNL     1      22.949   7.395  49.788  1.00  0.00     0.082 N 
HETATM   30  C19 UNL     1      24.016   8.198  50.370  1.00  0.00     0.309 C 
HETATM   31  C20 UNL     1      22.454   8.103  48.625  1.00  0.00     0.309 C 
ENDBRANCH  28  29
ENDBRANCH  27  28
ENDBRANCH  26  27
ENDBRANCH   6  26
TORSDOF 9
ENDMDL
MODEL 5
REMARK VINA RESULT:      -7.1      3.815      6.637
REMARK  9 active torsions:
REMARK  status: ('A' for Active; 'I' for Inactive)
REMARK    1  A    between atoms: C2_2  and  C3_3 
REMARK       I    between atoms: C3_3  and  N1_5 
REMARK    2  A    between atoms: N1_5  and  C4_6 
REMARK    3  A    between atoms: C6_8  and  N2_9 
REMARK    4  A    between atoms: N2_9  and  C7_10 
REMARK    5  A    between atoms: C13_19  and  O2_20 
REMARK    6  A    between atoms: C16_23  and  O3_24 
REMARK    7  A    between atoms: O3_24  and  C17_25 
REMARK    8  A    between atoms: C17_25  and  C18_26 
REMARK    9  A    between atoms: C18_26  and  N6_27 
ROOT
HETATM    1  C4  UNL     1      26.023   2.300  51.379  1.00  0.00     0.071 A 
HETATM    2  C5  UNL     1      26.599   2.902  50.282  1.00  0.00     0.065 A 
HETATM    3  C6  UNL     1      26.163   4.079  49.714  1.00  0.00     0.085 A 
HETATM    4  C13 UNL     1      25.070   4.636  50.342  1.00  0.00     0.098 A 
HETATM    5  C15 UNL     1      24.470   4.062  51.438  1.00  0.00     0.078 A 
HETATM    6  C16 UNL     1      24.937   2.884  51.974  1.00  0.00     0.098 A 
ENDROOT
BRANCH   3   7
HETATM    7  N2  UNL     1      26.745   4.712  48.589  1.00  0.00    -0.184 N 
HETATM    8  H6  UNL     1      26.339   4.452  47.656  1.00  0.00     0.184 HD
BRANCH   7   9
HETATM    9  C7  UNL     1      27.807   5.652  48.575  1.00  0.00     0.744 A 
HETATM   10  N3  UNL     1      27.703   6.978  48.605  1.00  0.00    -0.071 NA
HETATM   11  C8  UNL     1      28.726   7.834  48.591  1.00  0.00     0.168 A 
HETATM   12  C9  UNL     1      30.007   7.362  48.542  1.00  0.00     0.076 A 
HETATM   13  C10 UNL     1      31.277   7.866  48.513  1.00  0.00     0.034 A 
HETATM   14  N4  UNL     1      30.104   6.024  48.513  1.00  0.00    -0.228 N 
HETATM   15  C11 UNL     1      32.152   6.799  48.465  1.00  0.00     0.022 A 
HETATM   16  C12 UNL     1      31.404   5.631  48.465  1.00  0.00     0.119 A 
HETATM   17  N5  UNL     1      29.074   5.222  48.528  1.00  0.00     0.026 NA
ENDBRANCH   7   9
ENDBRANCH   3   7
BRANCH   4  18
HETATM   18  O2  UNL     1      24.549   5.824  49.851  1.00  0.00    -0.354 OA
HETATM   19  C14 UNL     1      24.613   7.020  50.601  1.00  0.00     0.210 C 
ENDBRANCH   4  18
BRANCH   1  20
HETATM   20  N1  UNL     1      26.534   1.072  51.912  1.00  0.00    -0.321 N 
HETATM   21  C3  UNL     1      27.706   1.232  52.720  1.00  0.00     0.245 C 
HETATM   22  O1  UNL     1      28.105   2.420  52.836  1.00  0.00    -0.268 OA
HETATM   23  H4  UNL     1      26.070   0.146  51.712  1.00  0.00     0.169 HD
BRANCH  21  24
HETATM   24  C2  UNL     1      28.296   0.034  53.305  1.00  0.00     0.064 C 
HETATM   25  C1  UNL     1      29.552  -0.199  53.635  1.00  0.00     0.017 C 
ENDBRANCH  21  24
ENDBRANCH   1  20
BRANCH   6  26
HETATM   26  O3  UNL     1      24.365   2.260  53.084  1.00  0.00    -0.347 OA
BRANCH  26  27
HETATM   27  C17 UNL     1      23.078   1.708  52.891  1.00  0.00     0.206 C 
BRANCH  27  28
HETATM   28  C18 UNL     1      23.013   0.270  53.359  1.00  0.00     0.297 C 
BRANCH  28  29
HETATM   29  N6  UNL     1      21.794  -0.002  54.096  1.00  0.00     0.082 N 
HETATM   30  C19 UNL     1      21.859  -1.355  54.632  1.00  0.00     0.309 C 
HETATM   31  C20 UNL     1      20.690   0.045  53.159  1.00  0.00     0.309 C 
ENDBRANCH  28  29
ENDBRANCH  27  28
ENDBRANCH  26  27
ENDBRANCH   6  26
TORSDOF 9
ENDMDL
MODEL 6
REMARK VINA RESULT:      -7.0      2.540      7.401
REMARK  9 active torsions:
REMARK  status: ('A' for Active; 'I' for Inactive)
REMARK    1  A    between atoms: C2_2  and  C3_3 
REMARK       I    between atoms: C3_3  and  N1_5 
REMARK    2  A    between atoms: N1_5  and  C4_6 
REMARK    3  A    between atoms: C6_8  and  N2_9 
REMARK    4  A    between atoms: N2_9  and  C7_10 
REMARK    5  A    between atoms: C13_19  and  O2_20 
REMARK    6  A    between atoms: C16_23  and  O3_24 
REMARK    7  A    between atoms: O3_24  and  C17_25 
REMARK    8  A    between atoms: C17_25  and  C18_26 
REMARK    9  A    between atoms: C18_26  and  N6_27 
ROOT
HETATM    1  C4  UNL     1      24.656   0.817  53.094  1.00  0.00     0.071 A 
HETATM    2  C5  UNL     1      24.222   2.122  53.008  1.00  0.00     0.065 A 
HETATM    3  C6  UNL     1      24.821   3.098  52.241  1.00  0.00     0.085 A 
HETATM    4  C13 UNL     1      25.925   2.665  51.539  1.00  0.00     0.098 A 
HETATM    5  C15 UNL     1      26.385   1.370  51.602  1.00  0.00     0.078 A 
HETATM    6  C16 UNL     1      25.757   0.425  52.382  1.00  0.00     0.098 A 
ENDROOT
BRANCH   3   7
HETATM    7  N2  UNL     1      24.387   4.442  52.140  1.00  0.00    -0.184 N 
HETATM    8  H6  UNL     1      25.015   5.161  52.577  1.00  0.00     0.184 HD
BRANCH   7   9
HETATM    9  C7  UNL     1      23.209   4.928  51.518  1.00  0.00     0.744 A 
HETATM   10  N3  UNL     1      22.074   4.263  51.323  1.00  0.00    -0.071 NA
HETATM   11  C8  UNL     1      20.982   4.753  50.733  1.00  0.00     0.168 A 
HETATM   12  C9  UNL     1      20.977   6.038  50.272  1.00  0.00     0.076 A 
HETATM   13  C10 UNL     1      20.115   6.890  49.640  1.00  0.00     0.034 A 
HETATM   14  N4  UNL     1      22.125   6.704  50.473  1.00  0.00    -0.228 N 
HETATM   15  C11 UNL     1      20.768   8.093  49.460  1.00  0.00     0.022 A 
HETATM   16  C12 UNL     1      22.044   7.971  49.989  1.00  0.00     0.119 A 
HETATM   17  N5  UNL     1      23.171   6.184  51.056  1.00  0.00     0.026 NA
ENDBRANCH   7   9
ENDBRANCH   3   7
BRANCH   4  18
HETATM   18  O2  UNL     1      26.603   3.567  50.734  1.00  0.00    -0.354 OA
HETATM   19  C14 UNL     1      26.464   3.548  49.328  1.00  0.00     0.210 C 
ENDBRANCH   4  18
BRANCH   1  20
HETATM   20  N1  UNL     1      23.980  -0.142  53.917  1.00  0.00    -0.321 N 
HETATM   21  C3  UNL     1      22.716  -0.568  53.394  1.00  0.00     0.245 C 
HETATM   22  O1  UNL     1      22.395  -0.037  52.299  1.00  0.00    -0.268 OA
HETATM   23  H4  UNL     1      24.397  -0.487  54.822  1.00  0.00     0.169 HD
BRANCH  21  24
HETATM   24  C2  UNL     1      21.957  -1.544  54.165  1.00  0.00     0.064 C 
HETATM   25  C1  UNL     1      20.649  -1.675  54.285  1.00  0.00     0.017 C 
ENDBRANCH  21  24
ENDBRANCH   1  20
BRANCH   6  26
HETATM   26  O3  UNL     1      26.183  -0.900  52.481  1.00  0.00    -0.347 OA
BRANCH  26  27
HETATM   27  C17 UNL     1      27.498  -1.095  52.963  1.00  0.00     0.206 C 
BRANCH  27  28
HETATM   28  C18 UNL     1      27.697  -0.449  54.317  1.00  0.00     0.297 C 
BRANCH  28  29
HETATM   29  N6  UNL     1      29.059   0.013  54.498  1.00  0.00     0.082 N 
HETATM   30  C19 UNL     1      29.123   1.432  54.174  1.00  0.00     0.309 C 
HETATM   31  C20 UNL     1      29.896  -0.691  53.548  1.00  0.00     0.309 C 
ENDBRANCH  28  29
ENDBRANCH  27  28
ENDBRANCH  26  27
ENDBRANCH   6  26
TORSDOF 9
ENDMDL
MODEL 7
REMARK VINA RESULT:      -7.0      1.909      3.808
REMARK  9 active torsions:
REMARK  status: ('A' for Active; 'I' for Inactive)
REMARK    1  A    between atoms: C2_2  and  C3_3 
REMARK       I    between atoms: C3_3  and  N1_5 
REMARK    2  A    between atoms: N1_5  and  C4_6 
REMARK    3  A    between atoms: C6_8  and  N2_9 
REMARK    4  A    between atoms: N2_9  and  C7_10 
REMARK    5  A    between atoms: C13_19  and  O2_20 
REMARK    6  A    between atoms: C16_23  and  O3_24 
REMARK    7  A    between atoms: O3_24  and  C17_25 
REMARK    8  A    between atoms: C17_25  and  C18_26 
REMARK    9  A    between atoms: C18_26  and  N6_27 
ROOT
HETATM    1  C4  UNL     1      23.949   3.244  50.154  1.00  0.00     0.071 A 
HETATM    2  C5  UNL     1      24.824   3.323  51.216  1.00  0.00     0.065 A 
HETATM    3  C6  UNL     1      24.726   2.577  52.370  1.00  0.00     0.085 A 
HETATM    4  C13 UNL     1      23.652   1.713  52.392  1.00  0.00     0.098 A 
HETATM    5  C15 UNL     1      22.759   1.609  51.351  1.00  0.00     0.078 A 
HETATM    6  C16 UNL     1      22.894   2.374  50.215  1.00  0.00     0.098 A 
ENDROOT
BRANCH   3   7
HETATM    7  N2  UNL     1      25.617   2.644  53.468  1.00  0.00    -0.184 N 
HETATM    8  H6  UNL     1      25.317   3.258  54.265  1.00  0.00     0.184 HD
BRANCH   7   9
HETATM    9  C7  UNL     1      26.861   1.981  53.616  1.00  0.00     0.744 A 
HETATM   10  N3  UNL     1      28.001   2.506  54.060  1.00  0.00    -0.071 NA
HETATM   11  C8  UNL     1      29.156   1.851  54.187  1.00  0.00     0.168 A 
HETATM   12  C9  UNL     1      29.230   0.531  53.846  1.00  0.00     0.076 A 
HETATM   13  C10 UNL     1      30.167  -0.464  53.821  1.00  0.00     0.034 A 
HETATM   14  N4  UNL     1      28.077   0.008  53.399  1.00  0.00    -0.228 N 
HETATM   15  C11 UNL     1      29.556  -1.607  53.348  1.00  0.00     0.022 A 
HETATM   16  C12 UNL     1      28.230  -1.305  53.080  1.00  0.00     0.119 A 
HETATM   17  N5  UNL     1      26.968   0.687  53.291  1.00  0.00     0.026 NA
ENDBRANCH   7   9
ENDBRANCH   3   7
BRANCH   4  18
HETATM   18  O2  UNL     1      23.459   0.914  53.509  1.00  0.00    -0.354 OA
HETATM   19  C14 UNL     1      23.569  -0.493  53.433  1.00  0.00     0.210 C 
ENDBRANCH   4  18
BRANCH   1  20
HETATM   20  N1  UNL     1      24.118   4.056  48.986  1.00  0.00    -0.321 N 
HETATM   21  C3  UNL     1      23.566   5.373  49.107  1.00  0.00     0.245 C 
HETATM   22  O1  UNL     1      23.020   5.612  50.216  1.00  0.00    -0.268 OA
HETATM   23  H4  UNL     1      24.609   3.694  48.125  1.00  0.00     0.169 HD
BRANCH  21  24
HETATM   24  C2  UNL     1      23.693   6.270  47.966  1.00  0.00     0.064 C 
HETATM   25  C1  UNL     1      22.748   6.763  47.186  1.00  0.00     0.017 C 
ENDBRANCH  21  24
ENDBRANCH   1  20
BRANCH   6  26
HETATM   26  O3  UNL     1      22.017   2.308  49.131  1.00  0.00    -0.347 OA
BRANCH  26  27
HETATM   27  C17 UNL     1      20.903   1.452  49.286  1.00  0.00     0.206 C 
BRANCH  27  28
HETATM   28  C18 UNL     1      19.599   2.191  49.076  1.00  0.00     0.297 C 
BRANCH  28  29
HETATM   29  N6  UNL     1      18.721   2.072  50.224  1.00  0.00     0.082 N 
HETATM   30  C19 UNL     1      19.246   2.893  51.307  1.00  0.00     0.309 C 
HETATM   31  C20 UNL     1      18.755   0.692  50.666  1.00  0.00     0.309 C 
ENDBRANCH  28  29
ENDBRANCH  27  28
ENDBRANCH  26  27
ENDBRANCH   6  26
TORSDOF 9
ENDMDL
MODEL 8
REMARK VINA RESULT:      -6.8      2.554      5.115
REMARK  9 active torsions:
REMARK  status: ('A' for Active; 'I' for Inactive)
REMARK    1  A    between atoms: C2_2  and  C3_3 
REMARK       I    between atoms: C3_3  and  N1_5 
REMARK    2  A    between atoms: N1_5  and  C4_6 
REMARK    3  A    between atoms: C6_8  and  N2_9 
REMARK    4  A    between atoms: N2_9  and  C7_10 
REMARK    5  A    between atoms: C13_19  and  O2_20 
REMARK    6  A    between atoms: C16_23  and  O3_24 
REMARK    7  A    between atoms: O3_24  and  C17_25 
REMARK    8  A    between atoms: C17_25  and  C18_26 
REMARK    9  A    between atoms: C18_26  and  N6_27 
ROOT
HETATM    1  C4  UNL     1      24.811   4.338  50.041  1.00  0.00     0.071 A 
HETATM    2  C5  UNL     1      25.304   3.858  51.235  1.00  0.00     0.065 A 
HETATM    3  C6  UNL     1      24.827   2.742  51.887  1.00  0.00     0.085 A 
HETATM    4  C13 UNL     1      23.785   2.114  51.241  1.00  0.00     0.098 A 
HETATM    5  C15 UNL     1      23.268   2.566  50.049  1.00  0.00     0.078 A 
HETATM    6  C16 UNL     1      23.774   3.686  49.430  1.00  0.00     0.098 A 
ENDROOT
BRANCH   3   7
HETATM    7  N2  UNL     1      25.323   2.234  53.113  1.00  0.00    -0.184 N 
HETATM    8  H6  UNL     1      24.688   2.336  53.942  1.00  0.00     0.184 HD
BRANCH   7   9
HETATM    9  C7  UNL     1      26.572   1.606  53.348  1.00  0.00     0.744 A 
HETATM   10  N3  UNL     1      27.671   2.168  53.845  1.00  0.00    -0.071 NA
HETATM   11  C8  UNL     1      28.832   1.545  54.054  1.00  0.00     0.168 A 
HETATM   12  C9  UNL     1      28.957   0.220  53.749  1.00  0.00     0.076 A 
HETATM   13  C10 UNL     1      29.918  -0.751  53.802  1.00  0.00     0.034 A 
HETATM   14  N4  UNL     1      27.846  -0.341  53.248  1.00  0.00    -0.228 N 
HETATM   15  C11 UNL     1      29.363  -1.919  53.321  1.00  0.00     0.022 A 
HETATM   16  C12 UNL     1      28.047  -1.656  52.970  1.00  0.00     0.119 A 
HETATM   17  N5  UNL     1      26.728   0.308  53.060  1.00  0.00     0.026 NA
ENDBRANCH   7   9
ENDBRANCH   3   7
BRANCH   4  18
HETATM   18  O2  UNL     1      23.229   0.978  51.812  1.00  0.00    -0.354 OA
HETATM   19  C14 UNL     1      22.052   1.048  52.590  1.00  0.00     0.210 C 
ENDBRANCH   4  18
BRANCH   1  20
HETATM   20  N1  UNL     1      25.360   5.509  49.423  1.00  0.00    -0.321 N 
HETATM   21  C3  UNL     1      26.651   5.305  48.835  1.00  0.00     0.245 C 
HETATM   22  O1  UNL     1      27.101   4.136  48.952  1.00  0.00    -0.268 OA
HETATM   23  H4  UNL     1      24.841   6.427  49.416  1.00  0.00     0.169 HD
BRANCH  21  24
HETATM   24  C2  UNL     1      27.286   6.443  48.183  1.00  0.00     0.064 C 
HETATM   25  C1  UNL     1      28.566   6.761  48.125  1.00  0.00     0.017 C 
ENDBRANCH  21  24
ENDBRANCH   1  20
BRANCH   6  26
HETATM   26  O3  UNL     1      23.287   4.187  48.221  1.00  0.00    -0.347 OA
BRANCH  26  27
HETATM   27  C17 UNL     1      21.880   4.225  48.088  1.00  0.00     0.206 C 
BRANCH  27  28
HETATM   28  C18 UNL     1      21.446   5.234  47.046  1.00  0.00     0.297 C 
BRANCH  28  29
HETATM   29  N6  UNL     1      22.146   5.046  45.790  1.00  0.00     0.082 N 
HETATM   30  C19 UNL     1      21.947   6.226  44.958  1.00  0.00     0.309 C 
HETATM   31  C20 UNL     1      21.536   3.922  45.108  1.00  0.00     0.309 C 
ENDBRANCH  28  29
ENDBRANCH  27  28
ENDBRANCH  26  27
ENDBRANCH   6  26
TORSDOF 9
ENDMDL
MODEL 9
REMARK VINA RESULT:      -6.7      2.346      4.001
REMARK  9 active torsions:
REMARK  status: ('A' for Active; 'I' for Inactive)
REMARK    1  A    between atoms: C2_2  and  C3_3 
REMARK       I    between atoms: C3_3  and  N1_5 
REMARK    2  A    between atoms: N1_5  and  C4_6 
REMARK    3  A    between atoms: C6_8  and  N2_9 
REMARK    4  A    between atoms: N2_9  and  C7_10 
REMARK    5  A    between atoms: C13_19  and  O2_20 
REMARK    6  A    between atoms: C16_23  and  O3_24 
REMARK    7  A    between atoms: O3_24  and  C17_25 
REMARK    8  A    between atoms: C17_25  and  C18_26 
REMARK    9  A    between atoms: C18_26  and  N6_27 
ROOT
HETATM    1  C4  UNL     1      23.513   3.796  50.870  1.00  0.00     0.071 A 
HETATM    2  C5  UNL     1      24.395   3.679  51.922  1.00  0.00     0.065 A 
HETATM    3  C6  UNL     1      24.487   2.583  52.750  1.00  0.00     0.085 A 
HETATM    4  C13 UNL     1      23.604   1.569  52.444  1.00  0.00     0.098 A 
HETATM    5  C15 UNL     1      22.711   1.652  51.401  1.00  0.00     0.078 A 
HETATM    6  C16 UNL     1      22.651   2.767  50.597  1.00  0.00     0.098 A 
ENDROOT
BRANCH   3   7
HETATM    7  N2  UNL     1      25.388   2.446  53.834  1.00  0.00    -0.184 N 
HETATM    8  H6  UNL     1      25.040   2.785  54.765  1.00  0.00     0.184 HD
BRANCH   7   9
HETATM    9  C7  UNL     1      26.699   1.908  53.809  1.00  0.00     0.744 A 
HETATM   10  N3  UNL     1      27.839   2.563  54.015  1.00  0.00    -0.071 NA
HETATM   11  C8  UNL     1      29.058   2.022  53.983  1.00  0.00     0.168 A 
HETATM   12  C9  UNL     1      29.205   0.691  53.720  1.00  0.00     0.076 A 
HETATM   13  C10 UNL     1      30.219  -0.218  53.599  1.00  0.00     0.034 A 
HETATM   14  N4  UNL     1      28.052   0.036  53.513  1.00  0.00    -0.228 N 
HETATM   15  C11 UNL     1      29.654  -1.444  53.312  1.00  0.00     0.022 A 
HETATM   16  C12 UNL     1      28.278  -1.280  53.258  1.00  0.00     0.119 A 
HETATM   17  N5  UNL     1      26.878   0.605  53.554  1.00  0.00     0.026 NA
ENDBRANCH   7   9
ENDBRANCH   3   7
BRANCH   4  18
HETATM   18  O2  UNL     1      23.613   0.417  53.215  1.00  0.00    -0.354 OA
HETATM   19  C14 UNL     1      22.578  -0.540  53.119  1.00  0.00     0.210 C 
ENDBRANCH   4  18
BRANCH   1  20
HETATM   20  N1  UNL     1      23.476   4.972  50.053  1.00  0.00    -0.321 N 
HETATM   21  C3  UNL     1      22.642   6.015  50.572  1.00  0.00     0.245 C 
HETATM   22  O1  UNL     1      22.072   5.738  51.659  1.00  0.00    -0.268 OA
HETATM   23  H4  UNL     1      24.024   5.040  49.154  1.00  0.00     0.169 HD
BRANCH  21  24
HETATM   24  C2  UNL     1      22.545   7.251  49.806  1.00  0.00     0.064 C 
HETATM   25  C1  UNL     1      21.574   8.146  49.789  1.00  0.00     0.017 C 
ENDBRANCH  21  24
ENDBRANCH   1  20
BRANCH   6  26
HETATM   26  O3  UNL     1      21.764   2.902  49.528  1.00  0.00    -0.347 OA
BRANCH  26  27
HETATM   27  C17 UNL     1      22.204   2.385  48.288  1.00  0.00     0.206 C 
BRANCH  27  28
HETATM   28  C18 UNL     1      21.332   2.860  47.145  1.00  0.00     0.297 C 
BRANCH  28  29
HETATM   29  N6  UNL     1      21.921   3.990  46.452  1.00  0.00     0.082 N 
HETATM   30  C19 UNL     1      21.321   5.217  46.958  1.00  0.00     0.309 C 
HETATM   31  C20 UNL     1      21.573   3.879  45.050  1.00  0.00     0.309 C 
ENDBRANCH  28  29
ENDBRANCH  27  28
ENDBRANCH  26  27
ENDBRANCH   6  26
TORSDOF 9
ENDMDL
