MODEL 1
REMARK VINA RESULT:      -8.0      0.000      0.000
REMARK  6 active torsions:
REMARK  status: ('A' for Active; 'I' for Inactive)
REMARK    1  A    between atoms: C3_4  and  C4_5 
REMARK    2  A    between atoms: C9_10  and  O2_11 
REMARK    3  A    between atoms: C13_15  and  C14_16 
REMARK    4  A    between atoms: C15_17  and  O3_18 
REMARK    5  A    between atoms: O3_18  and  C16_19 
REMARK    6  A    between atoms: C17_20  and  C18_21 
ROOT
HETATM    1  C1  UNL     1      25.048   3.305  49.998  1.00  0.00     0.072 C 
HETATM    2  C2  UNL     1      25.008   2.544  51.069  1.00  0.00     0.057 C 
HETATM    3  O1  UNL     1      26.165   2.040  51.646  1.00  0.00    -0.344 OA
HETATM    4  C3  UNL     1      26.057   0.794  52.316  1.00  0.00     0.171 C 
HETATM    5  C10 UNL     1      24.971   0.931  53.334  1.00  0.00     0.039 C 
HETATM    6  C11 UNL     1      24.676  -0.375  54.046  1.00  0.00     0.017 C 
HETATM    7  C12 UNL     1      23.753   1.483  52.699  1.00  0.00    -0.006 C 
HETATM    8  C13 UNL     1      23.695   2.255  51.625  1.00  0.00    -0.008 C 
ENDROOT
BRANCH   4   9
HETATM    9  C4  UNL     1      27.355   0.426  52.939  1.00  0.00     0.005 A 
HETATM   10  C5  UNL     1      27.760  -0.884  52.753  1.00  0.00     0.012 A 
HETATM   11  C6  UNL     1      28.945  -1.395  53.265  1.00  0.00     0.001 A 
HETATM   12  C7  UNL     1      29.732  -0.513  53.996  1.00  0.00     0.003 A 
HETATM   13  C8  UNL     1      29.341   0.801  54.192  1.00  0.00     0.037 A 
HETATM   14  C9  UNL     1      28.152   1.282  53.667  1.00  0.00     0.074 A 
BRANCH  14  15
HETATM   15  O2  UNL     1      27.702   2.585  53.825  1.00  0.00    -0.360 OA
HETATM   16  H8  UNL     1      27.532   2.872  54.790  1.00  0.00     0.217 HD
ENDBRANCH  14  15
ENDBRANCH   4   9
BRANCH   8  17
HETATM   17  C14 UNL     1      22.403   2.705  51.135  1.00  0.00     0.039 C 
HETATM   18  C15 UNL     1      21.254   2.568  51.716  1.00  0.00     0.155 C 
BRANCH  18  19
HETATM   19  O3  UNL     1      20.491   2.121  52.777  1.00  0.00    -0.273 OA
BRANCH  19  20
HETATM   20  C16 UNL     1      20.596   0.840  53.300  1.00  0.00     0.067 C 
HETATM   21  C17 UNL     1      20.694  -0.267  53.773  1.00  0.00    -0.007 C 
BRANCH  21  22
HETATM   22  C18 UNL     1      20.836  -1.588  54.331  1.00  0.00     0.325 C 
HETATM   23  O4  UNL     1      21.748  -1.884  55.152  1.00  0.00    -0.293 OA
ENDBRANCH  21  22
ENDBRANCH  19  20
ENDBRANCH  18  19
ENDBRANCH   8  17
TORSDOF 6
ENDMDL
MODEL 2
REMARK VINA RESULT:      -8.0      1.684      3.730
REMARK  6 active torsions:
REMARK  status: ('A' for Active; 'I' for Inactive)
REMARK    1  A    between atoms: C3_4  and  C4_5 
REMARK    2  A    between atoms: C9_10  and  O2_11 
REMARK    3  A    between atoms: C13_15  and  C14_16 
REMARK    4  A    between atoms: C15_17  and  O3_18 
REMARK    5  A    between atoms: O3_18  and  C16_19 
REMARK    6  A    between atoms: C17_20  and  C18_21 
ROOT
HETATM    1  C1  UNL     1      22.329  -0.886  54.711  1.00  0.00     0.072 C 
HETATM    2  C2  UNL     1      23.101  -0.286  53.833  1.00  0.00     0.057 C 
HETATM    3  O1  UNL     1      24.483  -0.382  53.894  1.00  0.00    -0.344 OA
HETATM    4  C3  UNL     1      25.226   0.721  53.399  1.00  0.00     0.171 C 
HETATM    5  C10 UNL     1      24.770   0.969  51.997  1.00  0.00     0.039 C 
HETATM    6  C11 UNL     1      25.410   2.202  51.389  1.00  0.00     0.017 C 
HETATM    7  C12 UNL     1      23.293   1.054  51.955  1.00  0.00    -0.006 C 
HETATM    8  C13 UNL     1      22.439   0.486  52.792  1.00  0.00    -0.008 C 
ENDROOT
BRANCH   4   9
HETATM    9  C4  UNL     1      26.682   0.437  53.464  1.00  0.00     0.005 A 
HETATM   10  C5  UNL     1      27.061  -0.844  53.098  1.00  0.00     0.012 A 
HETATM   11  C6  UNL     1      28.379  -1.279  53.100  1.00  0.00     0.001 A 
HETATM   12  C7  UNL     1      29.334  -0.351  53.497  1.00  0.00     0.003 A 
HETATM   13  C8  UNL     1      28.973   0.935  53.867  1.00  0.00     0.037 A 
HETATM   14  C9  UNL     1      27.647   1.339  53.854  1.00  0.00     0.074 A 
BRANCH  14  15
HETATM   15  O2  UNL     1      27.218   2.610  54.212  1.00  0.00    -0.360 OA
HETATM   16  H8  UNL     1      26.460   2.635  54.894  1.00  0.00     0.217 HD
ENDBRANCH  14  15
ENDBRANCH   4   9
BRANCH   8  17
HETATM   17  C14 UNL     1      21.012   0.682  52.601  1.00  0.00     0.039 C 
HETATM   18  C15 UNL     1      20.365   1.804  52.618  1.00  0.00     0.155 C 
BRANCH  18  19
HETATM   19  O3  UNL     1      20.350   3.178  52.752  1.00  0.00    -0.273 OA
BRANCH  19  20
HETATM   20  C16 UNL     1      21.401   3.991  52.348  1.00  0.00     0.067 C 
HETATM   21  C17 UNL     1      22.308   4.697  51.978  1.00  0.00    -0.007 C 
BRANCH  21  22
HETATM   22  C18 UNL     1      23.403   5.518  51.530  1.00  0.00     0.325 C 
HETATM   23  O4  UNL     1      23.975   5.339  50.418  1.00  0.00    -0.293 OA
ENDBRANCH  21  22
ENDBRANCH  19  20
ENDBRANCH  18  19
ENDBRANCH   8  17
TORSDOF 6
ENDMDL
MODEL 3
REMARK VINA RESULT:      -7.8      3.014      5.381
REMARK  6 active torsions:
REMARK  status: ('A' for Active; 'I' for Inactive)
REMARK    1  A    between atoms: C3_4  and  C4_5 
REMARK    2  A    between atoms: C9_10  and  O2_11 
REMARK    3  A    between atoms: C13_15  and  C14_16 
REMARK    4  A    between atoms: C15_17  and  O3_18 
REMARK    5  A    between atoms: O3_18  and  C16_19 
REMARK    6  A    between atoms: C17_20  and  C18_21 
ROOT
HETATM    1  C1  UNL     1      26.793   4.086  49.307  1.00  0.00     0.072 C 
HETATM    2  C2  UNL     1      26.288   3.437  50.332  1.00  0.00     0.057 C 
HETATM    3  O1  UNL     1      27.088   2.692  51.187  1.00  0.00    -0.344 OA
HETATM    4  C3  UNL     1      26.489   1.565  51.806  1.00  0.00     0.171 C 
HETATM    5  C10 UNL     1      25.261   2.047  52.510  1.00  0.00     0.039 C 
HETATM    6  C11 UNL     1      24.462   0.913  53.122  1.00  0.00     0.017 C 
HETATM    7  C12 UNL     1      24.431   2.849  51.583  1.00  0.00    -0.006 C 
HETATM    8  C13 UNL     1      24.850   3.534  50.530  1.00  0.00    -0.008 C 
ENDROOT
BRANCH   4   9
HETATM    9  C4  UNL     1      27.445   0.919  52.743  1.00  0.00     0.005 A 
HETATM   10  C5  UNL     1      27.637  -0.439  52.561  1.00  0.00     0.012 A 
HETATM   11  C6  UNL     1      28.495  -1.199  53.346  1.00  0.00     0.001 A 
HETATM   12  C7  UNL     1      29.172  -0.521  54.353  1.00  0.00     0.003 A 
HETATM   13  C8  UNL     1      28.991   0.838  54.548  1.00  0.00     0.037 A 
HETATM   14  C9  UNL     1      28.128   1.569  53.747  1.00  0.00     0.074 A 
BRANCH  14  15
HETATM   15  O2  UNL     1      27.900   2.931  53.889  1.00  0.00    -0.360 OA
HETATM   16  H8  UNL     1      27.930   3.279  54.848  1.00  0.00     0.217 HD
ENDBRANCH  14  15
ENDBRANCH   4   9
BRANCH   8  17
HETATM   17  C14 UNL     1      23.888   4.266  49.724  1.00  0.00     0.039 C 
HETATM   18  C15 UNL     1      23.582   5.521  49.818  1.00  0.00     0.155 C 
BRANCH  18  19
HETATM   19  O3  UNL     1      23.743   6.754  50.418  1.00  0.00    -0.273 OA
BRANCH  19  20
HETATM   20  C16 UNL     1      24.905   7.505  50.307  1.00  0.00     0.067 C 
HETATM   21  C17 UNL     1      25.927   8.142  50.211  1.00  0.00    -0.007 C 
BRANCH  21  22
HETATM   22  C18 UNL     1      27.148   8.900  50.122  1.00  0.00     0.325 C 
HETATM   23  O4  UNL     1      27.159  10.152  49.953  1.00  0.00    -0.293 OA
ENDBRANCH  21  22
ENDBRANCH  19  20
ENDBRANCH  18  19
ENDBRANCH   8  17
TORSDOF 6
ENDMDL
MODEL 4
REMARK VINA RESULT:      -7.5      2.567      3.271
REMARK  6 active torsions:
REMARK  status: ('A' for Active; 'I' for Inactive)
REMARK    1  A    between atoms: C3_4  and  C4_5 
REMARK    2  A    between atoms: C9_10  and  O2_11 
REMARK    3  A    between atoms: C13_15  and  C14_16 
REMARK    4  A    between atoms: C15_17  and  O3_18 
REMARK    5  A    between atoms: O3_18  and  C16_19 
REMARK    6  A    between atoms: C17_20  and  C18_21 
ROOT
HETATM    1  C1  UNL     1      27.108   4.401  48.956  1.00  0.00     0.072 C 
HETATM    2  C2  UNL     1      26.505   3.813  49.965  1.00  0.00     0.057 C 
HETATM    3  O1  UNL     1      27.177   2.933  50.801  1.00  0.00    -0.344 OA
HETATM    4  C3  UNL     1      26.410   1.898  51.393  1.00  0.00     0.171 C 
HETATM    5  C10 UNL     1      25.269   2.547  52.110  1.00  0.00     0.039 C 
HETATM    6  C11 UNL     1      24.302   1.535  52.695  1.00  0.00     0.017 C 
HETATM    7  C12 UNL     1      24.576   3.489  51.203  1.00  0.00    -0.006 C 
HETATM    8  C13 UNL     1      25.098   4.127  50.167  1.00  0.00    -0.008 C 
ENDROOT
BRANCH   4   9
HETATM    9  C4  UNL     1      27.251   1.090  52.313  1.00  0.00     0.005 A 
HETATM   10  C5  UNL     1      27.016  -0.274  52.299  1.00  0.00     0.012 A 
HETATM   11  C6  UNL     1      27.712  -1.176  53.094  1.00  0.00     0.001 A 
HETATM   12  C7  UNL     1      28.682  -0.639  53.930  1.00  0.00     0.003 A 
HETATM   13  C8  UNL     1      28.931   0.724  53.957  1.00  0.00     0.037 A 
HETATM   14  C9  UNL     1      28.220   1.599  53.151  1.00  0.00     0.074 A 
BRANCH  14  15
HETATM   15  O2  UNL     1      28.418   2.972  53.128  1.00  0.00    -0.360 OA
HETATM   16  H8  UNL     1      29.235   3.301  53.643  1.00  0.00     0.217 HD
ENDBRANCH  14  15
ENDBRANCH   4   9
BRANCH   8  17
HETATM   17  C14 UNL     1      24.264   5.019  49.380  1.00  0.00     0.039 C 
HETATM   18  C15 UNL     1      23.175   5.609  49.757  1.00  0.00     0.155 C 
BRANCH  18  19
HETATM   19  O3  UNL     1      22.222   5.867  50.723  1.00  0.00    -0.273 OA
BRANCH  19  20
HETATM   20  C16 UNL     1      21.168   5.006  50.997  1.00  0.00     0.067 C 
HETATM   21  C17 UNL     1      20.262   4.250  51.253  1.00  0.00    -0.007 C 
BRANCH  21  22
HETATM   22  C18 UNL     1      19.193   3.330  51.546  1.00  0.00     0.325 C 
HETATM   23  O4  UNL     1      18.109   3.696  52.081  1.00  0.00    -0.293 OA
ENDBRANCH  21  22
ENDBRANCH  19  20
ENDBRANCH  18  19
ENDBRANCH   8  17
TORSDOF 6
ENDMDL
MODEL 5
REMARK VINA RESULT:      -7.4      1.911      3.563
REMARK  6 active torsions:
REMARK  status: ('A' for Active; 'I' for Inactive)
REMARK    1  A    between atoms: C3_4  and  C4_5 
REMARK    2  A    between atoms: C9_10  and  O2_11 
REMARK    3  A    between atoms: C13_15  and  C14_16 
REMARK    4  A    between atoms: C15_17  and  O3_18 
REMARK    5  A    between atoms: O3_18  and  C16_19 
REMARK    6  A    between atoms: C17_20  and  C18_21 
ROOT
HETATM    1  C1  UNL     1      24.106   2.631  50.223  1.00  0.00     0.072 C 
HETATM    2  C2  UNL     1      24.294   1.933  51.320  1.00  0.00     0.057 C 
HETATM    3  O1  UNL     1      25.566   1.694  51.822  1.00  0.00    -0.344 OA
HETATM    4  C3  UNL     1      25.756   0.487  52.543  1.00  0.00     0.171 C 
HETATM    5  C10 UNL     1      24.738   0.461  53.638  1.00  0.00     0.039 C 
HETATM    6  C11 UNL     1      24.760  -0.840  54.417  1.00  0.00     0.017 C 
HETATM    7  C12 UNL     1      23.393   0.730  53.081  1.00  0.00    -0.006 C 
HETATM    8  C13 UNL     1      23.107   1.420  51.988  1.00  0.00    -0.008 C 
ENDROOT
BRANCH   4   9
HETATM    9  C4  UNL     1      27.141   0.414  53.075  1.00  0.00     0.005 A 
HETATM   10  C5  UNL     1      27.788  -0.797  52.897  1.00  0.00     0.012 A 
HETATM   11  C6  UNL     1      29.085  -1.039  53.332  1.00  0.00     0.001 A 
HETATM   12  C7  UNL     1      29.726   0.014  53.973  1.00  0.00     0.003 A 
HETATM   13  C8  UNL     1      29.093   1.232  54.159  1.00  0.00     0.037 A 
HETATM   14  C9  UNL     1      27.798   1.443  53.713  1.00  0.00     0.074 A 
BRANCH  14  15
HETATM   15  O2  UNL     1      27.106   2.636  53.867  1.00  0.00    -0.360 OA
HETATM   16  H8  UNL     1      27.318   3.153  54.721  1.00  0.00     0.217 HD
ENDBRANCH  14  15
ENDBRANCH   4   9
BRANCH   8  17
HETATM   17  C14 UNL     1      21.720   1.582  51.585  1.00  0.00     0.039 C 
HETATM   18  C15 UNL     1      20.979   2.633  51.735  1.00  0.00     0.155 C 
BRANCH  18  19
HETATM   19  O3  UNL     1      20.813   3.932  52.172  1.00  0.00    -0.273 OA
BRANCH  19  20
HETATM   20  C16 UNL     1      21.536   5.002  51.661  1.00  0.00     0.067 C 
HETATM   21  C17 UNL     1      22.182   5.925  51.226  1.00  0.00    -0.007 C 
BRANCH  21  22
HETATM   22  C18 UNL     1      22.948   7.040  50.730  1.00  0.00     0.325 C 
HETATM   23  O4  UNL     1      24.035   7.405  51.258  1.00  0.00    -0.293 OA
ENDBRANCH  21  22
ENDBRANCH  19  20
ENDBRANCH  18  19
ENDBRANCH   8  17
TORSDOF 6
ENDMDL
MODEL 6
REMARK VINA RESULT:      -7.3      2.024      2.108
REMARK  6 active torsions:
REMARK  status: ('A' for Active; 'I' for Inactive)
REMARK    1  A    between atoms: C3_4  and  C4_5 
REMARK    2  A    between atoms: C9_10  and  O2_11 
REMARK    3  A    between atoms: C13_15  and  C14_16 
REMARK    4  A    between atoms: C15_17  and  O3_18 
REMARK    5  A    between atoms: O3_18  and  C16_19 
REMARK    6  A    between atoms: C17_20  and  C18_21 
ROOT
HETATM    1  C1  UNL     1      24.105   2.598  50.396  1.00  0.00     0.072 C 
HETATM    2  C2  UNL     1      24.330   1.913  51.495  1.00  0.00     0.057 C 
HETATM    3  O1  UNL     1      25.617   1.592  51.902  1.00  0.00    -0.344 OA
HETATM    4  C3  UNL     1      25.776   0.391  52.639  1.00  0.00     0.171 C 
HETATM    5  C10 UNL     1      24.850   0.464  53.811  1.00  0.00     0.039 C 
HETATM    6  C11 UNL     1      24.840  -0.817  54.622  1.00  0.00     0.017 C 
HETATM    7  C12 UNL     1      23.487   0.820  53.353  1.00  0.00    -0.006 C 
HETATM    8  C13 UNL     1      23.166   1.504  52.266  1.00  0.00    -0.008 C 
ENDROOT
BRANCH   4   9
HETATM    9  C4  UNL     1      27.190   0.227  53.063  1.00  0.00     0.005 A 
HETATM   10  C5  UNL     1      27.730  -1.035  52.879  1.00  0.00     0.012 A 
HETATM   11  C6  UNL     1      29.036  -1.362  53.219  1.00  0.00     0.001 A 
HETATM   12  C7  UNL     1      29.803  -0.344  53.770  1.00  0.00     0.003 A 
HETATM   13  C8  UNL     1      29.279   0.924  53.962  1.00  0.00     0.037 A 
HETATM   14  C9  UNL     1      27.972   1.221  53.611  1.00  0.00     0.074 A 
BRANCH  14  15
HETATM   15  O2  UNL     1      27.385   2.468  53.776  1.00  0.00    -0.360 OA
HETATM   16  H8  UNL     1      26.505   2.603  53.278  1.00  0.00     0.217 HD
ENDBRANCH  14  15
ENDBRANCH   4   9
BRANCH   8  17
HETATM   17  C14 UNL     1      21.767   1.760  51.969  1.00  0.00     0.039 C 
HETATM   18  C15 UNL     1      20.756   0.997  52.242  1.00  0.00     0.155 C 
BRANCH  18  19
HETATM   19  O3  UNL     1      20.240  -0.164  52.781  1.00  0.00    -0.273 OA
BRANCH  19  20
HETATM   20  C16 UNL     1      18.900  -0.515  52.684  1.00  0.00     0.067 C 
HETATM   21  C17 UNL     1      17.730  -0.801  52.594  1.00  0.00    -0.007 C 
BRANCH  21  22
HETATM   22  C18 UNL     1      16.331  -1.132  52.509  1.00  0.00     0.325 C 
HETATM   23  O4  UNL     1      15.910  -2.321  52.564  1.00  0.00    -0.293 OA
ENDBRANCH  21  22
ENDBRANCH  19  20
ENDBRANCH  18  19
ENDBRANCH   8  17
TORSDOF 6
ENDMDL
MODEL 7
REMARK VINA RESULT:      -7.1      2.297      4.741
REMARK  6 active torsions:
REMARK  status: ('A' for Active; 'I' for Inactive)
REMARK    1  A    between atoms: C3_4  and  C4_5 
REMARK    2  A    between atoms: C9_10  and  O2_11 
REMARK    3  A    between atoms: C13_15  and  C14_16 
REMARK    4  A    between atoms: C15_17  and  O3_18 
REMARK    5  A    between atoms: O3_18  and  C16_19 
REMARK    6  A    between atoms: C17_20  and  C18_21 
ROOT
HETATM    1  C1  UNL     1      21.158   0.609  49.650  1.00  0.00     0.072 C 
HETATM    2  C2  UNL     1      21.881   1.376  50.435  1.00  0.00     0.057 C 
HETATM    3  O1  UNL     1      22.872   2.205  49.930  1.00  0.00    -0.344 OA
HETATM    4  C3  UNL     1      23.979   2.472  50.776  1.00  0.00     0.171 C 
HETATM    5  C10 UNL     1      23.434   3.013  52.059  1.00  0.00     0.039 C 
HETATM    6  C11 UNL     1      24.515   3.234  53.100  1.00  0.00     0.017 C 
HETATM    7  C12 UNL     1      22.371   2.120  52.572  1.00  0.00    -0.006 C 
HETATM    8  C13 UNL     1      21.595   1.316  51.861  1.00  0.00    -0.008 C 
ENDROOT
BRANCH   4   9
HETATM    9  C4  UNL     1      24.911   3.428  50.125  1.00  0.00     0.005 A 
HETATM   10  C5  UNL     1      24.323   4.545  49.555  1.00  0.00     0.012 A 
HETATM   11  C6  UNL     1      25.045   5.539  48.907  1.00  0.00     0.001 A 
HETATM   12  C7  UNL     1      26.422   5.363  48.850  1.00  0.00     0.003 A 
HETATM   13  C8  UNL     1      27.026   4.251  49.415  1.00  0.00     0.037 A 
HETATM   14  C9  UNL     1      26.278   3.276  50.056  1.00  0.00     0.074 A 
BRANCH  14  15
HETATM   15  O2  UNL     1      26.819   2.141  50.642  1.00  0.00    -0.360 OA
HETATM   16  H8  UNL     1      26.988   2.209  51.646  1.00  0.00     0.217 HD
ENDBRANCH  14  15
ENDBRANCH   4   9
BRANCH   8  17
HETATM   17  C14 UNL     1      20.599   0.501  52.535  1.00  0.00     0.039 C 
HETATM   18  C15 UNL     1      20.810  -0.424  53.416  1.00  0.00     0.155 C 
BRANCH  18  19
HETATM   19  O3  UNL     1      21.677  -1.170  54.189  1.00  0.00    -0.273 OA
BRANCH  19  20
HETATM   20  C16 UNL     1      23.042  -0.926  54.247  1.00  0.00     0.067 C 
HETATM   21  C17 UNL     1      24.233  -0.723  54.280  1.00  0.00    -0.007 C 
BRANCH  21  22
HETATM   22  C18 UNL     1      25.656  -0.504  54.330  1.00  0.00     0.325 C 
HETATM   23  O4  UNL     1      26.278  -0.331  55.415  1.00  0.00    -0.293 OA
ENDBRANCH  21  22
ENDBRANCH  19  20
ENDBRANCH  18  19
ENDBRANCH   8  17
TORSDOF 6
ENDMDL
MODEL 8
REMARK VINA RESULT:      -7.0      1.867      4.646
REMARK  6 active torsions:
REMARK  status: ('A' for Active; 'I' for Inactive)
REMARK    1  A    between atoms: C3_4  and  C4_5 
REMARK    2  A    between atoms: C9_10  and  O2_11 
REMARK    3  A    between atoms: C13_15  and  C14_16 
REMARK    4  A    between atoms: C15_17  and  O3_18 
REMARK    5  A    between atoms: O3_18  and  C16_19 
REMARK    6  A    between atoms: C17_20  and  C18_21 
ROOT
HETATM    1  C1  UNL     1      26.599   0.817  54.203  1.00  0.00     0.072 C 
HETATM    2  C2  UNL     1      25.791   1.155  53.223  1.00  0.00     0.057 C 
HETATM    3  O1  UNL     1      26.117   2.161  52.326  1.00  0.00    -0.344 OA
HETATM    4  C3  UNL     1      25.040   2.892  51.762  1.00  0.00     0.171 C 
HETATM    5  C10 UNL     1      24.112   1.900  51.135  1.00  0.00     0.039 C 
HETATM    6  C11 UNL     1      22.853   2.548  50.593  1.00  0.00     0.017 C 
HETATM    7  C12 UNL     1      23.789   0.830  52.106  1.00  0.00    -0.006 C 
HETATM    8  C13 UNL     1      24.537   0.423  53.120  1.00  0.00    -0.008 C 
ENDROOT
BRANCH   4   9
HETATM    9  C4  UNL     1      25.544   3.878  50.771  1.00  0.00     0.005 A 
HETATM   10  C5  UNL     1      26.520   3.414  49.906  1.00  0.00     0.012 A 
HETATM   11  C6  UNL     1      27.100   4.200  48.920  1.00  0.00     0.001 A 
HETATM   12  C7  UNL     1      26.651   5.512  48.833  1.00  0.00     0.003 A 
HETATM   13  C8  UNL     1      25.675   5.993  49.691  1.00  0.00     0.037 A 
HETATM   14  C9  UNL     1      25.114   5.182  50.666  1.00  0.00     0.074 A 
BRANCH  14  15
HETATM   15  O2  UNL     1      24.134   5.600  51.555  1.00  0.00    -0.360 OA
HETATM   16  H8  UNL     1      23.849   6.575  51.461  1.00  0.00     0.217 HD
ENDBRANCH  14  15
ENDBRANCH   4   9
BRANCH   8  17
HETATM   17  C14 UNL     1      24.058  -0.646  53.979  1.00  0.00     0.039 C 
HETATM   18  C15 UNL     1      22.886  -0.749  54.522  1.00  0.00     0.155 C 
BRANCH  18  19
HETATM   19  O3  UNL     1      21.615  -0.256  54.735  1.00  0.00    -0.273 OA
BRANCH  19  20
HETATM   20  C16 UNL     1      20.659  -0.166  53.733  1.00  0.00     0.067 C 
HETATM   21  C17 UNL     1      19.827  -0.108  52.859  1.00  0.00    -0.007 C 
BRANCH  21  22
HETATM   22  C18 UNL     1      18.854  -0.041  51.799  1.00  0.00     0.325 C 
HETATM   23  O4  UNL     1      19.088   0.531  50.698  1.00  0.00    -0.293 OA
ENDBRANCH  21  22
ENDBRANCH  19  20
ENDBRANCH  18  19
ENDBRANCH   8  17
TORSDOF 6
ENDMDL
MODEL 9
REMARK VINA RESULT:      -6.8      4.505      8.609
REMARK  6 active torsions:
REMARK  status: ('A' for Active; 'I' for Inactive)
REMARK    1  A    between atoms: C3_4  and  C4_5 
REMARK    2  A    between atoms: C9_10  and  O2_11 
REMARK    3  A    between atoms: C13_15  and  C14_16 
REMARK    4  A    between atoms: C15_17  and  O3_18 
REMARK    5  A    between atoms: O3_18  and  C16_19 
REMARK    6  A    between atoms: C17_20  and  C18_21 
ROOT
HETATM    1  C1  UNL     1      25.049   6.984  48.262  1.00  0.00     0.072 C 
HETATM    2  C2  UNL     1      25.406   5.826  48.772  1.00  0.00     0.057 C 
HETATM    3  O1  UNL     1      24.480   4.966  49.342  1.00  0.00    -0.344 OA
HETATM    4  C3  UNL     1      24.942   4.127  50.388  1.00  0.00     0.171 C 
HETATM    5  C10 UNL     1      26.119   3.369  49.861  1.00  0.00     0.039 C 
HETATM    6  C11 UNL     1      26.781   2.515  50.925  1.00  0.00     0.017 C 
HETATM    7  C12 UNL     1      27.086   4.306  49.247  1.00  0.00    -0.006 C 
HETATM    8  C13 UNL     1      26.820   5.487  48.711  1.00  0.00    -0.008 C 
ENDROOT
BRANCH   4   9
HETATM    9  C4  UNL     1      23.858   3.217  50.841  1.00  0.00     0.005 A 
HETATM   10  C5  UNL     1      23.189   2.536  49.839  1.00  0.00     0.012 A 
HETATM   11  C6  UNL     1      22.151   1.646  50.084  1.00  0.00     0.001 A 
HETATM   12  C7  UNL     1      21.799   1.462  51.415  1.00  0.00     0.003 A 
HETATM   13  C8  UNL     1      22.458   2.136  52.431  1.00  0.00     0.037 A 
HETATM   14  C9  UNL     1      23.491   3.018  52.154  1.00  0.00     0.074 A 
BRANCH  14  15
HETATM   15  O2  UNL     1      24.192   3.724  53.121  1.00  0.00    -0.360 OA
HETATM   16  H8  UNL     1      23.640   4.400  53.650  1.00  0.00     0.217 HD
ENDBRANCH  14  15
ENDBRANCH   4   9
BRANCH   8  17
HETATM   17  C14 UNL     1      27.902   6.280  48.152  1.00  0.00     0.039 C 
HETATM   18  C15 UNL     1      29.151   5.948  48.061  1.00  0.00     0.155 C 
BRANCH  18  19
HETATM   19  O3  UNL     1      30.169   5.039  48.268  1.00  0.00    -0.273 OA
BRANCH  19  20
HETATM   20  C16 UNL     1      31.505   5.405  48.357  1.00  0.00     0.067 C 
HETATM   21  C17 UNL     1      32.664   5.732  48.453  1.00  0.00    -0.007 C 
BRANCH  21  22
HETATM   22  C18 UNL     1      34.040   6.145  48.559  1.00  0.00     0.325 C 
HETATM   23  O4  UNL     1      34.942   5.391  49.018  1.00  0.00    -0.293 OA
ENDBRANCH  21  22
ENDBRANCH  19  20
ENDBRANCH  18  19
ENDBRANCH   8  17
TORSDOF 6
ENDMDL
