MODEL 1
REMARK VINA RESULT:      -6.8      0.000      0.000
REMARK  6 active torsions:
REMARK  status: ('A' for Active; 'I' for Inactive)
REMARK    1  A    between atoms: C2_2  and  O1_3 
REMARK    2  A    between atoms: C2_2  and  C4_5 
REMARK    3  A    between atoms: C4_5  and  O2_19 
REMARK    4  A    between atoms: C5_6  and  C6_7 
REMARK    5  A    between atoms: C8_11  and  N3_12 
REMARK    6  A    between atoms: N3_12  and  C9_13 
ROOT
HETATM    1  C6  UNL     1      26.718   2.191  51.840  1.00  0.00     0.069 A 
HETATM    2  N1  UNL     1      26.816   2.932  50.704  1.00  0.00    -0.246 NA
HETATM    3  C7  UNL     1      25.581   3.443  50.370  1.00  0.00     0.229 A 
HETATM    4  N2  UNL     1      24.737   3.092  51.198  1.00  0.00    -0.251 NA
HETATM    5  C8  UNL     1      25.310   2.240  52.271  1.00  0.00     0.256 A 
ENDROOT
BRANCH   1   6
HETATM    6  C5  UNL     1      27.500   1.337  52.848  1.00  0.00     0.113 C 
HETATM    7  C4  UNL     1      27.958   0.195  53.455  1.00  0.00     0.089 C 
BRANCH   7   8
HETATM    8  C2  UNL     1      27.535  -1.197  52.939  1.00  0.00     0.088 C 
HETATM    9  C1  UNL     1      26.610  -1.713  52.179  1.00  0.00     0.053 C 
BRANCH   8  10
HETATM   10  O1  UNL     1      28.252  -2.340  53.338  1.00  0.00    -0.354 OA
HETATM   11  C3  UNL     1      29.669  -2.214  53.400  1.00  0.00     0.210 C 
ENDBRANCH   8  10
ENDBRANCH   7   8
BRANCH   7  12
HETATM   12  O2  UNL     1      28.523   1.008  54.166  1.00  0.00    -0.357 OA
HETATM   13  C15 UNL     1      29.363   2.013  54.522  1.00  0.00     0.209 C 
ENDBRANCH   7  12
ENDBRANCH   1   6
BRANCH   5  14
HETATM   14  N3  UNL     1      24.539   1.019  52.136  1.00  0.00    -0.362 N 
HETATM   15  H9  UNL     1      24.770   0.382  51.336  1.00  0.00     0.162 HD
BRANCH  14  16
HETATM   16  C9  UNL     1      23.507   0.578  53.005  1.00  0.00     0.029 A 
HETATM   17  C10 UNL     1      22.224   1.066  52.986  1.00  0.00     0.029 A 
HETATM   18  C11 UNL     1      21.304   0.495  53.804  1.00  0.00     0.002 A 
HETATM   19  C12 UNL     1      21.455  -0.582  54.719  1.00  0.00     0.000 A 
HETATM   20  C13 UNL     1      22.781  -1.055  54.714  1.00  0.00     0.002 A 
HETATM   21  C14 UNL     1      23.759  -0.469  53.866  1.00  0.00     0.029 A 
ENDBRANCH  14  16
ENDBRANCH   5  14
TORSDOF 6
ENDMDL
MODEL 2
REMARK VINA RESULT:      -6.7      1.005      2.360
REMARK  6 active torsions:
REMARK  status: ('A' for Active; 'I' for Inactive)
REMARK    1  A    between atoms: C2_2  and  O1_3 
REMARK    2  A    between atoms: C2_2  and  C4_5 
REMARK    3  A    between atoms: C4_5  and  O2_19 
REMARK    4  A    between atoms: C5_6  and  C6_7 
REMARK    5  A    between atoms: C8_11  and  N3_12 
REMARK    6  A    between atoms: N3_12  and  C9_13 
ROOT
HETATM    1  C6  UNL     1      25.940   2.118  51.190  1.00  0.00     0.069 A 
HETATM    2  N1  UNL     1      26.043   3.025  50.183  1.00  0.00    -0.246 NA
HETATM    3  C7  UNL     1      24.911   3.810  50.142  1.00  0.00     0.229 A 
HETATM    4  N2  UNL     1      24.128   3.474  51.035  1.00  0.00    -0.251 NA
HETATM    5  C8  UNL     1      24.644   2.346  51.852  1.00  0.00     0.256 A 
ENDROOT
BRANCH   1   6
HETATM    6  C5  UNL     1      26.649   0.962  51.910  1.00  0.00     0.113 C 
HETATM    7  C4  UNL     1      27.563   0.350  52.731  1.00  0.00     0.089 C 
BRANCH   7   8
HETATM    8  C2  UNL     1      28.612   1.181  53.500  1.00  0.00     0.088 C 
HETATM    9  C1  UNL     1      28.846   2.431  53.783  1.00  0.00     0.053 C 
BRANCH   8  10
HETATM   10  O1  UNL     1      29.707   0.537  54.107  1.00  0.00    -0.354 OA
HETATM   11  C3  UNL     1      29.982  -0.793  53.678  1.00  0.00     0.210 C 
ENDBRANCH   8  10
ENDBRANCH   7   8
BRANCH   7  12
HETATM   12  O2  UNL     1      26.972  -0.647  52.356  1.00  0.00    -0.357 OA
HETATM   13  C15 UNL     1      26.634  -1.959  52.256  1.00  0.00     0.209 C 
ENDBRANCH   7  12
ENDBRANCH   1   6
BRANCH   5  14
HETATM   14  N3  UNL     1      23.621   1.337  51.658  1.00  0.00    -0.362 N 
HETATM   15  H9  UNL     1      23.349   1.099  50.674  1.00  0.00     0.162 HD
BRANCH  14  16
HETATM   16  C9  UNL     1      22.960   0.605  52.680  1.00  0.00     0.029 A 
HETATM   17  C10 UNL     1      23.558  -0.371  53.438  1.00  0.00     0.029 A 
HETATM   18  C11 UNL     1      22.846  -0.931  54.448  1.00  0.00     0.002 A 
HETATM   19  C12 UNL     1      21.518  -0.658  54.876  1.00  0.00     0.000 A 
HETATM   20  C13 UNL     1      20.935   0.343  54.075  1.00  0.00     0.002 A 
HETATM   21  C14 UNL     1      21.665   0.940  53.012  1.00  0.00     0.029 A 
ENDBRANCH  14  16
ENDBRANCH   5  14
TORSDOF 6
ENDMDL
MODEL 3
REMARK VINA RESULT:      -6.7      2.871      5.675
REMARK  6 active torsions:
REMARK  status: ('A' for Active; 'I' for Inactive)
REMARK    1  A    between atoms: C2_2  and  O1_3 
REMARK    2  A    between atoms: C2_2  and  C4_5 
REMARK    3  A    between atoms: C4_5  and  O2_19 
REMARK    4  A    between atoms: C5_6  and  C6_7 
REMARK    5  A    between atoms: C8_11  and  N3_12 
REMARK    6  A    between atoms: N3_12  and  C9_13 
ROOT
HETATM    1  C6  UNL     1      25.147   3.996  49.370  1.00  0.00     0.069 A 
HETATM    2  N1  UNL     1      25.519   5.171  48.797  1.00  0.00    -0.246 NA
HETATM    3  C7  UNL     1      26.891   5.297  48.836  1.00  0.00     0.229 A 
HETATM    4  N2  UNL     1      27.394   4.306  49.372  1.00  0.00    -0.251 NA
HETATM    5  C8  UNL     1      26.378   3.312  49.802  1.00  0.00     0.256 A 
ENDROOT
BRANCH   1   6
HETATM    6  C5  UNL     1      23.951   3.103  49.730  1.00  0.00     0.113 C 
HETATM    7  C4  UNL     1      23.101   2.387  50.536  1.00  0.00     0.089 C 
BRANCH   7   8
HETATM    8  C2  UNL     1      23.325   2.327  52.062  1.00  0.00     0.088 C 
HETATM    9  C1  UNL     1      23.132   1.490  53.042  1.00  0.00     0.053 C 
BRANCH   8  10
HETATM   10  O1  UNL     1      23.869   3.438  52.734  1.00  0.00    -0.354 OA
HETATM   11  C3  UNL     1      23.113   4.644  52.689  1.00  0.00     0.210 C 
ENDBRANCH   8  10
ENDBRANCH   7   8
BRANCH   7  12
HETATM   12  O2  UNL     1      22.562   2.157  49.467  1.00  0.00    -0.357 OA
HETATM   13  C15 UNL     1      21.829   1.498  48.533  1.00  0.00     0.209 C 
ENDBRANCH   7  12
ENDBRANCH   1   6
BRANCH   5  14
HETATM   14  N3  UNL     1      26.617   3.229  51.230  1.00  0.00    -0.362 N 
HETATM   15  H9  UNL     1      26.445   4.089  51.804  1.00  0.00     0.162 HD
BRANCH  14  16
HETATM   16  C9  UNL     1      27.038   2.077  51.945  1.00  0.00     0.029 A 
HETATM   17  C10 UNL     1      27.850   2.113  53.052  1.00  0.00     0.029 A 
HETATM   18  C11 UNL     1      28.105   0.951  53.704  1.00  0.00     0.002 A 
HETATM   19  C12 UNL     1      27.643  -0.363  53.419  1.00  0.00     0.000 A 
HETATM   20  C13 UNL     1      26.819  -0.363  52.277  1.00  0.00     0.002 A 
HETATM   21  C14 UNL     1      26.542   0.845  51.581  1.00  0.00     0.029 A 
ENDBRANCH  14  16
ENDBRANCH   5  14
TORSDOF 6
ENDMDL
MODEL 4
REMARK VINA RESULT:      -6.6      2.768      5.836
REMARK  6 active torsions:
REMARK  status: ('A' for Active; 'I' for Inactive)
REMARK    1  A    between atoms: C2_2  and  O1_3 
REMARK    2  A    between atoms: C2_2  and  C4_5 
REMARK    3  A    between atoms: C4_5  and  O2_19 
REMARK    4  A    between atoms: C5_6  and  C6_7 
REMARK    5  A    between atoms: C8_11  and  N3_12 
REMARK    6  A    between atoms: N3_12  and  C9_13 
ROOT
HETATM    1  C6  UNL     1      22.043  -0.080  52.929  1.00  0.00     0.069 A 
HETATM    2  N1  UNL     1      21.058  -0.862  53.444  1.00  0.00    -0.246 NA
HETATM    3  C7  UNL     1      21.501  -1.477  54.595  1.00  0.00     0.229 A 
HETATM    4  N2  UNL     1      22.663  -1.139  54.838  1.00  0.00    -0.251 NA
HETATM    5  C8  UNL     1      23.206  -0.197  53.827  1.00  0.00     0.256 A 
ENDROOT
BRANCH   1   6
HETATM    6  C5  UNL     1      22.411   0.881  51.790  1.00  0.00     0.113 C 
HETATM    7  C4  UNL     1      23.106   1.872  51.142  1.00  0.00     0.089 C 
BRANCH   7   8
HETATM    8  C2  UNL     1      24.298   2.575  51.825  1.00  0.00     0.088 C 
HETATM    9  C1  UNL     1      24.611   3.036  53.004  1.00  0.00     0.053 C 
BRANCH   8  10
HETATM   10  O1  UNL     1      25.445   2.896  51.075  1.00  0.00    -0.354 OA
HETATM   11  C3  UNL     1      26.675   2.332  51.520  1.00  0.00     0.210 C 
ENDBRANCH   8  10
ENDBRANCH   7   8
BRANCH   7  12
HETATM   12  O2  UNL     1      22.296   1.626  50.265  1.00  0.00    -0.357 OA
HETATM   13  C15 UNL     1      21.547   0.895  49.400  1.00  0.00     0.209 C 
ENDBRANCH   7  12
ENDBRANCH   1   6
BRANCH   5  14
HETATM   14  N3  UNL     1      24.355  -0.922  53.320  1.00  0.00    -0.362 N 
HETATM   15  H9  UNL     1      24.178  -1.730  52.676  1.00  0.00     0.162 HD
BRANCH  14  16
HETATM   16  C9  UNL     1      25.718  -0.628  53.589  1.00  0.00     0.029 A 
HETATM   17  C10 UNL     1      26.147   0.139  54.644  1.00  0.00     0.029 A 
HETATM   18  C11 UNL     1      27.482   0.269  54.848  1.00  0.00     0.002 A 
HETATM   19  C12 UNL     1      28.565  -0.289  54.116  1.00  0.00     0.000 A 
HETATM   20  C13 UNL     1      28.089  -1.064  53.041  1.00  0.00     0.002 A 
HETATM   21  C14 UNL     1      26.695  -1.211  52.811  1.00  0.00     0.029 A 
ENDBRANCH  14  16
ENDBRANCH   5  14
TORSDOF 6
ENDMDL
MODEL 5
REMARK VINA RESULT:      -6.5      2.414      4.732
REMARK  6 active torsions:
REMARK  status: ('A' for Active; 'I' for Inactive)
REMARK    1  A    between atoms: C2_2  and  O1_3 
REMARK    2  A    between atoms: C2_2  and  C4_5 
REMARK    3  A    between atoms: C4_5  and  O2_19 
REMARK    4  A    between atoms: C5_6  and  C6_7 
REMARK    5  A    between atoms: C8_11  and  N3_12 
REMARK    6  A    between atoms: N3_12  and  C9_13 
ROOT
HETATM    1  C6  UNL     1      23.447  -0.760  53.925  1.00  0.00     0.069 A 
HETATM    2  N1  UNL     1      22.649  -1.033  54.991  1.00  0.00    -0.246 NA
HETATM    3  C7  UNL     1      21.326  -0.879  54.637  1.00  0.00     0.229 A 
HETATM    4  N2  UNL     1      21.238  -0.546  53.452  1.00  0.00    -0.251 NA
HETATM    5  C8  UNL     1      22.564  -0.413  52.797  1.00  0.00     0.256 A 
ENDROOT
BRANCH   1   6
HETATM    6  C5  UNL     1      24.900  -0.683  53.437  1.00  0.00     0.113 C 
HETATM    7  C4  UNL     1      26.137  -0.129  53.221  1.00  0.00     0.089 C 
BRANCH   7   8
HETATM    8  C2  UNL     1      26.454   1.304  53.701  1.00  0.00     0.088 C 
HETATM    9  C1  UNL     1      25.929   2.495  53.622  1.00  0.00     0.053 C 
BRANCH   8  10
HETATM   10  O1  UNL     1      27.631   1.554  54.429  1.00  0.00    -0.354 OA
HETATM   11  C3  UNL     1      28.418   0.419  54.778  1.00  0.00     0.210 C 
ENDBRANCH   8  10
ENDBRANCH   7   8
BRANCH   7  12
HETATM   12  O2  UNL     1      26.338  -1.211  52.698  1.00  0.00    -0.357 OA
HETATM   13  C15 UNL     1      26.991  -2.351  52.354  1.00  0.00     0.209 C 
ENDBRANCH   7  12
ENDBRANCH   1   6
BRANCH   5  14
HETATM   14  N3  UNL     1      22.557   0.973  52.372  1.00  0.00    -0.362 N 
HETATM   15  H9  UNL     1      22.633   1.712  53.112  1.00  0.00     0.162 HD
BRANCH  14  16
HETATM   16  C9  UNL     1      22.484   1.440  51.033  1.00  0.00     0.029 A 
HETATM   17  C10 UNL     1      23.304   2.409  50.510  1.00  0.00     0.029 A 
HETATM   18  C11 UNL     1      23.199   2.701  49.189  1.00  0.00     0.002 A 
HETATM   19  C12 UNL     1      22.340   2.138  48.207  1.00  0.00     0.000 A 
HETATM   20  C13 UNL     1      21.513   1.152  48.777  1.00  0.00     0.002 A 
HETATM   21  C14 UNL     1      21.608   0.834  50.159  1.00  0.00     0.029 A 
ENDBRANCH  14  16
ENDBRANCH   5  14
TORSDOF 6
ENDMDL
MODEL 6
REMARK VINA RESULT:      -6.3      2.892      5.804
REMARK  6 active torsions:
REMARK  status: ('A' for Active; 'I' for Inactive)
REMARK    1  A    between atoms: C2_2  and  O1_3 
REMARK    2  A    between atoms: C2_2  and  C4_5 
REMARK    3  A    between atoms: C4_5  and  O2_19 
REMARK    4  A    between atoms: C5_6  and  C6_7 
REMARK    5  A    between atoms: C8_11  and  N3_12 
REMARK    6  A    between atoms: N3_12  and  C9_13 
ROOT
HETATM    1  C6  UNL     1      24.716   2.980  50.613  1.00  0.00     0.069 A 
HETATM    2  N1  UNL     1      24.795   4.128  49.889  1.00  0.00    -0.246 NA
HETATM    3  C7  UNL     1      26.114   4.428  49.628  1.00  0.00     0.229 A 
HETATM    4  N2  UNL     1      26.851   3.568  50.117  1.00  0.00    -0.251 NA
HETATM    5  C8  UNL     1      26.094   2.504  50.825  1.00  0.00     0.256 A 
ENDROOT
BRANCH   1   6
HETATM    6  C5  UNL     1      23.757   1.987  51.284  1.00  0.00     0.113 C 
HETATM    7  C4  UNL     1      22.633   1.214  51.433  1.00  0.00     0.089 C 
BRANCH   7   8
HETATM    8  C2  UNL     1      21.537   1.199  50.346  1.00  0.00     0.088 C 
HETATM    9  C1  UNL     1      21.454   1.102  49.049  1.00  0.00     0.053 C 
BRANCH   8  10
HETATM   10  O1  UNL     1      20.186   1.347  50.712  1.00  0.00    -0.354 OA
HETATM   11  C3  UNL     1      19.922   2.135  51.868  1.00  0.00     0.210 C 
ENDBRANCH   8  10
ENDBRANCH   7   8
BRANCH   7  12
HETATM   12  O2  UNL     1      23.184   0.922  52.480  1.00  0.00    -0.357 OA
HETATM   13  C15 UNL     1      23.847   0.173  53.398  1.00  0.00     0.209 C 
ENDBRANCH   7  12
ENDBRANCH   1   6
BRANCH   5  14
HETATM   14  N3  UNL     1      26.623   2.599  52.172  1.00  0.00    -0.362 N 
HETATM   15  H9  UNL     1      26.369   3.445  52.738  1.00  0.00     0.162 HD
BRANCH  14  16
HETATM   16  C9  UNL     1      27.437   1.635  52.824  1.00  0.00     0.029 A 
HETATM   17  C10 UNL     1      27.350   0.283  52.609  1.00  0.00     0.029 A 
HETATM   18  C11 UNL     1      28.248  -0.528  53.223  1.00  0.00     0.002 A 
HETATM   19  C12 UNL     1      29.321  -0.191  54.092  1.00  0.00     0.000 A 
HETATM   20  C13 UNL     1      29.378   1.202  54.293  1.00  0.00     0.002 A 
HETATM   21  C14 UNL     1      28.445   2.066  53.659  1.00  0.00     0.029 A 
ENDBRANCH  14  16
ENDBRANCH   5  14
TORSDOF 6
ENDMDL
MODEL 7
REMARK VINA RESULT:      -6.3      1.547      2.594
REMARK  6 active torsions:
REMARK  status: ('A' for Active; 'I' for Inactive)
REMARK    1  A    between atoms: C2_2  and  O1_3 
REMARK    2  A    between atoms: C2_2  and  C4_5 
REMARK    3  A    between atoms: C4_5  and  O2_19 
REMARK    4  A    between atoms: C5_6  and  C6_7 
REMARK    5  A    between atoms: C8_11  and  N3_12 
REMARK    6  A    between atoms: N3_12  and  C9_13 
ROOT
HETATM    1  C6  UNL     1      25.638   1.582  52.475  1.00  0.00     0.069 A 
HETATM    2  N1  UNL     1      26.110   2.424  51.518  1.00  0.00    -0.246 NA
HETATM    3  C7  UNL     1      25.065   3.127  50.957  1.00  0.00     0.229 A 
HETATM    4  N2  UNL     1      24.000   2.800  51.486  1.00  0.00    -0.251 NA
HETATM    5  C8  UNL     1      24.178   1.766  52.537  1.00  0.00     0.256 A 
ENDROOT
BRANCH   1   6
HETATM    6  C5  UNL     1      26.033   0.527  53.518  1.00  0.00     0.113 C 
HETATM    7  C4  UNL     1      26.865  -0.211  54.323  1.00  0.00     0.089 C 
BRANCH   7   8
HETATM    8  C2  UNL     1      28.389   0.035  54.316  1.00  0.00     0.088 C 
HETATM    9  C1  UNL     1      29.475  -0.592  53.959  1.00  0.00     0.053 C 
BRANCH   8  10
HETATM   10  O1  UNL     1      28.907   1.235  54.838  1.00  0.00    -0.354 OA
HETATM   11  C3  UNL     1      28.983   2.339  53.942  1.00  0.00     0.210 C 
ENDBRANCH   8  10
ENDBRANCH   7   8
BRANCH   7  12
HETATM   12  O2  UNL     1      25.810  -0.726  54.646  1.00  0.00    -0.357 OA
HETATM   13  C15 UNL     1      24.806  -1.166  55.449  1.00  0.00     0.209 C 
ENDBRANCH   7  12
ENDBRANCH   1   6
BRANCH   5  14
HETATM   14  N3  UNL     1      23.357   0.680  52.039  1.00  0.00    -0.362 N 
HETATM   15  H9  UNL     1      23.768   0.053  51.306  1.00  0.00     0.162 HD
BRANCH  14  16
HETATM   16  C9  UNL     1      22.043   0.354  52.469  1.00  0.00     0.029 A 
HETATM   17  C10 UNL     1      20.901   0.734  51.810  1.00  0.00     0.029 A 
HETATM   18  C11 UNL     1      19.708   0.280  52.269  1.00  0.00     0.002 A 
HETATM   19  C12 UNL     1      19.432  -0.570  53.375  1.00  0.00     0.000 A 
HETATM   20  C13 UNL     1      20.624  -0.936  54.029  1.00  0.00     0.002 A 
HETATM   21  C14 UNL     1      21.882  -0.469  53.562  1.00  0.00     0.029 A 
ENDBRANCH  14  16
ENDBRANCH   5  14
TORSDOF 6
ENDMDL
MODEL 8
REMARK VINA RESULT:      -6.3      2.754      6.236
REMARK  6 active torsions:
REMARK  status: ('A' for Active; 'I' for Inactive)
REMARK    1  A    between atoms: C2_2  and  O1_3 
REMARK    2  A    between atoms: C2_2  and  C4_5 
REMARK    3  A    between atoms: C4_5  and  O2_19 
REMARK    4  A    between atoms: C5_6  and  C6_7 
REMARK    5  A    between atoms: C8_11  and  N3_12 
REMARK    6  A    between atoms: N3_12  and  C9_13 
ROOT
HETATM    1  C6  UNL     1      23.654   1.316  52.397  1.00  0.00     0.069 A 
HETATM    2  N1  UNL     1      22.550   0.534  52.529  1.00  0.00    -0.246 NA
HETATM    3  C7  UNL     1      22.847  -0.569  53.300  1.00  0.00     0.229 A 
HETATM    4  N2  UNL     1      24.027  -0.531  53.660  1.00  0.00    -0.251 NA
HETATM    5  C8  UNL     1      24.740   0.667  53.151  1.00  0.00     0.256 A 
ENDROOT
BRANCH   1   6
HETATM    6  C5  UNL     1      24.204   2.610  51.780  1.00  0.00     0.113 C 
HETATM    7  C4  UNL     1      24.199   3.918  51.364  1.00  0.00     0.089 C 
BRANCH   7   8
HETATM    8  C2  UNL     1      22.947   4.801  51.556  1.00  0.00     0.088 C 
HETATM    9  C1  UNL     1      22.478   5.934  51.113  1.00  0.00     0.053 C 
BRANCH   8  10
HETATM   10  O1  UNL     1      21.941   4.405  52.457  1.00  0.00    -0.354 OA
HETATM   11  C3  UNL     1      20.724   3.932  51.886  1.00  0.00     0.210 C 
ENDBRANCH   8  10
ENDBRANCH   7   8
BRANCH   7  12
HETATM   12  O2  UNL     1      25.333   3.633  51.025  1.00  0.00    -0.357 OA
HETATM   13  C15 UNL     1      26.343   2.961  50.413  1.00  0.00     0.209 C 
ENDBRANCH   7  12
ENDBRANCH   1   6
BRANCH   5  14
HETATM   14  N3  UNL     1      25.815   0.076  52.376  1.00  0.00    -0.362 N 
HETATM   15  H9  UNL     1      25.584  -0.291  51.421  1.00  0.00     0.162 HD
BRANCH  14  16
HETATM   16  C9  UNL     1      27.174  -0.033  52.773  1.00  0.00     0.029 A 
HETATM   17  C10 UNL     1      27.947   1.029  53.170  1.00  0.00     0.029 A 
HETATM   18  C11 UNL     1      29.204   0.782  53.617  1.00  0.00     0.002 A 
HETATM   19  C12 UNL     1      29.886  -0.459  53.752  1.00  0.00     0.000 A 
HETATM   20  C13 UNL     1      29.065  -1.524  53.333  1.00  0.00     0.002 A 
HETATM   21  C14 UNL     1      27.747  -1.284  52.862  1.00  0.00     0.029 A 
ENDBRANCH  14  16
ENDBRANCH   5  14
TORSDOF 6
ENDMDL
MODEL 9
REMARK VINA RESULT:      -6.3      3.070      6.213
REMARK  6 active torsions:
REMARK  status: ('A' for Active; 'I' for Inactive)
REMARK    1  A    between atoms: C2_2  and  O1_3 
REMARK    2  A    between atoms: C2_2  and  C4_5 
REMARK    3  A    between atoms: C4_5  and  O2_19 
REMARK    4  A    between atoms: C5_6  and  C6_7 
REMARK    5  A    between atoms: C8_11  and  N3_12 
REMARK    6  A    between atoms: N3_12  and  C9_13 
ROOT
HETATM    1  C6  UNL     1      23.337   1.436  52.741  1.00  0.00     0.069 A 
HETATM    2  N1  UNL     1      23.544   2.710  52.316  1.00  0.00    -0.246 NA
HETATM    3  C7  UNL     1      24.829   2.841  51.835  1.00  0.00     0.229 A 
HETATM    4  N2  UNL     1      25.426   1.764  51.918  1.00  0.00    -0.251 NA
HETATM    5  C8  UNL     1      24.585   0.690  52.505  1.00  0.00     0.256 A 
ENDROOT
BRANCH   1   6
HETATM    6  C5  UNL     1      22.312   0.474  53.358  1.00  0.00     0.113 C 
HETATM    7  C4  UNL     1      21.121  -0.196  53.489  1.00  0.00     0.089 C 
BRANCH   7   8
HETATM    8  C2  UNL     1      19.978   0.023  52.476  1.00  0.00     0.088 C 
HETATM    9  C1  UNL     1      19.831   0.435  51.248  1.00  0.00     0.053 C 
BRANCH   8  10
HETATM   10  O1  UNL     1      18.648  -0.236  52.855  1.00  0.00    -0.354 OA
HETATM   11  C3  UNL     1      18.381  -1.522  53.407  1.00  0.00     0.210 C 
ENDBRANCH   8  10
ENDBRANCH   7   8
BRANCH   7  12
HETATM   12  O2  UNL     1      21.689  -0.658  54.463  1.00  0.00    -0.357 OA
HETATM   13  C15 UNL     1      22.575  -1.392  55.185  1.00  0.00     0.209 C 
ENDBRANCH   7  12
ENDBRANCH   1   6
BRANCH   5  14
HETATM   14  N3  UNL     1      25.353   0.308  53.674  1.00  0.00    -0.362 N 
HETATM   15  H9  UNL     1      24.854   0.272  54.596  1.00  0.00     0.162 HD
BRANCH  14  16
HETATM   16  C9  UNL     1      26.725  -0.057  53.696  1.00  0.00     0.029 A 
HETATM   17  C10 UNL     1      27.670   0.551  54.484  1.00  0.00     0.029 A 
HETATM   18  C11 UNL     1      28.931   0.049  54.484  1.00  0.00     0.002 A 
HETATM   19  C12 UNL     1      29.460  -1.062  53.771  1.00  0.00     0.000 A 
HETATM   20  C13 UNL     1      28.465  -1.657  52.972  1.00  0.00     0.002 A 
HETATM   21  C14 UNL     1      27.140  -1.144  52.958  1.00  0.00     0.029 A 
ENDBRANCH  14  16
ENDBRANCH   5  14
TORSDOF 6
ENDMDL
