MODEL 1
REMARK VINA RESULT:      -9.1      0.000      0.000
REMARK  5 active torsions:
REMARK  status: ('A' for Active; 'I' for Inactive)
REMARK    1  A    between atoms: C5_8  and  N3_9 
REMARK    2  A    between atoms: N3_9  and  C6_10 
REMARK    3  A    between atoms: C14_20  and  N4_21 
REMARK    4  A    between atoms: N4_21  and  C15_22 
REMARK    5  A    between atoms: C15_22  and  C16_23 
ROOT
HETATM    1  C1  UNL     1      23.776   1.000  52.934  1.00  0.00     0.046 C 
HETATM    2  C2  UNL     1      24.604   2.276  53.050  1.00  0.00     0.175 A 
HETATM    3  O1  UNL     1      23.708   3.344  52.857  1.00  0.00    -0.322 OA
HETATM    4  C3  UNL     1      23.803   4.228  51.827  1.00  0.00     0.180 A 
HETATM    5  N1  UNL     1      22.856   5.198  51.780  1.00  0.00    -0.217 NA
HETATM    6  C4  UNL     1      22.852   6.123  50.810  1.00  0.00     0.238 A 
HETATM    7  N2  UNL     1      23.827   6.031  49.902  1.00  0.00    -0.223 NA
HETATM    8  C5  UNL     1      24.789   5.130  49.862  1.00  0.00     0.144 A 
HETATM    9  C12 UNL     1      24.777   4.191  50.863  1.00  0.00     0.065 A 
HETATM   10  C13 UNL     1      25.721   3.109  51.031  1.00  0.00     0.047 A 
HETATM   11  C14 UNL     1      25.675   2.205  52.026  1.00  0.00     0.035 A 
ENDROOT
BRANCH  11  12
HETATM   12  N4  UNL     1      26.699   1.219  52.024  1.00  0.00    -0.388 N 
HETATM   13  H11 UNL     1      27.638   1.720  52.005  1.00  0.00     0.159 HD
BRANCH  12  14
HETATM   14  C15 UNL     1      26.813  -0.224  52.031  1.00  0.00     0.165 C 
BRANCH  14  15
HETATM   15  C16 UNL     1      27.068  -0.825  53.372  1.00  0.00     0.336 C 
HETATM   16  N5  UNL     1      28.014  -1.912  53.344  1.00  0.00     0.101 N 
HETATM   17  C17 UNL     1      29.387  -1.556  53.398  1.00  0.00     0.297 C 
HETATM   18  H15 UNL     1      27.848  -2.550  52.525  1.00  0.00     0.317 HD
HETATM   19  C18 UNL     1      29.716  -0.117  53.552  1.00  0.00     0.209 C 
HETATM   20  O2  UNL     1      28.798   0.623  54.289  1.00  0.00    -0.318 OA
HETATM   21  C19 UNL     1      27.499   0.176  54.365  1.00  0.00     0.294 C 
HETATM   22  O3  UNL     1      26.678   0.590  55.247  1.00  0.00    -0.263 OA
ENDBRANCH  14  15
ENDBRANCH  12  14
ENDBRANCH  11  12
BRANCH   8  23
HETATM   23  N3  UNL     1      25.809   5.051  48.887  1.00  0.00    -0.340 N 
HETATM   24  H6  UNL     1      25.801   4.326  48.146  1.00  0.00     0.167 HD
BRANCH  23  25
HETATM   25  C6  UNL     1      26.970   5.845  48.691  1.00  0.00     0.035 A 
HETATM   26  C7  UNL     1      27.054   7.218  48.755  1.00  0.00     0.032 A 
HETATM   27  C8  UNL     1      28.207   7.933  48.557  1.00  0.00     0.046 A 
HETATM   28  C9  UNL     1      29.388   7.283  48.272  1.00  0.00     0.138 A 
HETATM   29  F1  UNL     1      30.461   8.073  48.094  1.00  0.00    -0.204 F 
HETATM   30  C10 UNL     1      29.341   5.909  48.199  1.00  0.00     0.074 A 
HETATM   31 CL1  UNL     1      30.898   5.159  47.829  1.00  0.00    -0.081 Cl
HETATM   32  C11 UNL     1      28.164   5.221  48.404  1.00  0.00     0.056 A 
ENDBRANCH  23  25
ENDBRANCH   8  23
TORSDOF 5
ENDMDL
MODEL 2
REMARK VINA RESULT:      -8.8      2.722      3.622
REMARK  5 active torsions:
REMARK  status: ('A' for Active; 'I' for Inactive)
REMARK    1  A    between atoms: C5_8  and  N3_9 
REMARK    2  A    between atoms: N3_9  and  C6_10 
REMARK    3  A    between atoms: C14_20  and  N4_21 
REMARK    4  A    between atoms: N4_21  and  C15_22 
REMARK    5  A    between atoms: C15_22  and  C16_23 
ROOT
HETATM    1  C1  UNL     1      21.514  -1.343  54.137  1.00  0.00     0.046 C 
HETATM    2  C2  UNL     1      22.167   0.035  54.132  1.00  0.00     0.175 A 
HETATM    3  O1  UNL     1      21.137   0.957  53.869  1.00  0.00    -0.322 OA
HETATM    4  C3  UNL     1      21.106   1.757  52.769  1.00  0.00     0.180 A 
HETATM    5  N1  UNL     1      20.039   2.587  52.661  1.00  0.00    -0.217 NA
HETATM    6  C4  UNL     1      19.904   3.420  51.619  1.00  0.00     0.238 A 
HETATM    7  N2  UNL     1      20.876   3.380  50.703  1.00  0.00    -0.223 NA
HETATM    8  C5  UNL     1      21.948   2.613  50.719  1.00  0.00     0.144 A 
HETATM    9  C12 UNL     1      22.068   1.768  51.794  1.00  0.00     0.065 A 
HETATM   10  C13 UNL     1      23.148   0.836  52.031  1.00  0.00     0.047 A 
HETATM   11  C14 UNL     1      23.230   0.020  53.098  1.00  0.00     0.035 A 
ENDROOT
BRANCH  11  12
HETATM   12  N4  UNL     1      24.375  -0.820  53.156  1.00  0.00    -0.388 N 
HETATM   13  H11 UNL     1      24.055  -1.824  52.999  1.00  0.00     0.159 HD
BRANCH  12  14
HETATM   14  C15 UNL     1      25.801  -0.694  53.371  1.00  0.00     0.165 C 
BRANCH  14  15
HETATM   15  C16 UNL     1      26.193   0.315  54.397  1.00  0.00     0.336 C 
HETATM   16  N5  UNL     1      27.302  -0.102  55.217  1.00  0.00     0.101 N 
HETATM   17  C17 UNL     1      28.600   0.133  54.694  1.00  0.00     0.297 C 
HETATM   18  H15 UNL     1      27.216  -1.111  55.504  1.00  0.00     0.317 HD
HETATM   19  C18 UNL     1      28.695   0.847  53.396  1.00  0.00     0.209 C 
HETATM   20  O2  UNL     1      27.693   1.782  53.161  1.00  0.00    -0.318 OA
HETATM   21  C19 UNL     1      26.488   1.634  53.807  1.00  0.00     0.294 C 
HETATM   22  O3  UNL     1      25.639   2.578  53.908  1.00  0.00    -0.263 OA
ENDBRANCH  14  15
ENDBRANCH  12  14
ENDBRANCH  11  12
BRANCH   8  23
HETATM   23  N3  UNL     1      22.961   2.587  49.735  1.00  0.00    -0.340 N 
HETATM   24  H6  UNL     1      22.974   1.873  48.982  1.00  0.00     0.167 HD
BRANCH  23  25
HETATM   25  C6  UNL     1      24.090   3.426  49.541  1.00  0.00     0.035 A 
HETATM   26  C7  UNL     1      25.405   3.118  49.811  1.00  0.00     0.032 A 
HETATM   27  C8  UNL     1      26.459   3.971  49.600  1.00  0.00     0.046 A 
HETATM   28  C9  UNL     1      26.241   5.231  49.088  1.00  0.00     0.138 A 
HETATM   29  F1  UNL     1      27.339   5.990  48.920  1.00  0.00    -0.204 F 
HETATM   30  C10 UNL     1      24.938   5.574  48.807  1.00  0.00     0.074 A 
HETATM   31 CL1  UNL     1      24.752   7.205  48.155  1.00  0.00    -0.081 Cl
HETATM   32  C11 UNL     1      23.903   4.692  49.030  1.00  0.00     0.056 A 
ENDBRANCH  23  25
ENDBRANCH   8  23
TORSDOF 5
ENDMDL
MODEL 3
REMARK VINA RESULT:      -8.7      1.753      2.222
REMARK  5 active torsions:
REMARK  status: ('A' for Active; 'I' for Inactive)
REMARK    1  A    between atoms: C5_8  and  N3_9 
REMARK    2  A    between atoms: N3_9  and  C6_10 
REMARK    3  A    between atoms: C14_20  and  N4_21 
REMARK    4  A    between atoms: N4_21  and  C15_22 
REMARK    5  A    between atoms: C15_22  and  C16_23 
ROOT
HETATM    1  C1  UNL     1      22.291  -0.952  53.103  1.00  0.00     0.046 C 
HETATM    2  C2  UNL     1      23.008   0.349  53.443  1.00  0.00     0.175 A 
HETATM    3  O1  UNL     1      22.091   1.383  53.182  1.00  0.00    -0.322 OA
HETATM    4  C3  UNL     1      22.295   2.352  52.247  1.00  0.00     0.180 A 
HETATM    5  N1  UNL     1      21.309   3.274  52.115  1.00  0.00    -0.217 NA
HETATM    6  C4  UNL     1      21.403   4.273  51.225  1.00  0.00     0.238 A 
HETATM    7  N2  UNL     1      22.515   4.302  50.486  1.00  0.00    -0.223 NA
HETATM    8  C5  UNL     1      23.525   3.456  50.541  1.00  0.00     0.144 A 
HETATM    9  C12 UNL     1      23.410   2.441  51.457  1.00  0.00     0.065 A 
HETATM   10  C13 UNL     1      24.381   1.396  51.700  1.00  0.00     0.047 A 
HETATM   11  C14 UNL     1      24.232   0.414  52.608  1.00  0.00     0.035 A 
ENDROOT
BRANCH  11  12
HETATM   12  N4  UNL     1      25.302  -0.517  52.704  1.00  0.00    -0.388 N 
HETATM   13  H11 UNL     1      24.906  -1.438  53.061  1.00  0.00     0.159 HD
BRANCH  12  14
HETATM   14  C15 UNL     1      26.730  -0.554  52.466  1.00  0.00     0.165 C 
BRANCH  14  15
HETATM   15  C16 UNL     1      27.571  -0.469  53.695  1.00  0.00     0.336 C 
HETATM   16  N5  UNL     1      28.871   0.107  53.461  1.00  0.00     0.101 N 
HETATM   17  C17 UNL     1      28.949   1.524  53.479  1.00  0.00     0.297 C 
HETATM   18  H15 UNL     1      29.304  -0.257  52.574  1.00  0.00     0.317 HD
HETATM   19  C18 UNL     1      27.711   2.273  53.808  1.00  0.00     0.209 C 
HETATM   20  O2  UNL     1      26.850   1.632  54.693  1.00  0.00    -0.318 OA
HETATM   21  C19 UNL     1      26.900   0.261  54.787  1.00  0.00     0.294 C 
HETATM   22  O3  UNL     1      26.398  -0.382  55.765  1.00  0.00    -0.263 OA
ENDBRANCH  14  15
ENDBRANCH  12  14
ENDBRANCH  11  12
BRANCH   8  23
HETATM   23  N3  UNL     1      24.691   3.507  49.744  1.00  0.00    -0.340 N 
HETATM   24  H6  UNL     1      25.146   2.645  49.387  1.00  0.00     0.167 HD
BRANCH  23  25
HETATM   25  C6  UNL     1      25.453   4.611  49.282  1.00  0.00     0.035 A 
HETATM   26  C7  UNL     1      25.003   5.895  49.068  1.00  0.00     0.032 A 
HETATM   27  C8  UNL     1      25.789   6.927  48.620  1.00  0.00     0.046 A 
HETATM   28  C9  UNL     1      27.123   6.717  48.350  1.00  0.00     0.138 A 
HETATM   29  F1  UNL     1      27.806   7.791  47.915  1.00  0.00    -0.204 F 
HETATM   30  C10 UNL     1      27.608   5.444  48.551  1.00  0.00     0.074 A 
HETATM   31 CL1  UNL     1      29.326   5.266  48.181  1.00  0.00    -0.081 Cl
HETATM   32  C11 UNL     1      26.790   4.431  49.003  1.00  0.00     0.056 A 
ENDBRANCH  23  25
ENDBRANCH   8  23
TORSDOF 5
ENDMDL
MODEL 4
REMARK VINA RESULT:      -8.6      1.904      2.449
REMARK  5 active torsions:
REMARK  status: ('A' for Active; 'I' for Inactive)
REMARK    1  A    between atoms: C5_8  and  N3_9 
REMARK    2  A    between atoms: N3_9  and  C6_10 
REMARK    3  A    between atoms: C14_20  and  N4_21 
REMARK    4  A    between atoms: N4_21  and  C15_22 
REMARK    5  A    between atoms: C15_22  and  C16_23 
ROOT
HETATM    1  C1  UNL     1      22.064   0.260  51.599  1.00  0.00     0.046 C 
HETATM    2  C2  UNL     1      22.123   1.420  52.585  1.00  0.00     0.175 A 
HETATM    3  O1  UNL     1      21.227   2.392  52.103  1.00  0.00    -0.322 OA
HETATM    4  C3  UNL     1      21.607   3.640  51.715  1.00  0.00     0.180 A 
HETATM    5  N1  UNL     1      20.620   4.456  51.268  1.00  0.00    -0.217 NA
HETATM    6  C4  UNL     1      20.879   5.706  50.860  1.00  0.00     0.238 A 
HETATM    7  N2  UNL     1      22.156   6.093  50.921  1.00  0.00    -0.223 NA
HETATM    8  C5  UNL     1      23.182   5.378  51.338  1.00  0.00     0.144 A 
HETATM    9  C12 UNL     1      22.897   4.101  51.751  1.00  0.00     0.065 A 
HETATM   10  C13 UNL     1      23.848   3.131  52.247  1.00  0.00     0.047 A 
HETATM   11  C14 UNL     1      23.530   1.885  52.642  1.00  0.00     0.035 A 
ENDROOT
BRANCH  11  12
HETATM   12  N4  UNL     1      24.607   1.082  53.106  1.00  0.00    -0.388 N 
HETATM   13  H11 UNL     1      24.623   1.135  54.170  1.00  0.00     0.159 HD
BRANCH  12  14
HETATM   14  C15 UNL     1      25.655   0.250  52.553  1.00  0.00     0.165 C 
BRANCH  14  15
HETATM   15  C16 UNL     1      26.164  -0.809  53.472  1.00  0.00     0.336 C 
HETATM   16  N5  UNL     1      27.485  -1.276  53.134  1.00  0.00     0.101 N 
HETATM   17  C17 UNL     1      28.572  -0.514  53.635  1.00  0.00     0.297 C 
HETATM   18  H15 UNL     1      27.597  -1.407  52.096  1.00  0.00     0.317 HD
HETATM   19  C18 UNL     1      28.253   0.638  54.515  1.00  0.00     0.209 C 
HETATM   20  O2  UNL     1      27.118   0.483  55.302  1.00  0.00    -0.318 OA
HETATM   21  C19 UNL     1      26.139  -0.388  54.885  1.00  0.00     0.294 C 
HETATM   22  O3  UNL     1      25.233  -0.832  55.663  1.00  0.00    -0.263 OA
ENDBRANCH  14  15
ENDBRANCH  12  14
ENDBRANCH  11  12
BRANCH   8  23
HETATM   23  N3  UNL     1      24.526   5.810  51.389  1.00  0.00    -0.340 N 
HETATM   24  H6  UNL     1      24.977   6.089  52.281  1.00  0.00     0.167 HD
BRANCH  23  25
HETATM   25  C6  UNL     1      25.494   5.960  50.360  1.00  0.00     0.035 A 
HETATM   26  C7  UNL     1      26.108   4.953  49.650  1.00  0.00     0.032 A 
HETATM   27  C8  UNL     1      27.037   5.159  48.662  1.00  0.00     0.046 A 
HETATM   28  C9  UNL     1      27.418   6.438  48.321  1.00  0.00     0.138 A 
HETATM   29  F1  UNL     1      28.335   6.532  47.342  1.00  0.00    -0.204 F 
HETATM   30  C10 UNL     1      26.824   7.470  49.012  1.00  0.00     0.074 A 
HETATM   31 CL1  UNL     1      27.371   9.074  48.510  1.00  0.00    -0.081 Cl
HETATM   32  C11 UNL     1      25.893   7.228  49.999  1.00  0.00     0.056 A 
ENDBRANCH  23  25
ENDBRANCH   8  23
TORSDOF 5
ENDMDL
MODEL 5
REMARK VINA RESULT:      -8.4      3.598      4.827
REMARK  5 active torsions:
REMARK  status: ('A' for Active; 'I' for Inactive)
REMARK    1  A    between atoms: C5_8  and  N3_9 
REMARK    2  A    between atoms: N3_9  and  C6_10 
REMARK    3  A    between atoms: C14_20  and  N4_21 
REMARK    4  A    between atoms: N4_21  and  C15_22 
REMARK    5  A    between atoms: C15_22  and  C16_23 
ROOT
HETATM    1  C1  UNL     1      22.028  -1.740  54.604  1.00  0.00     0.046 C 
HETATM    2  C2  UNL     1      21.813  -0.271  54.258  1.00  0.00     0.175 A 
HETATM    3  O1  UNL     1      20.519  -0.181  53.712  1.00  0.00    -0.322 OA
HETATM    4  C3  UNL     1      20.267   0.222  52.437  1.00  0.00     0.180 A 
HETATM    5  N1  UNL     1      18.963   0.249  52.063  1.00  0.00    -0.217 NA
HETATM    6  C4  UNL     1      18.598   0.629  50.831  1.00  0.00     0.238 A 
HETATM    7  N2  UNL     1      19.587   0.977  50.004  1.00  0.00    -0.223 NA
HETATM    8  C5  UNL     1      20.878   0.986  50.272  1.00  0.00     0.144 A 
HETATM    9  C12 UNL     1      21.232   0.593  51.538  1.00  0.00     0.065 A 
HETATM   10  C13 UNL     1      22.577   0.519  52.065  1.00  0.00     0.047 A 
HETATM   11  C14 UNL     1      22.885   0.125  53.314  1.00  0.00     0.035 A 
ENDROOT
BRANCH  11  12
HETATM   12  N4  UNL     1      24.267   0.127  53.647  1.00  0.00    -0.388 N 
HETATM   13  H11 UNL     1      24.501  -0.815  54.085  1.00  0.00     0.159 HD
BRANCH  12  14
HETATM   14  C15 UNL     1      25.400   1.024  53.565  1.00  0.00     0.165 C 
BRANCH  14  15
HETATM   15  C16 UNL     1      26.522   0.540  52.708  1.00  0.00     0.336 C 
HETATM   16  N5  UNL     1      27.649   1.437  52.678  1.00  0.00     0.101 N 
HETATM   17  C17 UNL     1      28.588   1.309  53.735  1.00  0.00     0.297 C 
HETATM   18  H15 UNL     1      27.345   2.440  52.597  1.00  0.00     0.317 HD
HETATM   19  C18 UNL     1      28.363   0.225  54.723  1.00  0.00     0.209 C 
HETATM   20  O2  UNL     1      27.757  -0.920  54.217  1.00  0.00    -0.318 OA
HETATM   21  C19 UNL     1      26.978  -0.810  53.088  1.00  0.00     0.294 C 
HETATM   22  O3  UNL     1      26.648  -1.815  52.378  1.00  0.00    -0.263 OA
ENDBRANCH  14  15
ENDBRANCH  12  14
ENDBRANCH  11  12
BRANCH   8  23
HETATM   23  N3  UNL     1      21.907   1.355  49.377  1.00  0.00    -0.340 N 
HETATM   24  H6  UNL     1      22.431   0.649  48.826  1.00  0.00     0.167 HD
BRANCH  23  25
HETATM   25  C6  UNL     1      22.430   2.631  49.038  1.00  0.00     0.035 A 
HETATM   26  C7  UNL     1      21.793   3.624  48.328  1.00  0.00     0.032 A 
HETATM   27  C8  UNL     1      22.349   4.842  48.031  1.00  0.00     0.046 A 
HETATM   28  C9  UNL     1      23.629   5.142  48.445  1.00  0.00     0.138 A 
HETATM   29  F1  UNL     1      24.083   6.360  48.103  1.00  0.00    -0.204 F 
HETATM   30  C10 UNL     1      24.297   4.171  49.157  1.00  0.00     0.074 A 
HETATM   31 CL1  UNL     1      25.928   4.639  49.648  1.00  0.00    -0.081 Cl
HETATM   32  C11 UNL     1      23.707   2.957  49.439  1.00  0.00     0.056 A 
ENDBRANCH  23  25
ENDBRANCH   8  23
TORSDOF 5
ENDMDL
MODEL 6
REMARK VINA RESULT:      -8.4      3.725      6.949
REMARK  5 active torsions:
REMARK  status: ('A' for Active; 'I' for Inactive)
REMARK    1  A    between atoms: C5_8  and  N3_9 
REMARK    2  A    between atoms: N3_9  and  C6_10 
REMARK    3  A    between atoms: C14_20  and  N4_21 
REMARK    4  A    between atoms: N4_21  and  C15_22 
REMARK    5  A    between atoms: C15_22  and  C16_23 
ROOT
HETATM    1  C1  UNL     1      20.552   3.772  51.590  1.00  0.00     0.046 C 
HETATM    2  C2  UNL     1      20.698   2.292  51.256  1.00  0.00     0.175 A 
HETATM    3  O1  UNL     1      20.401   1.591  52.439  1.00  0.00    -0.322 OA
HETATM    4  C3  UNL     1      21.296   0.797  53.089  1.00  0.00     0.180 A 
HETATM    5  N1  UNL     1      20.852   0.195  54.220  1.00  0.00    -0.217 NA
HETATM    6  C4  UNL     1      21.648  -0.608  54.941  1.00  0.00     0.238 A 
HETATM    7  N2  UNL     1      22.890  -0.776  54.480  1.00  0.00    -0.223 NA
HETATM    8  C5  UNL     1      23.412  -0.238  53.396  1.00  0.00     0.144 A 
HETATM    9  C12 UNL     1      22.582   0.581  52.671  1.00  0.00     0.065 A 
HETATM   10  C13 UNL     1      22.925   1.282  51.454  1.00  0.00     0.047 A 
HETATM   11  C14 UNL     1      22.084   2.080  50.771  1.00  0.00     0.035 A 
ENDROOT
BRANCH  11  12
HETATM   12  N4  UNL     1      22.605   2.675  49.591  1.00  0.00    -0.388 N 
HETATM   13  H11 UNL     1      23.189   1.943  49.083  1.00  0.00     0.159 HD
BRANCH  12  14
HETATM   14  C15 UNL     1      22.571   3.957  48.918  1.00  0.00     0.165 C 
BRANCH  14  15
HETATM   15  C16 UNL     1      23.869   4.692  48.905  1.00  0.00     0.336 C 
HETATM   16  N5  UNL     1      23.730   6.107  49.137  1.00  0.00     0.101 N 
HETATM   17  C17 UNL     1      23.669   6.522  50.493  1.00  0.00     0.297 C 
HETATM   18  H15 UNL     1      22.913   6.509  48.609  1.00  0.00     0.317 HD
HETATM   19  C18 UNL     1      23.828   5.479  51.536  1.00  0.00     0.209 C 
HETATM   20  O2  UNL     1      24.662   4.421  51.191  1.00  0.00    -0.318 OA
HETATM   21  C19 UNL     1      24.844   4.131  49.859  1.00  0.00     0.294 C 
HETATM   22  O3  UNL     1      25.805   3.411  49.435  1.00  0.00    -0.263 OA
ENDBRANCH  14  15
ENDBRANCH  12  14
ENDBRANCH  11  12
BRANCH   8  23
HETATM   23  N3  UNL     1      24.732  -0.429  52.931  1.00  0.00    -0.340 N 
HETATM   24  H6  UNL     1      24.972  -1.187  52.264  1.00  0.00     0.167 HD
BRANCH  23  25
HETATM   25  C6  UNL     1      25.930   0.276  53.218  1.00  0.00     0.035 A 
HETATM   26  C7  UNL     1      26.057   1.626  53.460  1.00  0.00     0.032 A 
HETATM   27  C8  UNL     1      27.245   2.255  53.736  1.00  0.00     0.046 A 
HETATM   28  C9  UNL     1      28.418   1.534  53.785  1.00  0.00     0.138 A 
HETATM   29  F1  UNL     1      29.527   2.243  54.062  1.00  0.00    -0.204 F 
HETATM   30  C10 UNL     1      28.329   0.181  53.547  1.00  0.00     0.074 A 
HETATM   31 CL1  UNL     1      29.879  -0.663  53.630  1.00  0.00    -0.081 Cl
HETATM   32  C11 UNL     1      27.118  -0.419  53.274  1.00  0.00     0.056 A 
ENDBRANCH  23  25
ENDBRANCH   8  23
TORSDOF 5
ENDMDL
MODEL 7
REMARK VINA RESULT:      -8.3      2.153      2.875
REMARK  5 active torsions:
REMARK  status: ('A' for Active; 'I' for Inactive)
REMARK    1  A    between atoms: C5_8  and  N3_9 
REMARK    2  A    between atoms: N3_9  and  C6_10 
REMARK    3  A    between atoms: C14_20  and  N4_21 
REMARK    4  A    between atoms: N4_21  and  C15_22 
REMARK    5  A    between atoms: C15_22  and  C16_23 
ROOT
HETATM    1  C1  UNL     1      21.739   1.815  51.074  1.00  0.00     0.046 C 
HETATM    2  C2  UNL     1      21.898   2.946  52.084  1.00  0.00     0.175 A 
HETATM    3  O1  UNL     1      21.144   4.025  51.586  1.00  0.00    -0.322 OA
HETATM    4  C3  UNL     1      21.686   5.223  51.236  1.00  0.00     0.180 A 
HETATM    5  N1  UNL     1      20.822   6.158  50.768  1.00  0.00    -0.217 NA
HETATM    6  C4  UNL     1      21.245   7.374  50.393  1.00  0.00     0.238 A 
HETATM    7  N2  UNL     1      22.555   7.604  50.508  1.00  0.00    -0.223 NA
HETATM    8  C5  UNL     1      23.471   6.765  50.951  1.00  0.00     0.144 A 
HETATM    9  C12 UNL     1      23.019   5.526  51.329  1.00  0.00     0.065 A 
HETATM   10  C13 UNL     1      23.827   4.442  51.842  1.00  0.00     0.047 A 
HETATM   11  C14 UNL     1      23.347   3.237  52.201  1.00  0.00     0.035 A 
ENDROOT
BRANCH  11  12
HETATM   12  N4  UNL     1      24.301   2.304  52.691  1.00  0.00    -0.388 N 
HETATM   13  H11 UNL     1      24.321   1.474  52.025  1.00  0.00     0.159 HD
BRANCH  12  14
HETATM   14  C15 UNL     1      25.213   2.172  53.807  1.00  0.00     0.165 C 
BRANCH  14  15
HETATM   15  C16 UNL     1      26.659   2.179  53.438  1.00  0.00     0.336 C 
HETATM   16  N5  UNL     1      27.459   1.285  54.237  1.00  0.00     0.101 N 
HETATM   17  C17 UNL     1      27.502  -0.071  53.818  1.00  0.00     0.297 C 
HETATM   18  H15 UNL     1      27.194   1.330  55.254  1.00  0.00     0.317 HD
HETATM   19  C18 UNL     1      26.787  -0.423  52.566  1.00  0.00     0.209 C 
HETATM   20  O2  UNL     1      26.751   0.580  51.603  1.00  0.00    -0.318 OA
HETATM   21  C19 UNL     1      26.877   1.889  52.009  1.00  0.00     0.294 C 
HETATM   22  O3  UNL     1      27.168   2.834  51.207  1.00  0.00    -0.263 OA
ENDBRANCH  14  15
ENDBRANCH  12  14
ENDBRANCH  11  12
BRANCH   8  23
HETATM   23  N3  UNL     1      24.854   7.032  51.060  1.00  0.00    -0.340 N 
HETATM   24  H6  UNL     1      25.283   7.337  51.954  1.00  0.00     0.167 HD
BRANCH  23  25
HETATM   25  C6  UNL     1      25.893   6.963  50.094  1.00  0.00     0.035 A 
HETATM   26  C7  UNL     1      26.245   5.869  49.335  1.00  0.00     0.032 A 
HETATM   27  C8  UNL     1      27.260   5.861  48.413  1.00  0.00     0.046 A 
HETATM   28  C9  UNL     1      28.009   6.997  48.194  1.00  0.00     0.138 A 
HETATM   29  F1  UNL     1      28.981   6.885  47.271  1.00  0.00    -0.204 F 
HETATM   30  C10 UNL     1      27.686   8.110  48.937  1.00  0.00     0.074 A 
HETATM   31 CL1  UNL     1      28.696   9.517  48.592  1.00  0.00    -0.081 Cl
HETATM   32  C11 UNL     1      26.658   8.083  49.855  1.00  0.00     0.056 A 
ENDBRANCH  23  25
ENDBRANCH   8  23
TORSDOF 5
ENDMDL
MODEL 8
REMARK VINA RESULT:      -8.2      4.447      7.641
REMARK  5 active torsions:
REMARK  status: ('A' for Active; 'I' for Inactive)
REMARK    1  A    between atoms: C5_8  and  N3_9 
REMARK    2  A    between atoms: N3_9  and  C6_10 
REMARK    3  A    between atoms: C14_20  and  N4_21 
REMARK    4  A    between atoms: N4_21  and  C15_22 
REMARK    5  A    between atoms: C15_22  and  C16_23 
ROOT
HETATM    1  C1  UNL     1      18.995   1.418  52.040  1.00  0.00     0.046 C 
HETATM    2  C2  UNL     1      19.850   0.191  51.741  1.00  0.00     0.175 A 
HETATM    3  O1  UNL     1      20.116  -0.415  52.983  1.00  0.00    -0.322 OA
HETATM    4  C3  UNL     1      21.367  -0.556  53.498  1.00  0.00     0.180 A 
HETATM    5  N1  UNL     1      21.452  -1.158  54.710  1.00  0.00    -0.217 NA
HETATM    6  C4  UNL     1      22.634  -1.350  55.314  1.00  0.00     0.238 A 
HETATM    7  N2  UNL     1      23.710  -0.915  54.653  1.00  0.00    -0.223 NA
HETATM    8  C5  UNL     1      23.731  -0.321  53.476  1.00  0.00     0.144 A 
HETATM    9  C12 UNL     1      22.512  -0.134  52.875  1.00  0.00     0.065 A 
HETATM   10  C13 UNL     1      22.280   0.491  51.592  1.00  0.00     0.047 A 
HETATM   11  C14 UNL     1      21.067   0.659  51.034  1.00  0.00     0.035 A 
ENDROOT
BRANCH  11  12
HETATM   12  N4  UNL     1      21.045   1.290  49.761  1.00  0.00    -0.388 N 
HETATM   13  H11 UNL     1      20.104   1.085  49.308  1.00  0.00     0.159 HD
BRANCH  12  14
HETATM   14  C15 UNL     1      21.920   2.097  48.937  1.00  0.00     0.165 C 
BRANCH  14  15
HETATM   15  C16 UNL     1      21.678   3.567  49.019  1.00  0.00     0.336 C 
HETATM   16  N5  UNL     1      21.369   4.024  50.350  1.00  0.00     0.101 N 
HETATM   17  C17 UNL     1      22.473   4.301  51.197  1.00  0.00     0.297 C 
HETATM   18  H15 UNL     1      20.705   3.372  50.840  1.00  0.00     0.317 HD
HETATM   19  C18 UNL     1      23.832   4.167  50.615  1.00  0.00     0.209 C 
HETATM   20  O2  UNL     1      23.927   4.468  49.261  1.00  0.00    -0.318 OA
HETATM   21  C19 UNL     1      22.802   4.354  48.478  1.00  0.00     0.294 C 
HETATM   22  O3  UNL     1      22.703   4.894  47.329  1.00  0.00    -0.263 OA
ENDBRANCH  14  15
ENDBRANCH  12  14
ENDBRANCH  11  12
BRANCH   8  23
HETATM   23  N3  UNL     1      24.885   0.134  52.800  1.00  0.00    -0.340 N 
HETATM   24  H6  UNL     1      24.824   0.765  51.978  1.00  0.00     0.167 HD
BRANCH  23  25
HETATM   25  C6  UNL     1      26.262  -0.121  53.034  1.00  0.00     0.035 A 
HETATM   26  C7  UNL     1      26.938  -1.296  52.792  1.00  0.00     0.032 A 
HETATM   27  C8  UNL     1      28.274  -1.486  53.037  1.00  0.00     0.046 A 
HETATM   28  C9  UNL     1      29.036  -0.465  53.562  1.00  0.00     0.138 A 
HETATM   29  F1  UNL     1      30.334  -0.751  53.767  1.00  0.00    -0.204 F 
HETATM   30  C10 UNL     1      28.392   0.725  53.819  1.00  0.00     0.074 A 
HETATM   31 CL1  UNL     1      29.444   1.976  54.490  1.00  0.00    -0.081 Cl
HETATM   32  C11 UNL     1      27.048   0.881  53.559  1.00  0.00     0.056 A 
ENDBRANCH  23  25
ENDBRANCH   8  23
TORSDOF 5
ENDMDL
MODEL 9
REMARK VINA RESULT:      -8.2      4.581      8.892
REMARK  5 active torsions:
REMARK  status: ('A' for Active; 'I' for Inactive)
REMARK    1  A    between atoms: C5_8  and  N3_9 
REMARK    2  A    between atoms: N3_9  and  C6_10 
REMARK    3  A    between atoms: C14_20  and  N4_21 
REMARK    4  A    between atoms: N4_21  and  C15_22 
REMARK    5  A    between atoms: C15_22  and  C16_23 
ROOT
HETATM    1  C1  UNL     1      26.437   3.279  49.370  1.00  0.00     0.046 C 
HETATM    2  C2  UNL     1      26.532   3.210  50.890  1.00  0.00     0.175 A 
HETATM    3  O1  UNL     1      26.954   1.904  51.198  1.00  0.00    -0.322 OA
HETATM    4  C3  UNL     1      26.209   1.023  51.920  1.00  0.00     0.180 A 
HETATM    5  N1  UNL     1      26.758  -0.200  52.125  1.00  0.00    -0.217 NA
HETATM    6  C4  UNL     1      26.113  -1.147  52.823  1.00  0.00     0.238 A 
HETATM    7  N2  UNL     1      24.910  -0.813  53.297  1.00  0.00    -0.223 NA
HETATM    8  C5  UNL     1      24.295   0.344  53.153  1.00  0.00     0.144 A 
HETATM    9  C12 UNL     1      24.970   1.300  52.436  1.00  0.00     0.065 A 
HETATM   10  C13 UNL     1      24.503   2.637  52.144  1.00  0.00     0.047 A 
HETATM   11  C14 UNL     1      25.195   3.547  51.434  1.00  0.00     0.035 A 
ENDROOT
BRANCH  11  12
HETATM   12  N4  UNL     1      24.569   4.812  51.261  1.00  0.00    -0.388 N 
HETATM   13  H11 UNL     1      25.117   5.530  51.824  1.00  0.00     0.159 HD
BRANCH  12  14
HETATM   14  C15 UNL     1      23.430   5.370  50.563  1.00  0.00     0.165 C 
BRANCH  14  15
HETATM   15  C16 UNL     1      22.295   5.776  51.441  1.00  0.00     0.336 C 
HETATM   16  N5  UNL     1      21.893   7.148  51.262  1.00  0.00     0.101 N 
HETATM   17  C17 UNL     1      20.983   7.408  50.204  1.00  0.00     0.297 C 
HETATM   18  H15 UNL     1      22.723   7.788  51.176  1.00  0.00     0.317 HD
HETATM   19  C18 UNL     1      20.477   6.243  49.435  1.00  0.00     0.209 C 
HETATM   20  O2  UNL     1      20.347   5.066  50.164  1.00  0.00    -0.318 OA
HETATM   21  C19 UNL     1      21.121   4.896  51.288  1.00  0.00     0.294 C 
HETATM   22  O3  UNL     1      20.861   4.024  52.179  1.00  0.00    -0.263 OA
ENDBRANCH  14  15
ENDBRANCH  12  14
ENDBRANCH  11  12
BRANCH   8  23
HETATM   23  N3  UNL     1      23.018   0.671  53.663  1.00  0.00    -0.340 N 
HETATM   24  H6  UNL     1      22.903   1.264  54.506  1.00  0.00     0.167 HD
BRANCH  23  25
HETATM   25  C6  UNL     1      21.719   0.318  53.212  1.00  0.00     0.035 A 
HETATM   26  C7  UNL     1      20.780  -0.423  53.895  1.00  0.00     0.032 A 
HETATM   27  C8  UNL     1      19.536  -0.733  53.409  1.00  0.00     0.046 A 
HETATM   28  C9  UNL     1      19.150  -0.299  52.160  1.00  0.00     0.138 A 
HETATM   29  F1  UNL     1      17.911  -0.656  51.775  1.00  0.00    -0.204 F 
HETATM   30  C10 UNL     1      20.064   0.445  51.448  1.00  0.00     0.074 A 
HETATM   31 CL1  UNL     1      19.486   0.958  49.859  1.00  0.00    -0.081 Cl
HETATM   32  C11 UNL     1      21.306   0.738  51.967  1.00  0.00     0.056 A 
ENDBRANCH  23  25
ENDBRANCH   8  23
TORSDOF 5
ENDMDL
