MODEL 1
REMARK VINA RESULT:      -6.5      0.000      0.000
REMARK  10 active torsions:
REMARK  status: ('A' for Active; 'I' for Inactive)
REMARK    1  A    between atoms: C7_7  and  O1_8 
REMARK    2  A    between atoms: O1_8  and  C8_9 
REMARK    3  A    between atoms: C8_9  and  C9_10 
REMARK    4  A    between atoms: C8_9  and  C17_20 
REMARK    5  A    between atoms: C10_11  and  C11_12 
REMARK    6  A    between atoms: C11_12  and  C12_13 
REMARK    7  A    between atoms: C12_13  and  C13_15 
REMARK    8  A    between atoms: C13_15  and  C14_16 
REMARK    9  A    between atoms: C14_16  and  N1_17 
REMARK   10  A    between atoms: C17_20  and  O3_21 
ROOT
HETATM    1  C8  UNL     1      24.798   1.960  52.017  1.00  0.00     0.175 C 
ENDROOT
BRANCH   1   2
HETATM    2  O1  UNL     1      26.061   1.444  51.689  1.00  0.00    -0.339 OA
BRANCH   2   3
HETATM    3  C7  UNL     1      27.139   1.296  52.529  1.00  0.00     0.075 A 
HETATM    4  C2  UNL     1      27.513   0.023  52.887  1.00  0.00    -0.029 A 
HETATM    5  C1  UNL     1      26.761  -1.156  52.379  1.00  0.00     0.051 C 
HETATM    6  C3  UNL     1      28.593  -0.225  53.735  1.00  0.00     0.009 A 
HETATM    7  C4  UNL     1      29.342   0.831  54.254  1.00  0.00     0.001 A 
HETATM    8  C5  UNL     1      28.981   2.101  53.905  1.00  0.00     0.003 A 
HETATM    9  C6  UNL     1      27.910   2.298  53.068  1.00  0.00     0.037 A 
ENDBRANCH   2   3
ENDBRANCH   1   2
BRANCH   1  10
HETATM   10  C9  UNL     1      23.740   0.886  52.011  1.00  0.00     0.004 C 
HETATM   11  C10 UNL     1      23.508   0.046  53.007  1.00  0.00    -0.021 C 
BRANCH  11  12
HETATM   12  C11 UNL     1      22.501  -1.037  53.101  1.00  0.00     0.105 C 
BRANCH  12  13
HETATM   13  C12 UNL     1      21.641  -0.974  54.295  1.00  0.00     0.131 C 
HETATM   14  O2  UNL     1      21.752  -1.668  55.280  1.00  0.00    -0.298 OA
BRANCH  13  15
HETATM   15  C13 UNL     1      20.548   0.032  54.279  1.00  0.00     0.098 C 
BRANCH  15  16
HETATM   16  C14 UNL     1      19.663  -0.060  53.058  1.00  0.00     0.123 C 
BRANCH  16  17
HETATM   17  N1  UNL     1      19.643   1.097  52.235  1.00  0.00    -0.420 N 
HETATM   18  C15 UNL     1      18.482   1.324  51.452  1.00  0.00     0.142 C 
HETATM   19  C16 UNL     1      20.358   2.231  52.702  1.00  0.00     0.142 C 
ENDBRANCH  16  17
ENDBRANCH  15  16
ENDBRANCH  13  15
ENDBRANCH  12  13
ENDBRANCH  11  12
ENDBRANCH   1  10
BRANCH   1  20
HETATM   20  C17 UNL     1      24.867   2.592  53.405  1.00  0.00     0.200 C 
BRANCH  20  21
HETATM   21  O3  UNL     1      24.413   3.900  53.361  1.00  0.00    -0.398 OA
HETATM   22  H25 UNL     1      24.439   4.246  52.432  1.00  0.00     0.209 HD
ENDBRANCH  20  21
ENDBRANCH   1  20
TORSDOF 10
ENDMDL
MODEL 2
REMARK VINA RESULT:      -6.5      3.719      6.817
REMARK  10 active torsions:
REMARK  status: ('A' for Active; 'I' for Inactive)
REMARK    1  A    between atoms: C7_7  and  O1_8 
REMARK    2  A    between atoms: O1_8  and  C8_9 
REMARK    3  A    between atoms: C8_9  and  C9_10 
REMARK    4  A    between atoms: C8_9  and  C17_20 
REMARK    5  A    between atoms: C10_11  and  C11_12 
REMARK    6  A    between atoms: C11_12  and  C12_13 
REMARK    7  A    between atoms: C12_13  and  C13_15 
REMARK    8  A    between atoms: C13_15  and  C14_16 
REMARK    9  A    between atoms: C14_16  and  N1_17 
REMARK   10  A    between atoms: C17_20  and  O3_21 
ROOT
HETATM    1  C8  UNL     1      26.951   1.511  52.682  1.00  0.00     0.175 C 
ENDROOT
BRANCH   1   2
HETATM    2  O1  UNL     1      25.794   1.733  53.446  1.00  0.00    -0.339 OA
BRANCH   2   3
HETATM    3  C7  UNL     1      24.565   1.142  53.278  1.00  0.00     0.075 A 
HETATM    4  C2  UNL     1      23.505   1.942  52.920  1.00  0.00    -0.029 A 
HETATM    5  C1  UNL     1      23.692   3.404  52.729  1.00  0.00     0.051 C 
HETATM    6  C3  UNL     1      22.220   1.431  52.728  1.00  0.00     0.009 A 
HETATM    7  C4  UNL     1      21.967   0.070  52.894  1.00  0.00     0.001 A 
HETATM    8  C5  UNL     1      23.012  -0.735  53.248  1.00  0.00     0.003 A 
HETATM    9  C6  UNL     1      24.260  -0.189  53.428  1.00  0.00     0.037 A 
ENDBRANCH   2   3
ENDBRANCH   1   2
BRANCH   1  10
HETATM   10  C9  UNL     1      26.729   1.841  51.228  1.00  0.00     0.004 C 
HETATM   11  C10 UNL     1      26.650   3.065  50.733  1.00  0.00    -0.021 C 
BRANCH  11  12
HETATM   12  C11 UNL     1      26.437   3.495  49.331  1.00  0.00     0.105 C 
BRANCH  12  13
HETATM   13  C12 UNL     1      27.267   4.632  48.903  1.00  0.00     0.131 C 
HETATM   14  O2  UNL     1      28.473   4.622  48.792  1.00  0.00    -0.298 OA
BRANCH  13  15
HETATM   15  C13 UNL     1      26.555   5.897  48.582  1.00  0.00     0.098 C 
BRANCH  15  16
HETATM   16  C14 UNL     1      25.252   6.059  49.327  1.00  0.00     0.123 C 
BRANCH  16  17
HETATM   17  N1  UNL     1      25.271   7.010  50.382  1.00  0.00    -0.420 N 
HETATM   18  C15 UNL     1      26.104   8.148  50.223  1.00  0.00     0.142 C 
HETATM   19  C16 UNL     1      24.075   7.165  51.130  1.00  0.00     0.142 C 
ENDBRANCH  16  17
ENDBRANCH  15  16
ENDBRANCH  13  15
ENDBRANCH  12  13
ENDBRANCH  11  12
ENDBRANCH   1  10
BRANCH   1  20
HETATM   20  C17 UNL     1      28.079   2.381  53.230  1.00  0.00     0.200 C 
BRANCH  20  21
HETATM   21  O3  UNL     1      29.291   1.717  53.129  1.00  0.00    -0.398 OA
HETATM   22  H25 UNL     1      29.880   2.169  52.472  1.00  0.00     0.209 HD
ENDBRANCH  20  21
ENDBRANCH   1  20
TORSDOF 10
ENDMDL
MODEL 3
REMARK VINA RESULT:      -6.5      1.426      2.454
REMARK  10 active torsions:
REMARK  status: ('A' for Active; 'I' for Inactive)
REMARK    1  A    between atoms: C7_7  and  O1_8 
REMARK    2  A    between atoms: O1_8  and  C8_9 
REMARK    3  A    between atoms: C8_9  and  C9_10 
REMARK    4  A    between atoms: C8_9  and  C17_20 
REMARK    5  A    between atoms: C10_11  and  C11_12 
REMARK    6  A    between atoms: C11_12  and  C12_13 
REMARK    7  A    between atoms: C12_13  and  C13_15 
REMARK    8  A    between atoms: C13_15  and  C14_16 
REMARK    9  A    between atoms: C14_16  and  N1_17 
REMARK   10  A    between atoms: C17_20  and  O3_21 
ROOT
HETATM    1  C8  UNL     1      25.567   1.409  51.749  1.00  0.00     0.175 C 
ENDROOT
BRANCH   1   2
HETATM    2  O1  UNL     1      26.477   1.062  52.759  1.00  0.00    -0.339 OA
BRANCH   2   3
HETATM    3  C7  UNL     1      27.200  -0.102  52.860  1.00  0.00     0.075 A 
HETATM    4  C2  UNL     1      28.477  -0.032  53.365  1.00  0.00    -0.029 A 
HETATM    5  C1  UNL     1      29.053   1.273  53.784  1.00  0.00     0.051 C 
HETATM    6  C3  UNL     1      29.284  -1.162  53.504  1.00  0.00     0.009 A 
HETATM    7  C4  UNL     1      28.814  -2.419  53.128  1.00  0.00     0.001 A 
HETATM    8  C5  UNL     1      27.547  -2.502  52.624  1.00  0.00     0.003 A 
HETATM    9  C6  UNL     1      26.787  -1.364  52.505  1.00  0.00     0.037 A 
ENDBRANCH   2   3
ENDBRANCH   1   2
BRANCH   1  10
HETATM   10  C9  UNL     1      24.152   1.450  52.266  1.00  0.00     0.004 C 
HETATM   11  C10 UNL     1      23.608   0.541  53.059  1.00  0.00    -0.021 C 
BRANCH  11  12
HETATM   12  C11 UNL     1      22.237   0.488  53.621  1.00  0.00     0.105 C 
BRANCH  12  13
HETATM   13  C12 UNL     1      21.775  -0.860  53.988  1.00  0.00     0.131 C 
HETATM   14  O2  UNL     1      22.483  -1.775  54.345  1.00  0.00    -0.298 OA
BRANCH  13  15
HETATM   15  C13 UNL     1      20.311  -1.108  53.913  1.00  0.00     0.098 C 
BRANCH  15  16
HETATM   16  C14 UNL     1      19.557  -0.033  53.169  1.00  0.00     0.123 C 
BRANCH  16  17
HETATM   17  N1  UNL     1      18.306  -0.434  52.628  1.00  0.00    -0.420 N 
HETATM   18  C15 UNL     1      18.111  -0.268  51.232  1.00  0.00     0.142 C 
HETATM   19  C16 UNL     1      17.650  -1.521  53.263  1.00  0.00     0.142 C 
ENDBRANCH  16  17
ENDBRANCH  15  16
ENDBRANCH  13  15
ENDBRANCH  12  13
ENDBRANCH  11  12
ENDBRANCH   1  10
BRANCH   1  20
HETATM   20  C17 UNL     1      25.941   2.781  51.195  1.00  0.00     0.200 C 
BRANCH  20  21
HETATM   21  O3  UNL     1      27.291   3.025  51.386  1.00  0.00    -0.398 OA
HETATM   22  H25 UNL     1      27.442   3.489  52.249  1.00  0.00     0.209 HD
ENDBRANCH  20  21
ENDBRANCH   1  20
TORSDOF 10
ENDMDL
MODEL 4
REMARK VINA RESULT:      -6.5      1.309      2.129
REMARK  10 active torsions:
REMARK  status: ('A' for Active; 'I' for Inactive)
REMARK    1  A    between atoms: C7_7  and  O1_8 
REMARK    2  A    between atoms: O1_8  and  C8_9 
REMARK    3  A    between atoms: C8_9  and  C9_10 
REMARK    4  A    between atoms: C8_9  and  C17_20 
REMARK    5  A    between atoms: C10_11  and  C11_12 
REMARK    6  A    between atoms: C11_12  and  C12_13 
REMARK    7  A    between atoms: C12_13  and  C13_15 
REMARK    8  A    between atoms: C13_15  and  C14_16 
REMARK    9  A    between atoms: C14_16  and  N1_17 
REMARK   10  A    between atoms: C17_20  and  O3_21 
ROOT
HETATM    1  C8  UNL     1      25.297   1.324  52.276  1.00  0.00     0.175 C 
ENDROOT
BRANCH   1   2
HETATM    2  O1  UNL     1      26.183   1.118  53.345  1.00  0.00    -0.339 OA
BRANCH   2   3
HETATM    3  C7  UNL     1      27.319   0.345  53.342  1.00  0.00     0.075 A 
HETATM    4  C2  UNL     1      28.529   0.969  53.529  1.00  0.00    -0.029 A 
HETATM    5  C1  UNL     1      28.598   2.442  53.724  1.00  0.00     0.051 C 
HETATM    6  C3  UNL     1      29.735   0.266  53.541  1.00  0.00     0.009 A 
HETATM    7  C4  UNL     1      29.750  -1.116  53.359  1.00  0.00     0.001 A 
HETATM    8  C5  UNL     1      28.554  -1.749  53.173  1.00  0.00     0.003 A 
HETATM    9  C6  UNL     1      27.392  -1.016  53.168  1.00  0.00     0.037 A 
ENDBRANCH   2   3
ENDBRANCH   1   2
BRANCH   1  10
HETATM   10  C9  UNL     1      23.965   0.663  52.523  1.00  0.00     0.004 C 
HETATM   11  C10 UNL     1      23.772  -0.383  53.310  1.00  0.00    -0.021 C 
BRANCH  11  12
HETATM   12  C11 UNL     1      22.514  -1.102  53.619  1.00  0.00     0.105 C 
BRANCH  12  13
HETATM   13  C12 UNL     1      21.358  -0.230  53.887  1.00  0.00     0.131 C 
HETATM   14  O2  UNL     1      21.122   0.325  54.937  1.00  0.00    -0.298 OA
BRANCH  13  15
HETATM   15  C13 UNL     1      20.406  -0.019  52.766  1.00  0.00     0.098 C 
BRANCH  15  16
HETATM   16  C14 UNL     1      20.152   1.437  52.458  1.00  0.00     0.123 C 
BRANCH  16  17
HETATM   17  N1  UNL     1      20.679   1.895  51.220  1.00  0.00    -0.420 N 
HETATM   18  C15 UNL     1      21.441   3.092  51.236  1.00  0.00     0.142 C 
HETATM   19  C16 UNL     1      21.019   0.906  50.261  1.00  0.00     0.142 C 
ENDBRANCH  16  17
ENDBRANCH  15  16
ENDBRANCH  13  15
ENDBRANCH  12  13
ENDBRANCH  11  12
ENDBRANCH   1  10
BRANCH   1  20
HETATM   20  C17 UNL     1      25.088   2.825  52.090  1.00  0.00     0.200 C 
BRANCH  20  21
HETATM   21  O3  UNL     1      24.625   3.395  53.265  1.00  0.00    -0.398 OA
HETATM   22  H25 UNL     1      25.287   4.043  53.620  1.00  0.00     0.209 HD
ENDBRANCH  20  21
ENDBRANCH   1  20
TORSDOF 10
ENDMDL
MODEL 5
REMARK VINA RESULT:      -6.4      4.597      7.655
REMARK  10 active torsions:
REMARK  status: ('A' for Active; 'I' for Inactive)
REMARK    1  A    between atoms: C7_7  and  O1_8 
REMARK    2  A    between atoms: O1_8  and  C8_9 
REMARK    3  A    between atoms: C8_9  and  C9_10 
REMARK    4  A    between atoms: C8_9  and  C17_20 
REMARK    5  A    between atoms: C10_11  and  C11_12 
REMARK    6  A    between atoms: C11_12  and  C12_13 
REMARK    7  A    between atoms: C12_13  and  C13_15 
REMARK    8  A    between atoms: C13_15  and  C14_16 
REMARK    9  A    between atoms: C14_16  and  N1_17 
REMARK   10  A    between atoms: C17_20  and  O3_21 
ROOT
HETATM    1  C8  UNL     1      26.766   1.614  52.281  1.00  0.00     0.175 C 
ENDROOT
BRANCH   1   2
HETATM    2  O1  UNL     1      25.650   1.904  53.082  1.00  0.00    -0.339 OA
BRANCH   2   3
HETATM    3  C7  UNL     1      24.471   1.201  53.148  1.00  0.00     0.075 A 
HETATM    4  C2  UNL     1      23.306   1.856  52.826  1.00  0.00    -0.029 A 
HETATM    5  C1  UNL     1      23.330   3.288  52.425  1.00  0.00     0.051 C 
HETATM    6  C3  UNL     1      22.063   1.223  52.864  1.00  0.00     0.009 A 
HETATM    7  C4  UNL     1      21.961  -0.116  53.237  1.00  0.00     0.001 A 
HETATM    8  C5  UNL     1      23.112  -0.779  53.558  1.00  0.00     0.003 A 
HETATM    9  C6  UNL     1      24.314  -0.116  53.507  1.00  0.00     0.037 A 
ENDBRANCH   2   3
ENDBRANCH   1   2
BRANCH   1  10
HETATM   10  C9  UNL     1      26.591   2.133  50.877  1.00  0.00     0.004 C 
HETATM   11  C10 UNL     1      26.402   3.403  50.557  1.00  0.00    -0.021 C 
BRANCH  11  12
HETATM   12  C11 UNL     1      26.222   4.013  49.218  1.00  0.00     0.105 C 
BRANCH  12  13
HETATM   13  C12 UNL     1      27.267   4.978  48.837  1.00  0.00     0.131 C 
HETATM   14  O2  UNL     1      28.431   4.714  48.637  1.00  0.00    -0.298 OA
BRANCH  13  15
HETATM   15  C13 UNL     1      26.845   6.395  48.687  1.00  0.00     0.098 C 
BRANCH  15  16
HETATM   16  C14 UNL     1      27.997   7.345  48.462  1.00  0.00     0.123 C 
BRANCH  16  17
HETATM   17  N1  UNL     1      27.950   8.545  49.221  1.00  0.00    -0.420 N 
HETATM   18  C15 UNL     1      28.545   9.702  48.655  1.00  0.00     0.142 C 
HETATM   19  C16 UNL     1      26.826   8.726  50.069  1.00  0.00     0.142 C 
ENDBRANCH  16  17
ENDBRANCH  15  16
ENDBRANCH  13  15
ENDBRANCH  12  13
ENDBRANCH  11  12
ENDBRANCH   1  10
BRANCH   1  20
HETATM   20  C17 UNL     1      28.003   2.254  52.905  1.00  0.00     0.200 C 
BRANCH  20  21
HETATM   21  O3  UNL     1      27.676   2.859  54.107  1.00  0.00    -0.398 OA
HETATM   22  H25 UNL     1      26.855   3.406  54.009  1.00  0.00     0.209 HD
ENDBRANCH  20  21
ENDBRANCH   1  20
TORSDOF 10
ENDMDL
MODEL 6
REMARK VINA RESULT:      -6.4      3.184      6.601
REMARK  10 active torsions:
REMARK  status: ('A' for Active; 'I' for Inactive)
REMARK    1  A    between atoms: C7_7  and  O1_8 
REMARK    2  A    between atoms: O1_8  and  C8_9 
REMARK    3  A    between atoms: C8_9  and  C9_10 
REMARK    4  A    between atoms: C8_9  and  C17_20 
REMARK    5  A    between atoms: C10_11  and  C11_12 
REMARK    6  A    between atoms: C11_12  and  C12_13 
REMARK    7  A    between atoms: C12_13  and  C13_15 
REMARK    8  A    between atoms: C13_15  and  C14_16 
REMARK    9  A    between atoms: C14_16  and  N1_17 
REMARK   10  A    between atoms: C17_20  and  O3_21 
ROOT
HETATM    1  C8  UNL     1      21.496   0.121  52.705  1.00  0.00     0.175 C 
ENDROOT
BRANCH   1   2
HETATM    2  O1  UNL     1      21.819   1.353  52.114  1.00  0.00    -0.339 OA
BRANCH   2   3
HETATM    3  C7  UNL     1      22.028   1.601  50.778  1.00  0.00     0.075 A 
HETATM    4  C2  UNL     1      22.988   2.522  50.432  1.00  0.00    -0.029 A 
HETATM    5  C1  UNL     1      23.769   3.231  51.481  1.00  0.00     0.051 C 
HETATM    6  C3  UNL     1      23.270   2.839  49.102  1.00  0.00     0.009 A 
HETATM    7  C4  UNL     1      22.574   2.219  48.065  1.00  0.00     0.001 A 
HETATM    8  C5  UNL     1      21.619   1.301  48.395  1.00  0.00     0.003 A 
HETATM    9  C6  UNL     1      21.375   1.021  49.718  1.00  0.00     0.037 A 
ENDBRANCH   2   3
ENDBRANCH   1   2
BRANCH   1  10
HETATM   10  C9  UNL     1      22.727  -0.603  53.188  1.00  0.00     0.004 C 
HETATM   11  C10 UNL     1      23.972  -0.215  52.962  1.00  0.00    -0.021 C 
BRANCH  11  12
HETATM   12  C11 UNL     1      25.241  -0.850  53.390  1.00  0.00     0.105 C 
BRANCH  12  13
HETATM   13  C12 UNL     1      25.647  -0.542  54.771  1.00  0.00     0.131 C 
HETATM   14  O2  UNL     1      25.274  -1.129  55.762  1.00  0.00    -0.298 OA
BRANCH  13  15
HETATM   15  C13 UNL     1      26.597   0.586  54.953  1.00  0.00     0.098 C 
BRANCH  15  16
HETATM   16  C14 UNL     1      28.046   0.161  54.925  1.00  0.00     0.123 C 
BRANCH  16  17
HETATM   17  N1  UNL     1      28.809   0.683  53.846  1.00  0.00    -0.420 N 
HETATM   18  C15 UNL     1      28.812   2.091  53.666  1.00  0.00     0.142 C 
HETATM   19  C16 UNL     1      29.978  -0.033  53.480  1.00  0.00     0.142 C 
ENDBRANCH  16  17
ENDBRANCH  15  16
ENDBRANCH  13  15
ENDBRANCH  12  13
ENDBRANCH  11  12
ENDBRANCH   1  10
BRANCH   1  20
HETATM   20  C17 UNL     1      20.562   0.370  53.886  1.00  0.00     0.200 C 
BRANCH  20  21
HETATM   21  O3  UNL     1      21.069  -0.217  55.033  1.00  0.00    -0.398 OA
HETATM   22  H25 UNL     1      22.060  -0.187  55.030  1.00  0.00     0.209 HD
ENDBRANCH  20  21
ENDBRANCH   1  20
TORSDOF 10
ENDMDL
MODEL 7
REMARK VINA RESULT:      -6.3      2.536      4.636
REMARK  10 active torsions:
REMARK  status: ('A' for Active; 'I' for Inactive)
REMARK    1  A    between atoms: C7_7  and  O1_8 
REMARK    2  A    between atoms: O1_8  and  C8_9 
REMARK    3  A    between atoms: C8_9  and  C9_10 
REMARK    4  A    between atoms: C8_9  and  C17_20 
REMARK    5  A    between atoms: C10_11  and  C11_12 
REMARK    6  A    between atoms: C11_12  and  C12_13 
REMARK    7  A    between atoms: C12_13  and  C13_15 
REMARK    8  A    between atoms: C13_15  and  C14_16 
REMARK    9  A    between atoms: C14_16  and  N1_17 
REMARK   10  A    between atoms: C17_20  and  O3_21 
ROOT
HETATM    1  C8  UNL     1      24.849   1.022  53.062  1.00  0.00     0.175 C 
ENDROOT
BRANCH   1   2
HETATM    2  O1  UNL     1      25.595  -0.024  53.627  1.00  0.00    -0.339 OA
BRANCH   2   3
HETATM    3  C7  UNL     1      26.964  -0.115  53.712  1.00  0.00     0.075 A 
HETATM    4  C2  UNL     1      27.583  -1.172  53.089  1.00  0.00    -0.029 A 
HETATM    5  C1  UNL     1      26.786  -2.188  52.352  1.00  0.00     0.051 C 
HETATM    6  C3  UNL     1      28.968  -1.347  53.121  1.00  0.00     0.009 A 
HETATM    7  C4  UNL     1      29.780  -0.438  53.797  1.00  0.00     0.001 A 
HETATM    8  C5  UNL     1      29.177   0.618  54.419  1.00  0.00     0.003 A 
HETATM    9  C6  UNL     1      27.811   0.750  54.362  1.00  0.00     0.037 A 
ENDBRANCH   2   3
ENDBRANCH   1   2
BRANCH   1  10
HETATM   10  C9  UNL     1      25.347   1.377  51.684  1.00  0.00     0.004 C 
HETATM   11  C10 UNL     1      25.918   2.525  51.356  1.00  0.00    -0.021 C 
BRANCH  11  12
HETATM   12  C11 UNL     1      26.438   2.970  50.042  1.00  0.00     0.105 C 
BRANCH  12  13
HETATM   13  C12 UNL     1      25.894   4.253  49.568  1.00  0.00     0.131 C 
HETATM   14  O2  UNL     1      26.534   5.261  49.373  1.00  0.00    -0.298 OA
BRANCH  13  15
HETATM   15  C13 UNL     1      24.431   4.302  49.307  1.00  0.00     0.098 C 
BRANCH  15  16
HETATM   16  C14 UNL     1      23.682   5.210  50.253  1.00  0.00     0.123 C 
BRANCH  16  17
HETATM   17  N1  UNL     1      22.834   4.550  51.181  1.00  0.00    -0.420 N 
HETATM   18  C15 UNL     1      22.219   3.341  50.763  1.00  0.00     0.142 C 
HETATM   19  C16 UNL     1      23.156   4.686  52.557  1.00  0.00     0.142 C 
ENDBRANCH  16  17
ENDBRANCH  15  16
ENDBRANCH  13  15
ENDBRANCH  12  13
ENDBRANCH  11  12
ENDBRANCH   1  10
BRANCH   1  20
HETATM   20  C17 UNL     1      23.386   0.596  52.975  1.00  0.00     0.200 C 
BRANCH  20  21
HETATM   21  O3  UNL     1      23.270  -0.768  53.181  1.00  0.00    -0.398 OA
HETATM   22  H25 UNL     1      24.138  -1.220  53.019  1.00  0.00     0.209 HD
ENDBRANCH  20  21
ENDBRANCH   1  20
TORSDOF 10
ENDMDL
MODEL 8
REMARK VINA RESULT:      -6.3      3.475      5.998
REMARK  10 active torsions:
REMARK  status: ('A' for Active; 'I' for Inactive)
REMARK    1  A    between atoms: C7_7  and  O1_8 
REMARK    2  A    between atoms: O1_8  and  C8_9 
REMARK    3  A    between atoms: C8_9  and  C9_10 
REMARK    4  A    between atoms: C8_9  and  C17_20 
REMARK    5  A    between atoms: C10_11  and  C11_12 
REMARK    6  A    between atoms: C11_12  and  C12_13 
REMARK    7  A    between atoms: C12_13  and  C13_15 
REMARK    8  A    between atoms: C13_15  and  C14_16 
REMARK    9  A    between atoms: C14_16  and  N1_17 
REMARK   10  A    between atoms: C17_20  and  O3_21 
ROOT
HETATM    1  C8  UNL     1      23.239   3.065  51.723  1.00  0.00     0.175 C 
ENDROOT
BRANCH   1   2
HETATM    2  O1  UNL     1      23.472   3.463  50.398  1.00  0.00    -0.339 OA
BRANCH   2   3
HETATM    3  C7  UNL     1      24.634   3.987  49.883  1.00  0.00     0.075 A 
HETATM    4  C2  UNL     1      24.615   5.283  49.424  1.00  0.00    -0.029 A 
HETATM    5  C1  UNL     1      23.365   6.087  49.483  1.00  0.00     0.051 C 
HETATM    6  C3  UNL     1      25.745   5.898  48.885  1.00  0.00     0.009 A 
HETATM    7  C4  UNL     1      26.952   5.205  48.792  1.00  0.00     0.001 A 
HETATM    8  C5  UNL     1      26.984   3.917  49.245  1.00  0.00     0.003 A 
HETATM    9  C6  UNL     1      25.847   3.351  49.768  1.00  0.00     0.037 A 
ENDBRANCH   2   3
ENDBRANCH   1   2
BRANCH   1  10
HETATM   10  C9  UNL     1      23.469   1.587  51.908  1.00  0.00     0.004 C 
HETATM   11  C10 UNL     1      23.755   1.002  53.060  1.00  0.00    -0.021 C 
BRANCH  11  12
HETATM   12  C11 UNL     1      23.997  -0.431  53.347  1.00  0.00     0.105 C 
BRANCH  12  13
HETATM   13  C12 UNL     1      25.346  -0.738  53.851  1.00  0.00     0.131 C 
HETATM   14  O2  UNL     1      25.650  -0.869  55.015  1.00  0.00    -0.298 OA
BRANCH  13  15
HETATM   15  C13 UNL     1      26.419  -0.899  52.835  1.00  0.00     0.098 C 
BRANCH  15  16
HETATM   16  C14 UNL     1      27.438   0.215  52.854  1.00  0.00     0.123 C 
BRANCH  16  17
HETATM   17  N1  UNL     1      28.551   0.004  53.711  1.00  0.00    -0.420 N 
HETATM   18  C15 UNL     1      29.361  -1.135  53.464  1.00  0.00     0.142 C 
HETATM   19  C16 UNL     1      29.178   1.158  54.247  1.00  0.00     0.142 C 
ENDBRANCH  16  17
ENDBRANCH  15  16
ENDBRANCH  13  15
ENDBRANCH  12  13
ENDBRANCH  11  12
ENDBRANCH   1  10
BRANCH   1  20
HETATM   20  C17 UNL     1      24.176   3.840  52.645  1.00  0.00     0.200 C 
BRANCH  20  21
HETATM   21  O3  UNL     1      23.612   5.055  52.994  1.00  0.00    -0.398 OA
HETATM   22  H25 UNL     1      22.689   5.125  52.638  1.00  0.00     0.209 HD
ENDBRANCH  20  21
ENDBRANCH   1  20
TORSDOF 10
ENDMDL
MODEL 9
REMARK VINA RESULT:      -6.3      2.627      7.694
REMARK  10 active torsions:
REMARK  status: ('A' for Active; 'I' for Inactive)
REMARK    1  A    between atoms: C7_7  and  O1_8 
REMARK    2  A    between atoms: O1_8  and  C8_9 
REMARK    3  A    between atoms: C8_9  and  C9_10 
REMARK    4  A    between atoms: C8_9  and  C17_20 
REMARK    5  A    between atoms: C10_11  and  C11_12 
REMARK    6  A    between atoms: C11_12  and  C12_13 
REMARK    7  A    between atoms: C12_13  and  C13_15 
REMARK    8  A    between atoms: C13_15  and  C14_16 
REMARK    9  A    between atoms: C14_16  and  N1_17 
REMARK   10  A    between atoms: C17_20  and  O3_21 
ROOT
HETATM    1  C8  UNL     1      22.236  -0.823  53.583  1.00  0.00     0.175 C 
ENDROOT
BRANCH   1   2
HETATM    2  O1  UNL     1      21.337   0.186  53.203  1.00  0.00    -0.339 OA
BRANCH   2   3
HETATM    3  C7  UNL     1      20.127   0.023  52.571  1.00  0.00     0.075 A 
HETATM    4  C2  UNL     1      19.991   0.512  51.294  1.00  0.00    -0.029 A 
HETATM    5  C1  UNL     1      21.125   1.202  50.624  1.00  0.00     0.051 C 
HETATM    6  C3  UNL     1      18.801   0.393  50.575  1.00  0.00     0.009 A 
HETATM    7  C4  UNL     1      17.692  -0.236  51.140  1.00  0.00     0.001 A 
HETATM    8  C5  UNL     1      17.815  -0.727  52.409  1.00  0.00     0.003 A 
HETATM    9  C6  UNL     1      19.006  -0.587  53.079  1.00  0.00     0.037 A 
ENDBRANCH   2   3
ENDBRANCH   1   2
BRANCH   1  10
HETATM   10  C9  UNL     1      23.666  -0.350  53.510  1.00  0.00     0.004 C 
HETATM   11  C10 UNL     1      24.139   0.496  52.610  1.00  0.00    -0.021 C 
BRANCH  11  12
HETATM   12  C11 UNL     1      25.515   1.021  52.452  1.00  0.00     0.105 C 
BRANCH  12  13
HETATM   13  C12 UNL     1      26.193   1.357  53.715  1.00  0.00     0.131 C 
HETATM   14  O2  UNL     1      26.084   2.401  54.317  1.00  0.00    -0.298 OA
BRANCH  13  15
HETATM   15  C13 UNL     1      27.085   0.318  54.292  1.00  0.00     0.098 C 
BRANCH  15  16
HETATM   16  C14 UNL     1      27.594  -0.672  53.271  1.00  0.00     0.123 C 
BRANCH  16  17
HETATM   17  N1  UNL     1      28.864  -1.241  53.560  1.00  0.00    -0.420 N 
HETATM   18  C15 UNL     1      29.066  -2.602  53.212  1.00  0.00     0.142 C 
HETATM   19  C16 UNL     1      29.984  -0.371  53.509  1.00  0.00     0.142 C 
ENDBRANCH  16  17
ENDBRANCH  15  16
ENDBRANCH  13  15
ENDBRANCH  12  13
ENDBRANCH  11  12
ENDBRANCH   1  10
BRANCH   1  20
HETATM   20  C17 UNL     1      21.920  -1.253  55.013  1.00  0.00     0.200 C 
BRANCH  20  21
HETATM   21  O3  UNL     1      23.070  -1.686  55.650  1.00  0.00    -0.398 OA
HETATM   22  H25 UNL     1      23.630  -0.913  55.921  1.00  0.00     0.209 HD
ENDBRANCH  20  21
ENDBRANCH   1  20
TORSDOF 10
ENDMDL
