MODEL 1
REMARK VINA RESULT:      -8.6      0.000      0.000
REMARK  3 active torsions:
REMARK  status: ('A' for Active; 'I' for Inactive)
REMARK    1  A    between atoms: C10_13  and  O2_14 
REMARK    2  A    between atoms: O2_14  and  C11_15 
REMARK    3  A    between atoms: C11_15  and  C12_16 
ROOT
HETATM    1  C1  UNL     1      23.782   2.495  50.029  1.00  0.00     0.040 C 
HETATM    2  C2  UNL     1      22.713   2.052  50.972  1.00  0.00     0.127 C 
HETATM    3  O1  UNL     1      22.013   0.974  50.367  1.00  0.00    -0.385 OA
HETATM    4  C3  UNL     1      20.702   1.297  50.097  1.00  0.00     0.172 C 
HETATM    5  C4  UNL     1      19.838   1.571  51.280  1.00  0.00     0.056 C 
HETATM    6  C5  UNL     1      19.562   0.407  52.146  1.00  0.00     0.018 C 
HETATM    7  C6  UNL     1      19.657  -0.298  53.259  1.00  0.00     0.099 C 
HETATM    8 CL1  UNL     1      18.974  -1.865  53.746  1.00  0.00    -0.065 Cl
HETATM    9  N1  UNL     1      20.389  -0.071  54.422  1.00  0.00    -0.357 N 
HETATM   10  C7  UNL     1      21.625  -0.821  54.477  1.00  0.00     0.089 C 
HETATM   11  C8  UNL     1      22.856  -1.055  54.196  1.00  0.00     0.019 C 
HETATM   12  C9  UNL     1      23.885  -0.447  53.438  1.00  0.00     0.034 C 
HETATM   13  C10 UNL     1      24.057   0.650  52.665  1.00  0.00     0.053 C 
HETATM   14  C18 UNL     1      23.120   1.695  52.322  1.00  0.00     0.067 C 
HETATM   15  C19 UNL     1      23.567   2.945  53.042  1.00  0.00     0.020 C 
HETATM   16  H10 UNL     1      20.022   0.586  55.138  1.00  0.00     0.166 HD
ENDROOT
BRANCH  13  17
HETATM   17  O2  UNL     1      25.159   1.117  51.972  1.00  0.00    -0.350 OA
BRANCH  17  18
HETATM   18  C11 UNL     1      26.287   0.283  51.881  1.00  0.00     0.214 C 
BRANCH  18  19
HETATM   19  C12 UNL     1      27.365   0.671  52.833  1.00  0.00    -0.034 A 
HETATM   20  C13 UNL     1      28.069  -0.150  53.690  1.00  0.00     0.009 A 
HETATM   21  C14 UNL     1      29.046   0.367  54.513  1.00  0.00     0.001 A 
HETATM   22  C15 UNL     1      29.373   1.715  54.528  1.00  0.00     0.000 A 
HETATM   23  C16 UNL     1      28.648   2.509  53.656  1.00  0.00     0.001 A 
HETATM   24  C17 UNL     1      27.659   2.026  52.815  1.00  0.00     0.009 A 
ENDBRANCH  18  19
ENDBRANCH  17  18
ENDBRANCH  13  17
TORSDOF 3
ENDMDL
MODEL 2
REMARK VINA RESULT:      -8.1      2.097      2.727
REMARK  3 active torsions:
REMARK  status: ('A' for Active; 'I' for Inactive)
REMARK    1  A    between atoms: C10_13  and  O2_14 
REMARK    2  A    between atoms: O2_14  and  C11_15 
REMARK    3  A    between atoms: C11_15  and  C12_16 
ROOT
HETATM    1  C1  UNL     1      26.167   2.728  50.693  1.00  0.00     0.040 C 
HETATM    2  C2  UNL     1      24.765   3.067  51.079  1.00  0.00     0.127 C 
HETATM    3  O1  UNL     1      23.932   2.841  49.950  1.00  0.00    -0.385 OA
HETATM    4  C3  UNL     1      23.369   4.006  49.481  1.00  0.00     0.172 C 
HETATM    5  C4  UNL     1      22.421   4.692  50.402  1.00  0.00     0.056 C 
HETATM    6  C5  UNL     1      21.157   3.974  50.660  1.00  0.00     0.018 C 
HETATM    7  C6  UNL     1      20.301   3.301  51.409  1.00  0.00     0.099 C 
HETATM    8 CL1  UNL     1      18.698   2.612  51.071  1.00  0.00    -0.065 Cl
HETATM    9  N1  UNL     1      20.399   2.847  52.723  1.00  0.00    -0.357 N 
HETATM   10  C7  UNL     1      20.756   1.448  52.820  1.00  0.00     0.089 C 
HETATM   11  C8  UNL     1      21.567   0.453  52.812  1.00  0.00     0.019 C 
HETATM   12  C9  UNL     1      22.956   0.242  52.642  1.00  0.00     0.034 C 
HETATM   13  C10 UNL     1      24.069   0.977  52.414  1.00  0.00     0.053 C 
HETATM   14  C18 UNL     1      24.216   2.405  52.251  1.00  0.00     0.067 C 
HETATM   15  C19 UNL     1      24.929   2.920  53.479  1.00  0.00     0.020 C 
HETATM   16  H10 UNL     1      20.220   3.504  53.506  1.00  0.00     0.166 HD
ENDROOT
BRANCH  13  17
HETATM   17  O2  UNL     1      25.395   0.609  52.268  1.00  0.00    -0.350 OA
BRANCH  17  18
HETATM   18  C11 UNL     1      25.786  -0.658  52.736  1.00  0.00     0.214 C 
BRANCH  18  19
HETATM   19  C12 UNL     1      27.244  -0.736  53.029  1.00  0.00    -0.034 A 
HETATM   20  C13 UNL     1      28.047  -1.858  53.020  1.00  0.00     0.009 A 
HETATM   21  C14 UNL     1      29.390  -1.762  53.314  1.00  0.00     0.001 A 
HETATM   22  C15 UNL     1      30.002  -0.557  53.629  1.00  0.00     0.000 A 
HETATM   23  C16 UNL     1      29.167   0.547  53.628  1.00  0.00     0.001 A 
HETATM   24  C17 UNL     1      27.813   0.490  53.339  1.00  0.00     0.009 A 
ENDBRANCH  18  19
ENDBRANCH  17  18
ENDBRANCH  13  17
TORSDOF 3
ENDMDL
MODEL 3
REMARK VINA RESULT:      -7.6      2.726      4.017
REMARK  3 active torsions:
REMARK  status: ('A' for Active; 'I' for Inactive)
REMARK    1  A    between atoms: C10_13  and  O2_14 
REMARK    2  A    between atoms: O2_14  and  C11_15 
REMARK    3  A    between atoms: C11_15  and  C12_16 
ROOT
HETATM    1  C1  UNL     1      22.105   3.514  49.024  1.00  0.00     0.040 C 
HETATM    2  C2  UNL     1      21.794   2.767  50.279  1.00  0.00     0.127 C 
HETATM    3  O1  UNL     1      21.442   1.437  49.923  1.00  0.00    -0.385 OA
HETATM    4  C3  UNL     1      20.131   1.151  50.228  1.00  0.00     0.172 C 
HETATM    5  C4  UNL     1      19.777   1.162  51.675  1.00  0.00     0.056 C 
HETATM    6  C5  UNL     1      20.388   0.089  52.484  1.00  0.00     0.018 C 
HETATM    7  C6  UNL     1      21.204  -0.389  53.407  1.00  0.00     0.099 C 
HETATM    8 CL1  UNL     1      21.505  -2.036  54.002  1.00  0.00    -0.065 Cl
HETATM    9  N1  UNL     1      22.163   0.246  54.193  1.00  0.00    -0.357 N 
HETATM   10  C7  UNL     1      23.511   0.093  53.689  1.00  0.00     0.089 C 
HETATM   11  C8  UNL     1      24.502   0.367  52.920  1.00  0.00     0.019 C 
HETATM   12  C9  UNL     1      24.784   1.265  51.863  1.00  0.00     0.034 C 
HETATM   13  C10 UNL     1      24.153   2.245  51.175  1.00  0.00     0.053 C 
HETATM   14  C18 UNL     1      22.810   2.759  51.319  1.00  0.00     0.067 C 
HETATM   15  C19 UNL     1      22.927   4.150  51.896  1.00  0.00     0.020 C 
HETATM   16  H10 UNL     1      21.868   0.761  55.045  1.00  0.00     0.166 HD
ENDROOT
BRANCH  13  17
HETATM   17  O2  UNL     1      24.579   3.054  50.137  1.00  0.00    -0.350 OA
BRANCH  17  18
HETATM   18  C11 UNL     1      25.953   3.084  49.841  1.00  0.00     0.214 C 
BRANCH  18  19
HETATM   19  C12 UNL     1      26.382   4.376  49.238  1.00  0.00    -0.034 A 
HETATM   20  C13 UNL     1      27.640   4.721  48.789  1.00  0.00     0.009 A 
HETATM   21  C14 UNL     1      27.876   5.967  48.250  1.00  0.00     0.001 A 
HETATM   22  C15 UNL     1      26.883   6.928  48.127  1.00  0.00     0.000 A 
HETATM   23  C16 UNL     1      25.633   6.548  48.587  1.00  0.00     0.001 A 
HETATM   24  C17 UNL     1      25.358   5.306  49.136  1.00  0.00     0.009 A 
ENDBRANCH  18  19
ENDBRANCH  17  18
ENDBRANCH  13  17
TORSDOF 3
ENDMDL
MODEL 4
REMARK VINA RESULT:      -7.5      9.757     12.739
REMARK  3 active torsions:
REMARK  status: ('A' for Active; 'I' for Inactive)
REMARK    1  A    between atoms: C10_13  and  O2_14 
REMARK    2  A    between atoms: O2_14  and  C11_15 
REMARK    3  A    between atoms: C11_15  and  C12_16 
ROOT
HETATM    1  C1  UNL     1      31.901   5.897  49.745  1.00  0.00     0.040 C 
HETATM    2  C2  UNL     1      32.738   5.821  48.511  1.00  0.00     0.127 C 
HETATM    3  O1  UNL     1      32.381   4.636  47.812  1.00  0.00    -0.385 OA
HETATM    4  C3  UNL     1      33.421   3.735  47.759  1.00  0.00     0.172 C 
HETATM    5  C4  UNL     1      34.624   4.167  46.995  1.00  0.00     0.056 C 
HETATM    6  C5  UNL     1      34.433   4.305  45.538  1.00  0.00     0.018 C 
HETATM    7  C6  UNL     1      34.337   4.984  44.408  1.00  0.00     0.099 C 
HETATM    8 CL1  UNL     1      34.063   4.479  42.727  1.00  0.00    -0.065 Cl
HETATM    9  N1  UNL     1      34.360   6.356  44.164  1.00  0.00    -0.357 N 
HETATM   10  C7  UNL     1      33.042   6.929  43.994  1.00  0.00     0.089 C 
HETATM   11  C8  UNL     1      31.918   7.399  44.400  1.00  0.00     0.019 C 
HETATM   12  C9  UNL     1      31.274   7.637  45.637  1.00  0.00     0.034 C 
HETATM   13  C10 UNL     1      31.533   7.485  46.957  1.00  0.00     0.053 C 
HETATM   14  C18 UNL     1      32.710   6.964  47.614  1.00  0.00     0.067 C 
HETATM   15  C19 UNL     1      33.393   8.130  48.290  1.00  0.00     0.020 C 
HETATM   16  H10 UNL     1      35.270   6.853  44.122  1.00  0.00     0.166 HD
ENDROOT
BRANCH  13  17
HETATM   17  O2  UNL     1      30.775   7.774  48.077  1.00  0.00    -0.350 OA
BRANCH  17  18
HETATM   18  C11 UNL     1      29.428   8.133  47.892  1.00  0.00     0.214 C 
BRANCH  18  19
HETATM   19  C12 UNL     1      28.488   7.036  48.253  1.00  0.00    -0.034 A 
HETATM   20  C13 UNL     1      28.731   5.677  48.239  1.00  0.00     0.009 A 
HETATM   21  C14 UNL     1      27.749   4.784  48.606  1.00  0.00     0.001 A 
HETATM   22  C15 UNL     1      26.483   5.189  49.005  1.00  0.00     0.000 A 
HETATM   23  C16 UNL     1      26.274   6.557  49.008  1.00  0.00     0.001 A 
HETATM   24  C17 UNL     1      27.236   7.485  48.644  1.00  0.00     0.009 A 
ENDBRANCH  18  19
ENDBRANCH  17  18
ENDBRANCH  13  17
TORSDOF 3
ENDMDL
MODEL 5
REMARK VINA RESULT:      -7.5      3.663      5.509
REMARK  3 active torsions:
REMARK  status: ('A' for Active; 'I' for Inactive)
REMARK    1  A    between atoms: C10_13  and  O2_14 
REMARK    2  A    between atoms: O2_14  and  C11_15 
REMARK    3  A    between atoms: C11_15  and  C12_16 
ROOT
HETATM    1  C1  UNL     1      21.372   3.294  51.341  1.00  0.00     0.040 C 
HETATM    2  C2  UNL     1      22.386   2.486  52.081  1.00  0.00     0.127 C 
HETATM    3  O1  UNL     1      22.414   1.185  51.508  1.00  0.00    -0.385 OA
HETATM    4  C3  UNL     1      21.989   0.221  52.394  1.00  0.00     0.172 C 
HETATM    5  C4  UNL     1      22.839   0.020  53.600  1.00  0.00     0.056 C 
HETATM    6  C5  UNL     1      24.178  -0.549  53.345  1.00  0.00     0.018 C 
HETATM    7  C6  UNL     1      25.497  -0.509  53.284  1.00  0.00     0.099 C 
HETATM    8 CL1  UNL     1      26.712  -1.726  52.835  1.00  0.00    -0.065 Cl
HETATM    9  N1  UNL     1      26.388   0.540  53.498  1.00  0.00    -0.357 N 
HETATM   10  C7  UNL     1      26.850   1.158  52.275  1.00  0.00     0.089 C 
HETATM   11  C8  UNL     1      26.756   1.942  51.262  1.00  0.00     0.019 C 
HETATM   12  C9  UNL     1      25.815   2.858  50.737  1.00  0.00     0.034 C 
HETATM   13  C10 UNL     1      24.588   3.337  51.049  1.00  0.00     0.053 C 
HETATM   14  C18 UNL     1      23.733   3.025  52.172  1.00  0.00     0.067 C 
HETATM   15  C19 UNL     1      23.709   4.245  53.062  1.00  0.00     0.020 C 
HETATM   16  H10 UNL     1      26.651   0.797  54.469  1.00  0.00     0.166 HD
ENDROOT
BRANCH  13  17
HETATM   17  O2  UNL     1      23.776   4.258  50.413  1.00  0.00    -0.350 OA
BRANCH  17  18
HETATM   18  C11 UNL     1      24.179   4.739  49.154  1.00  0.00     0.214 C 
BRANCH  18  19
HETATM   19  C12 UNL     1      25.146   5.867  49.254  1.00  0.00    -0.034 A 
HETATM   20  C13 UNL     1      26.348   6.008  48.593  1.00  0.00     0.009 A 
HETATM   21  C14 UNL     1      27.134   7.121  48.794  1.00  0.00     0.001 A 
HETATM   22  C15 UNL     1      26.770   8.147  49.654  1.00  0.00     0.000 A 
HETATM   23  C16 UNL     1      25.557   7.973  50.300  1.00  0.00     0.001 A 
HETATM   24  C17 UNL     1      24.742   6.868  50.125  1.00  0.00     0.009 A 
ENDBRANCH  18  19
ENDBRANCH  17  18
ENDBRANCH  13  17
TORSDOF 3
ENDMDL
MODEL 6
REMARK VINA RESULT:      -7.4      4.141      6.608
REMARK  3 active torsions:
REMARK  status: ('A' for Active; 'I' for Inactive)
REMARK    1  A    between atoms: C10_13  and  O2_14 
REMARK    2  A    between atoms: O2_14  and  C11_15 
REMARK    3  A    between atoms: C11_15  and  C12_16 
ROOT
HETATM    1  C1  UNL     1      25.780   2.714  50.607  1.00  0.00     0.040 C 
HETATM    2  C2  UNL     1      25.117   4.040  50.783  1.00  0.00     0.127 C 
HETATM    3  O1  UNL     1      25.106   4.696  49.522  1.00  0.00    -0.385 OA
HETATM    4  C3  UNL     1      25.876   5.837  49.526  1.00  0.00     0.172 C 
HETATM    5  C4  UNL     1      25.416   6.934  50.423  1.00  0.00     0.056 C 
HETATM    6  C5  UNL     1      24.144   7.577  50.036  1.00  0.00     0.018 C 
HETATM    7  C6  UNL     1      22.864   7.868  50.183  1.00  0.00     0.099 C 
HETATM    8 CL1  UNL     1      21.742   8.856  49.222  1.00  0.00    -0.065 Cl
HETATM    9  N1  UNL     1      21.934   7.441  51.129  1.00  0.00    -0.357 N 
HETATM   10  C7  UNL     1      21.083   6.372  50.653  1.00  0.00     0.089 C 
HETATM   11  C8  UNL     1      20.798   5.152  50.371  1.00  0.00     0.019 C 
HETATM   12  C9  UNL     1      21.435   3.891  50.436  1.00  0.00     0.034 C 
HETATM   13  C10 UNL     1      22.628   3.380  50.823  1.00  0.00     0.053 C 
HETATM   14  C18 UNL     1      23.787   4.049  51.368  1.00  0.00     0.067 C 
HETATM   15  C19 UNL     1      23.891   3.644  52.819  1.00  0.00     0.020 C 
HETATM   16  H10 UNL     1      21.912   7.891  52.064  1.00  0.00     0.166 HD
ENDROOT
BRANCH  13  17
HETATM   17  O2  UNL     1      23.111   2.084  50.823  1.00  0.00    -0.350 OA
BRANCH  17  18
HETATM   18  C11 UNL     1      22.182   1.031  50.892  1.00  0.00     0.214 C 
BRANCH  18  19
HETATM   19  C12 UNL     1      22.067   0.456  52.261  1.00  0.00    -0.034 A 
HETATM   20  C13 UNL     1      22.981  -0.338  52.923  1.00  0.00     0.009 A 
HETATM   21  C14 UNL     1      22.725  -0.791  54.198  1.00  0.00     0.001 A 
HETATM   22  C15 UNL     1      21.557  -0.481  54.880  1.00  0.00     0.000 A 
HETATM   23  C16 UNL     1      20.662   0.318  54.187  1.00  0.00     0.001 A 
HETATM   24  C17 UNL     1      20.885   0.791  52.905  1.00  0.00     0.009 A 
ENDBRANCH  18  19
ENDBRANCH  17  18
ENDBRANCH  13  17
TORSDOF 3
ENDMDL
MODEL 7
REMARK VINA RESULT:      -7.3      3.180      6.187
REMARK  3 active torsions:
REMARK  status: ('A' for Active; 'I' for Inactive)
REMARK    1  A    between atoms: C10_13  and  O2_14 
REMARK    2  A    between atoms: O2_14  and  C11_15 
REMARK    3  A    between atoms: C11_15  and  C12_16 
ROOT
HETATM    1  C1  UNL     1      21.372   3.456  51.663  1.00  0.00     0.040 C 
HETATM    2  C2  UNL     1      22.405   2.585  52.299  1.00  0.00     0.127 C 
HETATM    3  O1  UNL     1      22.411   1.340  51.613  1.00  0.00    -0.385 OA
HETATM    4  C3  UNL     1      22.009   0.303  52.423  1.00  0.00     0.172 C 
HETATM    5  C4  UNL     1      22.893  -0.005  53.582  1.00  0.00     0.056 C 
HETATM    6  C5  UNL     1      24.221  -0.551  53.238  1.00  0.00     0.018 C 
HETATM    7  C6  UNL     1      25.538  -0.507  53.141  1.00  0.00     0.099 C 
HETATM    8 CL1  UNL     1      26.735  -1.681  52.552  1.00  0.00    -0.065 Cl
HETATM    9  N1  UNL     1      26.440   0.518  53.421  1.00  0.00    -0.357 N 
HETATM   10  C7  UNL     1      26.868   1.241  52.243  1.00  0.00     0.089 C 
HETATM   11  C8  UNL     1      26.747   2.110  51.305  1.00  0.00     0.019 C 
HETATM   12  C9  UNL     1      25.794   3.070  50.891  1.00  0.00     0.034 C 
HETATM   13  C10 UNL     1      24.578   3.521  51.281  1.00  0.00     0.053 C 
HETATM   14  C18 UNL     1      23.756   3.113  52.397  1.00  0.00     0.067 C 
HETATM   15  C19 UNL     1      23.762   4.250  53.391  1.00  0.00     0.020 C 
HETATM   16  H10 UNL     1      26.732   0.689  54.402  1.00  0.00     0.166 HD
ENDROOT
BRANCH  13  17
HETATM   17  O2  UNL     1      23.751   4.496  50.752  1.00  0.00    -0.350 OA
BRANCH  17  18
HETATM   18  C11 UNL     1      24.067   5.017  49.485  1.00  0.00     0.214 C 
BRANCH  18  19
HETATM   19  C12 UNL     1      23.213   4.453  48.404  1.00  0.00    -0.034 A 
HETATM   20  C13 UNL     1      22.829   3.139  48.231  1.00  0.00     0.009 A 
HETATM   21  C14 UNL     1      22.027   2.775  47.171  1.00  0.00     0.001 A 
HETATM   22  C15 UNL     1      21.566   3.690  46.235  1.00  0.00     0.000 A 
HETATM   23  C16 UNL     1      21.969   4.999  46.440  1.00  0.00     0.001 A 
HETATM   24  C17 UNL     1      22.775   5.402  47.491  1.00  0.00     0.009 A 
ENDBRANCH  18  19
ENDBRANCH  17  18
ENDBRANCH  13  17
TORSDOF 3
ENDMDL
MODEL 8
REMARK VINA RESULT:      -7.3      3.102      7.130
REMARK  3 active torsions:
REMARK  status: ('A' for Active; 'I' for Inactive)
REMARK    1  A    between atoms: C10_13  and  O2_14 
REMARK    2  A    between atoms: O2_14  and  C11_15 
REMARK    3  A    between atoms: C11_15  and  C12_16 
ROOT
HETATM    1  C1  UNL     1      21.308   3.489  51.363  1.00  0.00     0.040 C 
HETATM    2  C2  UNL     1      22.665   2.882  51.227  1.00  0.00     0.127 C 
HETATM    3  O1  UNL     1      23.550   3.589  52.085  1.00  0.00    -0.385 OA
HETATM    4  C3  UNL     1      24.521   4.265  51.382  1.00  0.00     0.172 C 
HETATM    5  C4  UNL     1      25.480   3.423  50.613  1.00  0.00     0.056 C 
HETATM    6  C5  UNL     1      26.393   2.597  51.429  1.00  0.00     0.018 C 
HETATM    7  C6  UNL     1      26.860   1.458  51.908  1.00  0.00     0.099 C 
HETATM    8 CL1  UNL     1      28.194   1.085  53.022  1.00  0.00    -0.065 Cl
HETATM    9  N1  UNL     1      26.417   0.148  51.741  1.00  0.00    -0.357 N 
HETATM   10  C7  UNL     1      25.623  -0.334  52.851  1.00  0.00     0.089 C 
HETATM   11  C8  UNL     1      24.549  -0.456  53.545  1.00  0.00     0.019 C 
HETATM   12  C9  UNL     1      23.211  -0.001  53.482  1.00  0.00     0.034 C 
HETATM   13  C10 UNL     1      22.440   0.763  52.674  1.00  0.00     0.053 C 
HETATM   14  C18 UNL     1      22.782   1.451  51.450  1.00  0.00     0.067 C 
HETATM   15  C19 UNL     1      22.085   0.724  50.324  1.00  0.00     0.020 C 
HETATM   16  H10 UNL     1      26.669  -0.372  50.878  1.00  0.00     0.166 HD
ENDROOT
BRANCH  13  17
HETATM   17  O2  UNL     1      21.107   1.124  52.755  1.00  0.00    -0.350 OA
BRANCH  17  18
HETATM   18  C11 UNL     1      20.223   0.251  53.413  1.00  0.00     0.214 C 
BRANCH  18  19
HETATM   19  C12 UNL     1      19.009  -0.051  52.605  1.00  0.00    -0.034 A 
HETATM   20  C13 UNL     1      18.611   0.544  51.426  1.00  0.00     0.009 A 
HETATM   21  C14 UNL     1      17.452   0.147  50.794  1.00  0.00     0.001 A 
HETATM   22  C15 UNL     1      16.635  -0.856  51.296  1.00  0.00     0.000 A 
HETATM   23  C16 UNL     1      17.065  -1.432  52.479  1.00  0.00     0.001 A 
HETATM   24  C17 UNL     1      18.221  -1.058  53.143  1.00  0.00     0.009 A 
ENDBRANCH  18  19
ENDBRANCH  17  18
ENDBRANCH  13  17
TORSDOF 3
ENDMDL
MODEL 9
REMARK VINA RESULT:      -7.2      3.550      5.192
REMARK  3 active torsions:
REMARK  status: ('A' for Active; 'I' for Inactive)
REMARK    1  A    between atoms: C10_13  and  O2_14 
REMARK    2  A    between atoms: O2_14  and  C11_15 
REMARK    3  A    between atoms: C11_15  and  C12_16 
ROOT
HETATM    1  C1  UNL     1      23.508   4.676  52.721  1.00  0.00     0.040 C 
HETATM    2  C2  UNL     1      22.813   4.716  51.401  1.00  0.00     0.127 C 
HETATM    3  O1  UNL     1      23.806   4.746  50.384  1.00  0.00    -0.385 OA
HETATM    4  C3  UNL     1      23.781   5.924  49.672  1.00  0.00     0.172 C 
HETATM    5  C4  UNL     1      22.548   6.183  48.877  1.00  0.00     0.056 C 
HETATM    6  C5  UNL     1      22.332   5.277  47.731  1.00  0.00     0.018 C 
HETATM    7  C6  UNL     1      21.709   4.314  47.075  1.00  0.00     0.099 C 
HETATM    8 CL1  UNL     1      21.985   3.577  45.482  1.00  0.00    -0.065 Cl
HETATM    9  N1  UNL     1      20.643   3.498  47.448  1.00  0.00    -0.357 N 
HETATM   10  C7  UNL     1      21.055   2.187  47.902  1.00  0.00     0.089 C 
HETATM   11  C8  UNL     1      21.512   1.344  48.755  1.00  0.00     0.019 C 
HETATM   12  C9  UNL     1      21.962   1.358  50.096  1.00  0.00     0.034 C 
HETATM   13  C10 UNL     1      22.121   2.253  51.099  1.00  0.00     0.053 C 
HETATM   14  C18 UNL     1      21.841   3.671  51.126  1.00  0.00     0.067 C 
HETATM   15  C19 UNL     1      20.645   3.870  52.027  1.00  0.00     0.020 C 
HETATM   16  H10 UNL     1      19.673   3.862  47.382  1.00  0.00     0.166 HD
ENDROOT
BRANCH  13  17
HETATM   17  O2  UNL     1      22.588   2.104  52.393  1.00  0.00    -0.350 OA
BRANCH  17  18
HETATM   18  C11 UNL     1      22.947   0.815  52.824  1.00  0.00     0.214 C 
BRANCH  18  19
HETATM   19  C12 UNL     1      24.401   0.540  52.660  1.00  0.00    -0.034 A 
HETATM   20  C13 UNL     1      25.321   1.269  51.935  1.00  0.00     0.009 A 
HETATM   21  C14 UNL     1      26.642   0.881  51.884  1.00  0.00     0.001 A 
HETATM   22  C15 UNL     1      27.117  -0.242  52.547  1.00  0.00     0.000 A 
HETATM   23  C16 UNL     1      26.167  -0.949  53.265  1.00  0.00     0.001 A 
HETATM   24  C17 UNL     1      24.831  -0.591  53.338  1.00  0.00     0.009 A 
ENDBRANCH  18  19
ENDBRANCH  17  18
ENDBRANCH  13  17
TORSDOF 3
ENDMDL
