MODEL 1
REMARK VINA RESULT:      -9.9      0.000      0.000
REMARK  2 active torsions:
REMARK  status: ('A' for Active; 'I' for Inactive)
REMARK    1  A    between atoms: C13_17  and  N2_18 
REMARK       I    between atoms: N2_18  and  C14_19 
REMARK       I    between atoms: C14_19  and  N3_21 
REMARK    2  A    between atoms: N3_21  and  C15_22 
ROOT
HETATM    1  C1  UNL     1      26.155   4.349  49.727  1.00  0.00     0.000 C 
HETATM    2  O1  UNL     1      24.866   3.874  50.115  1.00  0.00     0.000 OA
HETATM    3  C2  UNL     1      23.841   3.797  49.194  1.00  0.00    -0.035 A 
HETATM    4  C3  UNL     1      23.534   4.271  50.384  1.00  0.00     0.032 A 
HETATM    5  C4  UNL     1      23.282   4.810  51.801  1.00  0.00     0.072 A 
HETATM    6  C5  UNL     1      22.072   3.931  52.113  1.00  0.00    -0.062 A 
HETATM    7  C6  UNL     1      21.939   5.130  51.606  1.00  0.00     0.154 A 
HETATM    8  O2  UNL     1      21.923   6.366  51.090  1.00  0.00    -0.352 OA
HETATM    9  C7  UNL     1      22.258   6.796  49.756  1.00  0.00     0.387 C 
HETATM   10  N1  UNL     1      22.371   5.850  48.828  1.00  0.00    -0.436 NA
HETATM   11  C8  UNL     1      22.447   5.149  47.860  1.00  0.00     0.187 C 
HETATM   12  C9  UNL     1      22.677   3.737  48.225  1.00  0.00     0.203 C 
HETATM   13  O3  UNL     1      21.473   3.330  48.830  1.00  0.00    -0.372 OA
HETATM   14  C10 UNL     1      21.077   2.084  48.368  1.00  0.00     0.196 C 
HETATM   15  C11 UNL     1      21.169   1.013  49.349  1.00  0.00    -0.003 C 
HETATM   16  C12 UNL     1      21.434   0.592  50.591  1.00  0.00    -0.003 C 
HETATM   17  C13 UNL     1      21.849   1.480  51.746  1.00  0.00     0.044 C 
HETATM   18  C22 UNL     1      22.156   2.567  52.518  1.00  0.00     0.122 C 
ENDROOT
BRANCH  17  19
HETATM   19  N2  UNL     1      22.191   0.707  52.945  1.00  0.00    -0.334 N 
HETATM   20  C14 UNL     1      23.606   0.427  52.906  1.00  0.00     0.321 C 
HETATM   21  O4  UNL     1      24.324   0.850  51.930  1.00  0.00    -0.247 OA
HETATM   22  N3  UNL     1      24.381  -0.308  53.880  1.00  0.00    -0.309 N 
HETATM   23  H17 UNL     1      23.824  -0.675  54.685  1.00  0.00     0.170 HD
HETATM   24  H16 UNL     1      21.844   0.275  53.832  1.00  0.00     0.165 HD
BRANCH  22  25
HETATM   25  C15 UNL     1      25.782  -0.497  53.714  1.00  0.00     0.036 A 
HETATM   26  C16 UNL     1      26.501   0.328  54.580  1.00  0.00     0.030 A 
HETATM   27  C17 UNL     1      27.884   0.307  54.578  1.00  0.00     0.009 A 
HETATM   28  C18 UNL     1      28.508  -0.567  53.678  1.00  0.00    -0.062 A 
HETATM   29  C19 UNL     1      29.992  -0.582  53.682  1.00  0.00     0.048 C 
HETATM   30  C20 UNL     1      27.805  -1.389  52.815  1.00  0.00     0.009 A 
HETATM   31  C21 UNL     1      26.412  -1.350  52.837  1.00  0.00     0.030 A 
ENDBRANCH  22  25
ENDBRANCH  17  19
TORSDOF 2
ENDMDL
MODEL 2
REMARK VINA RESULT:      -8.8      1.525      3.526
REMARK  2 active torsions:
REMARK  status: ('A' for Active; 'I' for Inactive)
REMARK    1  A    between atoms: C13_17  and  N2_18 
REMARK       I    between atoms: N2_18  and  C14_19 
REMARK       I    between atoms: C14_19  and  N3_21 
REMARK    2  A    between atoms: N3_21  and  C15_22 
ROOT
HETATM    1  C1  UNL     1      17.929   3.396  48.961  1.00  0.00     0.000 C 
HETATM    2  O1  UNL     1      19.301   3.366  49.354  1.00  0.00     0.000 OA
HETATM    3  C2  UNL     1      20.078   4.503  49.271  1.00  0.00    -0.035 A 
HETATM    4  C3  UNL     1      20.630   3.378  48.868  1.00  0.00     0.032 A 
HETATM    5  C4  UNL     1      21.180   2.013  48.423  1.00  0.00     0.072 A 
HETATM    6  C5  UNL     1      22.483   2.078  49.219  1.00  0.00    -0.062 A 
HETATM    7  C6  UNL     1      22.414   2.483  47.976  1.00  0.00     0.154 A 
HETATM    8  O2  UNL     1      22.227   2.866  46.707  1.00  0.00    -0.352 OA
HETATM    9  C7  UNL     1      21.556   4.038  46.202  1.00  0.00     0.387 C 
HETATM   10  N1  UNL     1      21.284   5.001  47.079  1.00  0.00    -0.436 NA
HETATM   11  C8  UNL     1      21.024   5.988  47.704  1.00  0.00     0.187 C 
HETATM   12  C9  UNL     1      20.978   5.718  49.155  1.00  0.00     0.203 C 
HETATM   13  O3  UNL     1      22.315   5.452  49.505  1.00  0.00    -0.372 OA
HETATM   14  C10 UNL     1      22.667   6.113  50.673  1.00  0.00     0.196 C 
HETATM   15  C11 UNL     1      22.881   5.246  51.823  1.00  0.00    -0.003 C 
HETATM   16  C12 UNL     1      22.948   4.023  52.361  1.00  0.00    -0.003 C 
HETATM   17  C13 UNL     1      22.767   2.723  51.606  1.00  0.00     0.044 C 
HETATM   18  C22 UNL     1      22.585   1.798  50.613  1.00  0.00     0.122 C 
ENDROOT
BRANCH  17  19
HETATM   19  N2  UNL     1      22.772   1.557  52.497  1.00  0.00    -0.334 N 
HETATM   20  C14 UNL     1      24.146   1.195  52.750  1.00  0.00     0.321 C 
HETATM   21  O4  UNL     1      25.102   1.871  52.224  1.00  0.00    -0.247 OA
HETATM   22  N3  UNL     1      24.628   0.108  53.570  1.00  0.00    -0.309 N 
HETATM   23  H17 UNL     1      23.874  -0.469  54.007  1.00  0.00     0.170 HD
HETATM   24  H16 UNL     1      22.197   0.874  53.041  1.00  0.00     0.165 HD
BRANCH  22  25
HETATM   25  C15 UNL     1      26.024  -0.123  53.739  1.00  0.00     0.036 A 
HETATM   26  C16 UNL     1      26.487  -1.063  52.818  1.00  0.00     0.030 A 
HETATM   27  C17 UNL     1      27.818  -1.439  52.814  1.00  0.00     0.009 A 
HETATM   28  C18 UNL     1      28.654  -0.838  53.763  1.00  0.00    -0.062 A 
HETATM   29  C19 UNL     1      30.081  -1.247  53.752  1.00  0.00     0.048 C 
HETATM   30  C20 UNL     1      28.205   0.096  54.681  1.00  0.00     0.009 A 
HETATM   31  C21 UNL     1      26.859   0.458  54.665  1.00  0.00     0.030 A 
ENDBRANCH  22  25
ENDBRANCH  17  19
TORSDOF 2
ENDMDL
MODEL 3
REMARK VINA RESULT:      -7.9      2.193      4.088
REMARK  2 active torsions:
REMARK  status: ('A' for Active; 'I' for Inactive)
REMARK    1  A    between atoms: C13_17  and  N2_18 
REMARK       I    between atoms: N2_18  and  C14_19 
REMARK       I    between atoms: C14_19  and  N3_21 
REMARK    2  A    between atoms: N3_21  and  C15_22 
ROOT
HETATM    1  C1  UNL     1      19.360   6.808  48.800  1.00  0.00     0.000 C 
HETATM    2  O1  UNL     1      20.655   6.219  48.927  1.00  0.00     0.000 OA
HETATM    3  C2  UNL     1      21.697   6.642  48.128  1.00  0.00    -0.035 A 
HETATM    4  C3  UNL     1      21.578   5.343  48.307  1.00  0.00     0.032 A 
HETATM    5  C4  UNL     1      21.350   3.848  48.580  1.00  0.00     0.072 A 
HETATM    6  C5  UNL     1      22.782   3.523  49.001  1.00  0.00    -0.062 A 
HETATM    7  C6  UNL     1      22.381   3.384  47.763  1.00  0.00     0.154 A 
HETATM    8  O2  UNL     1      21.861   3.281  46.534  1.00  0.00    -0.352 OA
HETATM    9  C7  UNL     1      21.537   4.325  45.594  1.00  0.00     0.387 C 
HETATM   10  N1  UNL     1      22.019   5.538  45.851  1.00  0.00    -0.436 NA
HETATM   11  C8  UNL     1      22.420   6.666  45.885  1.00  0.00     0.187 C 
HETATM   12  C9  UNL     1      22.859   7.048  47.242  1.00  0.00     0.203 C 
HETATM   13  O3  UNL     1      24.019   6.281  47.464  1.00  0.00    -0.372 OA
HETATM   14  C10 UNL     1      25.026   7.051  48.027  1.00  0.00     0.196 C 
HETATM   15  C11 UNL     1      25.340   6.727  49.411  1.00  0.00    -0.003 C 
HETATM   16  C12 UNL     1      25.153   5.974  50.501  1.00  0.00    -0.003 C 
HETATM   17  C13 UNL     1      24.214   4.790  50.596  1.00  0.00     0.044 C 
HETATM   18  C22 UNL     1      23.319   3.798  50.292  1.00  0.00     0.122 C 
ENDROOT
BRANCH  17  19
HETATM   19  N2  UNL     1      24.137   4.249  51.957  1.00  0.00    -0.334 N 
HETATM   20  C14 UNL     1      25.240   3.335  52.136  1.00  0.00     0.321 C 
HETATM   21  O4  UNL     1      26.074   3.130  51.182  1.00  0.00    -0.247 OA
HETATM   22  N3  UNL     1      25.560   2.570  53.320  1.00  0.00    -0.309 N 
HETATM   23  H17 UNL     1      24.894   2.706  54.113  1.00  0.00     0.170 HD
HETATM   24  H16 UNL     1      23.623   4.250  52.868  1.00  0.00     0.165 HD
BRANCH  22  25
HETATM   25  C15 UNL     1      26.695   1.711  53.356  1.00  0.00     0.036 A 
HETATM   26  C16 UNL     1      26.322   0.385  53.137  1.00  0.00     0.030 A 
HETATM   27  C17 UNL     1      27.276  -0.618  53.138  1.00  0.00     0.009 A 
HETATM   28  C18 UNL     1      28.604  -0.236  53.365  1.00  0.00    -0.062 A 
HETATM   29  C19 UNL     1      29.620  -1.318  53.365  1.00  0.00     0.048 C 
HETATM   30  C20 UNL     1      28.984   1.077  53.583  1.00  0.00     0.009 A 
HETATM   31  C21 UNL     1      28.005   2.069  53.577  1.00  0.00     0.030 A 
ENDBRANCH  22  25
ENDBRANCH  17  19
TORSDOF 2
ENDMDL
MODEL 4
REMARK VINA RESULT:      -7.9      8.677     10.292
REMARK  2 active torsions:
REMARK  status: ('A' for Active; 'I' for Inactive)
REMARK    1  A    between atoms: C13_17  and  N2_18 
REMARK       I    between atoms: N2_18  and  C14_19 
REMARK       I    between atoms: C14_19  and  N3_21 
REMARK    2  A    between atoms: N3_21  and  C15_22 
ROOT
HETATM    1  C1  UNL     1      32.612  11.458  45.882  1.00  0.00     0.000 C 
HETATM    2  O1  UNL     1      31.401  10.961  46.453  1.00  0.00     0.000 OA
HETATM    3  C2  UNL     1      30.193  11.164  45.818  1.00  0.00    -0.035 A 
HETATM    4  C3  UNL     1      30.213  11.340  47.123  1.00  0.00     0.032 A 
HETATM    5  C4  UNL     1      30.345  11.521  48.644  1.00  0.00     0.072 A 
HETATM    6  C5  UNL     1      29.152  10.648  49.030  1.00  0.00    -0.062 A 
HETATM    7  C6  UNL     1      29.034  11.941  48.862  1.00  0.00     0.154 A 
HETATM    8  O2  UNL     1      29.032  13.265  48.665  1.00  0.00    -0.352 OA
HETATM    9  C7  UNL     1      29.099  13.998  47.426  1.00  0.00     0.387 C 
HETATM   10  N1  UNL     1      28.901  13.309  46.306  1.00  0.00    -0.436 NA
HETATM   11  C8  UNL     1      28.682  12.869  45.214  1.00  0.00     0.187 C 
HETATM   12  C9  UNL     1      28.840  11.401  45.176  1.00  0.00     0.203 C 
HETATM   13  O3  UNL     1      27.768  10.912  45.946  1.00  0.00    -0.372 OA
HETATM   14  C10 UNL     1      27.151   9.841  45.319  1.00  0.00     0.196 C 
HETATM   15  C11 UNL     1      27.348   8.555  45.974  1.00  0.00    -0.003 C 
HETATM   16  C12 UNL     1      27.842   7.827  46.982  1.00  0.00    -0.003 C 
HETATM   17  C13 UNL     1      28.597   8.378  48.173  1.00  0.00     0.044 C 
HETATM   18  C22 UNL     1      29.182   9.224  49.077  1.00  0.00     0.122 C 
ENDROOT
BRANCH  17  19
HETATM   19  N2  UNL     1      29.118   7.317  49.041  1.00  0.00    -0.334 N 
HETATM   20  C14 UNL     1      30.281   6.749  48.401  1.00  0.00     0.321 C 
HETATM   21  O4  UNL     1      30.682   7.199  47.268  1.00  0.00    -0.247 OA
HETATM   22  N3  UNL     1      31.114   5.675  48.892  1.00  0.00    -0.309 N 
HETATM   23  H17 UNL     1      30.808   5.279  49.810  1.00  0.00     0.170 HD
HETATM   24  H16 UNL     1      29.010   6.795  49.941  1.00  0.00     0.165 HD
BRANCH  22  25
HETATM   25  C15 UNL     1      32.244   5.224  48.153  1.00  0.00     0.036 A 
HETATM   26  C16 UNL     1      31.887   4.203  47.273  1.00  0.00     0.030 A 
HETATM   27  C17 UNL     1      32.841   3.616  46.461  1.00  0.00     0.009 A 
HETATM   28  C18 UNL     1      34.154   4.093  46.570  1.00  0.00    -0.062 A 
HETATM   29  C19 UNL     1      35.171   3.457  45.695  1.00  0.00     0.048 C 
HETATM   30  C20 UNL     1      34.518   5.106  47.440  1.00  0.00     0.009 A 
HETATM   31  C21 UNL     1      33.539   5.681  48.247  1.00  0.00     0.030 A 
ENDBRANCH  22  25
ENDBRANCH  17  19
TORSDOF 2
ENDMDL
MODEL 5
REMARK VINA RESULT:      -7.9      3.191      6.468
REMARK  2 active torsions:
REMARK  status: ('A' for Active; 'I' for Inactive)
REMARK    1  A    between atoms: C13_17  and  N2_18 
REMARK       I    between atoms: N2_18  and  C14_19 
REMARK       I    between atoms: C14_19  and  N3_21 
REMARK    2  A    between atoms: N3_21  and  C15_22 
ROOT
HETATM    1  C1  UNL     1      21.947   3.251  47.159  1.00  0.00     0.000 C 
HETATM    2  O1  UNL     1      22.000   3.364  48.582  1.00  0.00     0.000 OA
HETATM    3  C2  UNL     1      21.926   2.239  49.377  1.00  0.00    -0.035 A 
HETATM    4  C3  UNL     1      21.226   3.286  49.764  1.00  0.00     0.032 A 
HETATM    5  C4  UNL     1      20.448   4.561  50.126  1.00  0.00     0.072 A 
HETATM    6  C5  UNL     1      20.918   4.649  51.578  1.00  0.00    -0.062 A 
HETATM    7  C6  UNL     1      19.809   4.036  51.250  1.00  0.00     0.154 A 
HETATM    8  O2  UNL     1      18.699   3.439  50.799  1.00  0.00    -0.352 OA
HETATM    9  C7  UNL     1      18.563   2.189  50.093  1.00  0.00     0.387 C 
HETATM   10  N1  UNL     1      19.625   1.388  50.077  1.00  0.00    -0.436 NA
HETATM   11  C8  UNL     1      20.447   0.519  50.018  1.00  0.00     0.187 C 
HETATM   12  C9  UNL     1      21.805   1.034  50.289  1.00  0.00     0.203 C 
HETATM   13  O3  UNL     1      21.785   1.372  51.655  1.00  0.00    -0.372 OA
HETATM   14  C10 UNL     1      22.931   0.927  52.297  1.00  0.00     0.196 C 
HETATM   15  C11 UNL     1      23.841   1.980  52.722  1.00  0.00    -0.003 C 
HETATM   16  C12 UNL     1      24.140   3.278  52.846  1.00  0.00    -0.003 C 
HETATM   17  C13 UNL     1      23.245   4.428  52.430  1.00  0.00     0.044 C 
HETATM   18  C22 UNL     1      22.184   5.165  51.980  1.00  0.00     0.122 C 
ENDROOT
BRANCH  17  19
HETATM   19  N2  UNL     1      23.907   5.729  52.577  1.00  0.00    -0.334 N 
HETATM   20  C14 UNL     1      24.466   6.091  51.297  1.00  0.00     0.321 C 
HETATM   21  O4  UNL     1      24.326   5.314  50.285  1.00  0.00    -0.247 OA
HETATM   22  N3  UNL     1      25.207   7.289  50.972  1.00  0.00    -0.309 N 
HETATM   23  H17 UNL     1      25.348   7.940  51.778  1.00  0.00     0.170 HD
HETATM   24  H16 UNL     1      24.142   6.520  53.220  1.00  0.00     0.165 HD
BRANCH  22  25
HETATM   25  C15 UNL     1      25.691   7.519  49.653  1.00  0.00     0.036 A 
HETATM   26  C16 UNL     1      24.847   8.386  48.959  1.00  0.00     0.030 A 
HETATM   27  C17 UNL     1      25.131   8.739  47.651  1.00  0.00     0.009 A 
HETATM   28  C18 UNL     1      26.285   8.190  47.078  1.00  0.00    -0.062 A 
HETATM   29  C19 UNL     1      26.582   8.573  45.675  1.00  0.00     0.048 C 
HETATM   30  C20 UNL     1      27.129   7.329  47.758  1.00  0.00     0.009 A 
HETATM   31  C21 UNL     1      26.821   6.989  49.074  1.00  0.00     0.030 A 
ENDBRANCH  22  25
ENDBRANCH  17  19
TORSDOF 2
ENDMDL
MODEL 6
REMARK VINA RESULT:      -7.8      2.239      4.329
REMARK  2 active torsions:
REMARK  status: ('A' for Active; 'I' for Inactive)
REMARK    1  A    between atoms: C13_17  and  N2_18 
REMARK       I    between atoms: N2_18  and  C14_19 
REMARK       I    between atoms: C14_19  and  N3_21 
REMARK    2  A    between atoms: N3_21  and  C15_22 
ROOT
HETATM    1  C1  UNL     1      20.603   3.140  52.255  1.00  0.00     0.000 C 
HETATM    2  O1  UNL     1      21.558   3.777  51.405  1.00  0.00     0.000 OA
HETATM    3  C2  UNL     1      21.407   5.102  51.052  1.00  0.00    -0.035 A 
HETATM    4  C3  UNL     1      21.773   4.272  50.097  1.00  0.00     0.032 A 
HETATM    5  C4  UNL     1      22.197   3.222  49.058  1.00  0.00     0.072 A 
HETATM    6  C5  UNL     1      23.406   3.985  48.517  1.00  0.00    -0.062 A 
HETATM    7  C6  UNL     1      22.223   4.089  47.966  1.00  0.00     0.154 A 
HETATM    8  O2  UNL     1      20.974   4.117  47.486  1.00  0.00    -0.352 OA
HETATM    9  C7  UNL     1      19.809   4.773  48.026  1.00  0.00     0.387 C 
HETATM   10  N1  UNL     1      20.013   5.665  48.991  1.00  0.00    -0.436 NA
HETATM   11  C8  UNL     1      20.012   6.539  49.810  1.00  0.00     0.187 C 
HETATM   12  C9  UNL     1      21.256   6.543  50.604  1.00  0.00     0.203 C 
HETATM   13  O3  UNL     1      22.252   6.948  49.695  1.00  0.00    -0.372 OA
HETATM   14  C10 UNL     1      23.092   7.894  50.263  1.00  0.00     0.196 C 
HETATM   15  C11 UNL     1      24.445   7.428  50.526  1.00  0.00    -0.003 C 
HETATM   16  C12 UNL     1      25.381   6.474  50.462  1.00  0.00    -0.003 C 
HETATM   17  C13 UNL     1      25.196   5.109  49.830  1.00  0.00     0.044 C 
HETATM   18  C22 UNL     1      24.676   4.034  49.161  1.00  0.00     0.122 C 
ENDROOT
BRANCH  17  19
HETATM   19  N2  UNL     1      26.363   4.242  50.030  1.00  0.00    -0.334 N 
HETATM   20  C14 UNL     1      26.055   3.321  51.098  1.00  0.00     0.321 C 
HETATM   21  O4  UNL     1      24.912   3.362  51.680  1.00  0.00    -0.247 OA
HETATM   22  N3  UNL     1      26.909   2.287  51.636  1.00  0.00    -0.309 N 
HETATM   23  H17 UNL     1      27.852   2.232  51.189  1.00  0.00     0.170 HD
HETATM   24  H16 UNL     1      27.331   3.998  49.719  1.00  0.00     0.165 HD
BRANCH  22  25
HETATM   25  C15 UNL     1      26.463   1.438  52.689  1.00  0.00     0.036 A 
HETATM   26  C16 UNL     1      25.416   0.622  52.261  1.00  0.00     0.030 A 
HETATM   27  C17 UNL     1      24.830  -0.277  53.133  1.00  0.00     0.009 A 
HETATM   28  C18 UNL     1      25.333  -0.320  54.440  1.00  0.00    -0.062 A 
HETATM   29  C19 UNL     1      24.698  -1.287  55.370  1.00  0.00     0.048 C 
HETATM   30  C20 UNL     1      26.372   0.485  54.875  1.00  0.00     0.009 A 
HETATM   31  C21 UNL     1      26.946   1.382  53.976  1.00  0.00     0.030 A 
ENDBRANCH  22  25
ENDBRANCH  17  19
TORSDOF 2
ENDMDL
MODEL 7
REMARK VINA RESULT:      -7.7      4.711      7.551
REMARK  2 active torsions:
REMARK  status: ('A' for Active; 'I' for Inactive)
REMARK    1  A    between atoms: C13_17  and  N2_18 
REMARK       I    between atoms: N2_18  and  C14_19 
REMARK       I    between atoms: C14_19  and  N3_21 
REMARK    2  A    between atoms: N3_21  and  C15_22 
ROOT
HETATM    1  C1  UNL     1      29.405   8.958  44.969  1.00  0.00     0.000 C 
HETATM    2  O1  UNL     1      28.924   8.365  46.175  1.00  0.00     0.000 OA
HETATM    3  C2  UNL     1      28.987   9.055  47.368  1.00  0.00    -0.035 A 
HETATM    4  C3  UNL     1      29.324   7.783  47.402  1.00  0.00     0.032 A 
HETATM    5  C4  UNL     1      29.696   6.293  47.331  1.00  0.00     0.072 A 
HETATM    6  C5  UNL     1      28.820   5.835  48.497  1.00  0.00    -0.062 A 
HETATM    7  C6  UNL     1      30.075   6.166  48.667  1.00  0.00     0.154 A 
HETATM    8  O2  UNL     1      31.363   6.527  48.722  1.00  0.00    -0.352 OA
HETATM    9  C7  UNL     1      31.941   7.845  48.645  1.00  0.00     0.387 C 
HETATM   10  N1  UNL     1      31.110   8.876  48.772  1.00  0.00    -0.436 NA
HETATM   11  C8  UNL     1      30.528   9.910  48.932  1.00  0.00     0.187 C 
HETATM   12  C9  UNL     1      29.077   9.761  48.708  1.00  0.00     0.203 C 
HETATM   13  O3  UNL     1      28.635   8.967  49.783  1.00  0.00    -0.372 OA
HETATM   14  C10 UNL     1      27.465   9.473  50.329  1.00  0.00     0.196 C 
HETATM   15  C11 UNL     1      26.281   8.659  50.097  1.00  0.00    -0.003 C 
HETATM   16  C12 UNL     1      25.707   7.554  49.606  1.00  0.00    -0.003 C 
HETATM   17  C13 UNL     1      26.438   6.419  48.919  1.00  0.00     0.044 C 
HETATM   18  C22 UNL     1      27.416   5.611  48.404  1.00  0.00     0.122 C 
ENDROOT
BRANCH  17  19
HETATM   19  N2  UNL     1      25.518   5.411  48.381  1.00  0.00    -0.334 N 
HETATM   20  C14 UNL     1      25.208   4.480  49.440  1.00  0.00     0.321 C 
HETATM   21  O4  UNL     1      25.718   4.633  50.608  1.00  0.00    -0.247 OA
HETATM   22  N3  UNL     1      24.344   3.324  49.365  1.00  0.00    -0.309 N 
HETATM   23  H17 UNL     1      23.919   3.164  48.423  1.00  0.00     0.170 HD
HETATM   24  H16 UNL     1      24.976   5.080  47.550  1.00  0.00     0.165 HD
BRANCH  22  25
HETATM   25  C15 UNL     1      24.121   2.497  50.503  1.00  0.00     0.036 A 
HETATM   26  C16 UNL     1      22.767   2.191  50.638  1.00  0.00     0.030 A 
HETATM   27  C17 UNL     1      22.331   1.402  51.686  1.00  0.00     0.009 A 
HETATM   28  C18 UNL     1      23.302   0.937  52.583  1.00  0.00    -0.062 A 
HETATM   29  C19 UNL     1      22.825   0.091  53.706  1.00  0.00     0.048 C 
HETATM   30  C20 UNL     1      24.648   1.234  52.458  1.00  0.00     0.009 A 
HETATM   31  C21 UNL     1      25.062   2.032  51.393  1.00  0.00     0.030 A 
ENDBRANCH  22  25
ENDBRANCH  17  19
TORSDOF 2
ENDMDL
MODEL 8
REMARK VINA RESULT:      -7.6     22.333     25.650
REMARK  2 active torsions:
REMARK  status: ('A' for Active; 'I' for Inactive)
REMARK    1  A    between atoms: C13_17  and  N2_18 
REMARK       I    between atoms: N2_18  and  C14_19 
REMARK       I    between atoms: C14_19  and  N3_21 
REMARK    2  A    between atoms: N3_21  and  C15_22 
ROOT
HETATM    1  C1  UNL     1      41.208  -4.695  69.019  1.00  0.00     0.000 C 
HETATM    2  O1  UNL     1      41.251  -3.267  69.037  1.00  0.00     0.000 OA
HETATM    3  C2  UNL     1      40.426  -2.553  69.881  1.00  0.00    -0.035 A 
HETATM    4  C3  UNL     1      40.554  -2.098  68.652  1.00  0.00     0.032 A 
HETATM    5  C4  UNL     1      40.772  -1.652  67.197  1.00  0.00     0.072 A 
HETATM    6  C5  UNL     1      41.114  -0.195  67.506  1.00  0.00    -0.062 A 
HETATM    7  C6  UNL     1      39.890  -0.572  67.234  1.00  0.00     0.154 A 
HETATM    8  O2  UNL     1      38.682  -1.069  66.943  1.00  0.00    -0.352 OA
HETATM    9  C7  UNL     1      37.804  -1.862  67.767  1.00  0.00     0.387 C 
HETATM   10  N1  UNL     1      38.091  -1.927  69.064  1.00  0.00    -0.436 NA
HETATM   11  C8  UNL     1      38.155  -2.042  70.254  1.00  0.00     0.187 C 
HETATM   12  C9  UNL     1      39.506  -1.728  70.760  1.00  0.00     0.203 C 
HETATM   13  O3  UNL     1      39.643  -0.341  70.558  1.00  0.00    -0.372 OA
HETATM   14  C10 UNL     1      40.193   0.274  71.673  1.00  0.00     0.196 C 
HETATM   15  C11 UNL     1      41.546   0.777  71.487  1.00  0.00    -0.003 C 
HETATM   16  C12 UNL     1      42.609   0.993  70.704  1.00  0.00    -0.003 C 
HETATM   17  C13 UNL     1      42.695   0.653  69.231  1.00  0.00     0.044 C 
HETATM   18  C22 UNL     1      42.390   0.249  67.959  1.00  0.00     0.122 C 
ENDROOT
BRANCH  17  19
HETATM   19  N2  UNL     1      44.035   0.894  68.682  1.00  0.00    -0.334 N 
HETATM   20  C14 UNL     1      44.036   2.201  68.068  1.00  0.00     0.321 C 
HETATM   21  O4  UNL     1      42.976   2.924  68.080  1.00  0.00    -0.247 OA
HETATM   22  N3  UNL     1      45.139   2.853  67.401  1.00  0.00    -0.309 N 
HETATM   23  H17 UNL     1      46.017   2.287  67.365  1.00  0.00     0.170 HD
HETATM   24  H16 UNL     1      45.004   0.522  68.553  1.00  0.00     0.165 HD
BRANCH  22  25
HETATM   25  C15 UNL     1      44.997   4.158  66.849  1.00  0.00     0.036 A 
HETATM   26  C16 UNL     1      44.958   4.107  65.455  1.00  0.00     0.030 A 
HETATM   27  C17 UNL     1      44.830   5.270  64.717  1.00  0.00     0.009 A 
HETATM   28  C18 UNL     1      44.744   6.473  65.430  1.00  0.00    -0.062 A 
HETATM   29  C19 UNL     1      44.608   7.716  64.630  1.00  0.00     0.048 C 
HETATM   30  C20 UNL     1      44.781   6.535  66.812  1.00  0.00     0.009 A 
HETATM   31  C21 UNL     1      44.910   5.349  67.533  1.00  0.00     0.030 A 
ENDBRANCH  22  25
ENDBRANCH  17  19
TORSDOF 2
ENDMDL
MODEL 9
REMARK VINA RESULT:      -7.6      5.750      7.447
REMARK  2 active torsions:
REMARK  status: ('A' for Active; 'I' for Inactive)
REMARK    1  A    between atoms: C13_17  and  N2_18 
REMARK       I    between atoms: N2_18  and  C14_19 
REMARK       I    between atoms: C14_19  and  N3_21 
REMARK    2  A    between atoms: N3_21  and  C15_22 
ROOT
HETATM    1  C1  UNL     1      12.879   2.708  49.121  1.00  0.00     0.000 C 
HETATM    2  O1  UNL     1      14.022   2.509  49.955  1.00  0.00     0.000 OA
HETATM    3  C2  UNL     1      13.968   1.630  51.017  1.00  0.00    -0.035 A 
HETATM    4  C3  UNL     1      14.566   2.783  51.232  1.00  0.00     0.032 A 
HETATM    5  C4  UNL     1      15.242   4.157  51.378  1.00  0.00     0.072 A 
HETATM    6  C5  UNL     1      16.550   3.648  51.983  1.00  0.00    -0.062 A 
HETATM    7  C6  UNL     1      15.549   4.034  52.733  1.00  0.00     0.154 A 
HETATM    8  O2  UNL     1      14.464   4.452  53.397  1.00  0.00    -0.352 OA
HETATM    9  C7  UNL     1      13.201   3.784  53.585  1.00  0.00     0.387 C 
HETATM   10  N1  UNL     1      13.151   2.491  53.275  1.00  0.00    -0.436 NA
HETATM   11  C8  UNL     1      12.941   1.323  53.116  1.00  0.00     0.187 C 
HETATM   12  C9  UNL     1      13.940   0.707  52.220  1.00  0.00     0.203 C 
HETATM   13  O3  UNL     1      15.136   0.726  52.961  1.00  0.00    -0.372 OA
HETATM   14  C10 UNL     1      15.803  -0.486  52.864  1.00  0.00     0.196 C 
HETATM   15  C11 UNL     1      17.043  -0.441  52.103  1.00  0.00    -0.003 C 
HETATM   16  C12 UNL     1      17.962   0.248  51.417  1.00  0.00    -0.003 C 
HETATM   17  C13 UNL     1      17.944   1.746  51.189  1.00  0.00     0.044 C 
HETATM   18  C22 UNL     1      17.612   3.073  51.226  1.00  0.00     0.122 C 
ENDROOT
BRANCH  17  19
HETATM   19  N2  UNL     1      19.019   2.184  50.292  1.00  0.00    -0.334 N 
HETATM   20  C14 UNL     1      20.240   2.254  51.059  1.00  0.00     0.321 C 
HETATM   21  O4  UNL     1      20.240   1.949  52.306  1.00  0.00    -0.247 OA
HETATM   22  N3  UNL     1      21.550   2.641  50.587  1.00  0.00    -0.309 N 
HETATM   23  H17 UNL     1      21.582   2.905  49.576  1.00  0.00     0.170 HD
HETATM   24  H16 UNL     1      19.283   2.462  49.319  1.00  0.00     0.165 HD
BRANCH  22  25
HETATM   25  C15 UNL     1      22.673   2.651  51.462  1.00  0.00     0.036 A 
HETATM   26  C16 UNL     1      23.388   1.457  51.367  1.00  0.00     0.030 A 
HETATM   27  C17 UNL     1      24.517   1.255  52.141  1.00  0.00     0.009 A 
HETATM   28  C18 UNL     1      24.893   2.292  53.004  1.00  0.00    -0.062 A 
HETATM   29  C19 UNL     1      26.105   2.068  53.831  1.00  0.00     0.048 C 
HETATM   30  C20 UNL     1      24.191   3.481  53.105  1.00  0.00     0.009 A 
HETATM   31  C21 UNL     1      23.057   3.660  52.315  1.00  0.00     0.030 A 
ENDBRANCH  22  25
ENDBRANCH  17  19
TORSDOF 2
ENDMDL
