MODEL 1
REMARK VINA RESULT:      -8.2      0.000      0.000
REMARK  4 active torsions:
REMARK  status: ('A' for Active; 'I' for Inactive)
REMARK    1  A    between atoms: C1_2  and  N1_3 
REMARK    2  A    between atoms: N1_3  and  C2_4 
REMARK    3  A    between atoms: C7_11  and  N4_12 
REMARK    4  A    between atoms: N4_12  and  C8_13 
ROOT
HETATM    1  C2  UNL     1      22.341   0.145  52.510  1.00  0.00     0.035 A 
HETATM    2  C3  UNL     1      21.577   0.336  51.381  1.00  0.00     0.032 A 
HETATM    3  C4  UNL     1      22.005   1.233  50.421  1.00  0.00     0.035 A 
HETATM    4  C5  UNL     1      23.175   1.894  50.637  1.00  0.00     0.072 A 
HETATM    5  N2  UNL     1      23.586   2.779  49.678  1.00  0.00    -0.241 NA
HETATM    6  C6  UNL     1      24.741   3.462  49.845  1.00  0.00     0.236 A 
HETATM    7  N3  UNL     1      25.526   3.322  50.915  1.00  0.00    -0.224 NA
HETATM    8  C7  UNL     1      25.172   2.469  51.886  1.00  0.00     0.142 A 
HETATM    9  C14 UNL     1      24.000   1.764  51.734  1.00  0.00     0.041 A 
HETATM   10  C15 UNL     1      23.512   0.862  52.640  1.00  0.00     0.047 A 
ENDROOT
BRANCH   8  11
HETATM   11  N4  UNL     1      25.951   2.279  53.032  1.00  0.00    -0.340 N 
HETATM   12  H6  UNL     1      25.766   2.797  53.913  1.00  0.00     0.167 HD
BRANCH  11  13
HETATM   13  C8  UNL     1      27.042   1.426  53.224  1.00  0.00     0.035 A 
HETATM   14  C9  UNL     1      28.261   1.841  53.709  1.00  0.00     0.032 A 
HETATM   15  C10 UNL     1      29.355   1.040  53.927  1.00  0.00     0.046 A 
HETATM   16  C11 UNL     1      29.275  -0.305  53.653  1.00  0.00     0.138 A 
HETATM   17  F1  UNL     1      30.283  -1.189  53.827  1.00  0.00    -0.204 F 
HETATM   18  C12 UNL     1      28.087  -0.799  53.163  1.00  0.00     0.074 A 
HETATM   19 CL1  UNL     1      27.919  -2.494  52.794  1.00  0.00    -0.081 Cl
HETATM   20  C13 UNL     1      27.037   0.068  52.972  1.00  0.00     0.056 A 
ENDBRANCH  11  13
ENDBRANCH   8  11
BRANCH   1  21
HETATM   21  N1  UNL     1      21.820  -0.783  53.421  1.00  0.00    -0.334 N 
HETATM   22  H2  UNL     1      21.365  -1.463  52.796  1.00  0.00     0.168 HD
BRANCH  21  23
HETATM   23  C1  UNL     1      21.824  -0.909  54.848  1.00  0.00     0.353 C 
HETATM   24  O1  UNL     1      22.583  -1.659  55.508  1.00  0.00    -0.283 OA
ENDBRANCH  21  23
ENDBRANCH   1  21
TORSDOF 4
ENDMDL
MODEL 2
REMARK VINA RESULT:      -8.1      2.849      4.250
REMARK  4 active torsions:
REMARK  status: ('A' for Active; 'I' for Inactive)
REMARK    1  A    between atoms: C1_2  and  N1_3 
REMARK    2  A    between atoms: N1_3  and  C2_4 
REMARK    3  A    between atoms: C7_11  and  N4_12 
REMARK    4  A    between atoms: N4_12  and  C8_13 
ROOT
HETATM    1  C2  UNL     1      20.554   0.419  51.379  1.00  0.00     0.035 A 
HETATM    2  C3  UNL     1      19.528  -0.016  52.188  1.00  0.00     0.032 A 
HETATM    3  C4  UNL     1      19.828  -0.579  53.413  1.00  0.00     0.035 A 
HETATM    4  C5  UNL     1      21.138  -0.680  53.770  1.00  0.00     0.072 A 
HETATM    5  N2  UNL     1      21.419  -1.240  54.986  1.00  0.00    -0.241 NA
HETATM    6  C6  UNL     1      22.705  -1.365  55.386  1.00  0.00     0.236 A 
HETATM    7  N3  UNL     1      23.743  -0.964  54.649  1.00  0.00    -0.224 NA
HETATM    8  C7  UNL     1      23.526  -0.408  53.450  1.00  0.00     0.142 A 
HETATM    9  C14 UNL     1      22.224  -0.272  53.024  1.00  0.00     0.041 A 
HETATM   10  C15 UNL     1      21.850   0.274  51.827  1.00  0.00     0.047 A 
ENDROOT
BRANCH   8  11
HETATM   11  N4  UNL     1      24.571   0.031  52.631  1.00  0.00    -0.340 N 
HETATM   12  H6  UNL     1      24.396   0.461  51.702  1.00  0.00     0.167 HD
BRANCH  11  13
HETATM   13  C8  UNL     1      25.949  -0.005  52.866  1.00  0.00     0.035 A 
HETATM   14  C9  UNL     1      26.707  -1.151  52.793  1.00  0.00     0.032 A 
HETATM   15  C10 UNL     1      28.062  -1.234  53.001  1.00  0.00     0.046 A 
HETATM   16  C11 UNL     1      28.770  -0.097  53.312  1.00  0.00     0.138 A 
HETATM   17  F1  UNL     1      30.102  -0.055  53.538  1.00  0.00    -0.204 F 
HETATM   18  C12 UNL     1      28.082   1.092  53.404  1.00  0.00     0.074 A 
HETATM   19 CL1  UNL     1      28.920   2.570  53.796  1.00  0.00    -0.081 Cl
HETATM   20  C13 UNL     1      26.725   1.092  53.182  1.00  0.00     0.056 A 
ENDBRANCH  11  13
ENDBRANCH   8  11
BRANCH   1  21
HETATM   21  N1  UNL     1      20.145   0.974  50.159  1.00  0.00    -0.334 N 
HETATM   22  H2  UNL     1      19.120   0.925  50.236  1.00  0.00     0.168 HD
BRANCH  21  23
HETATM   23  C1  UNL     1      20.821   1.508  49.016  1.00  0.00     0.353 C 
HETATM   24  O1  UNL     1      21.643   0.885  48.301  1.00  0.00    -0.283 OA
ENDBRANCH  21  23
ENDBRANCH   1  21
TORSDOF 4
ENDMDL
MODEL 3
REMARK VINA RESULT:      -8.0      3.787      5.619
REMARK  4 active torsions:
REMARK  status: ('A' for Active; 'I' for Inactive)
REMARK    1  A    between atoms: C1_2  and  N1_3 
REMARK    2  A    between atoms: N1_3  and  C2_4 
REMARK    3  A    between atoms: C7_11  and  N4_12 
REMARK    4  A    between atoms: N4_12  and  C8_13 
ROOT
HETATM    1  C2  UNL     1      24.483  -0.281  53.558  1.00  0.00     0.035 A 
HETATM    2  C3  UNL     1      25.046  -0.589  54.777  1.00  0.00     0.032 A 
HETATM    3  C4  UNL     1      26.272  -0.045  55.110  1.00  0.00     0.035 A 
HETATM    4  C5  UNL     1      26.874   0.778  54.210  1.00  0.00     0.072 A 
HETATM    5  N2  UNL     1      28.087   1.309  54.553  1.00  0.00    -0.241 NA
HETATM    6  C6  UNL     1      28.728   2.133  53.693  1.00  0.00     0.236 A 
HETATM    7  N3  UNL     1      28.236   2.470  52.499  1.00  0.00    -0.224 NA
HETATM    8  C7  UNL     1      27.052   1.979  52.111  1.00  0.00     0.142 A 
HETATM    9  C14 UNL     1      26.384   1.139  52.972  1.00  0.00     0.041 A 
HETATM   10  C15 UNL     1      25.170   0.563  52.713  1.00  0.00     0.047 A 
ENDROOT
BRANCH   8  11
HETATM   11  N4  UNL     1      26.484   2.294  50.872  1.00  0.00    -0.340 N 
HETATM   12  H6  UNL     1      26.198   1.558  50.197  1.00  0.00     0.167 HD
BRANCH  11  13
HETATM   13  C8  UNL     1      26.202   3.550  50.326  1.00  0.00     0.035 A 
HETATM   14  C9  UNL     1      26.934   4.125  49.313  1.00  0.00     0.032 A 
HETATM   15  C10 UNL     1      26.687   5.347  48.735  1.00  0.00     0.046 A 
HETATM   16  C11 UNL     1      25.624   6.100  49.174  1.00  0.00     0.138 A 
HETATM   17  F1  UNL     1      25.284   7.314  48.684  1.00  0.00    -0.204 F 
HETATM   18  C12 UNL     1      24.842   5.594  50.188  1.00  0.00     0.074 A 
HETATM   19 CL1  UNL     1      23.480   6.499  50.790  1.00  0.00    -0.081 Cl
HETATM   20  C13 UNL     1      25.155   4.362  50.713  1.00  0.00     0.056 A 
ENDBRANCH  11  13
ENDBRANCH   8  11
BRANCH   1  21
HETATM   21  N1  UNL     1      23.241  -0.883  53.317  1.00  0.00    -0.334 N 
HETATM   22  H2  UNL     1      23.371  -1.266  52.369  1.00  0.00     0.168 HD
BRANCH  21  23
HETATM   23  C1  UNL     1      22.025  -1.023  54.059  1.00  0.00     0.353 C 
HETATM   24  O1  UNL     1      21.787  -1.926  54.898  1.00  0.00    -0.283 OA
ENDBRANCH  21  23
ENDBRANCH   1  21
TORSDOF 4
ENDMDL
MODEL 4
REMARK VINA RESULT:      -7.8      2.610      4.210
REMARK  4 active torsions:
REMARK  status: ('A' for Active; 'I' for Inactive)
REMARK    1  A    between atoms: C1_2  and  N1_3 
REMARK    2  A    between atoms: N1_3  and  C2_4 
REMARK    3  A    between atoms: C7_11  and  N4_12 
REMARK    4  A    between atoms: N4_12  and  C8_13 
ROOT
HETATM    1  C2  UNL     1      25.237   3.679  50.402  1.00  0.00     0.035 A 
HETATM    2  C3  UNL     1      24.216   3.602  49.480  1.00  0.00     0.032 A 
HETATM    3  C4  UNL     1      23.191   2.699  49.686  1.00  0.00     0.035 A 
HETATM    4  C5  UNL     1      23.234   1.920  50.800  1.00  0.00     0.072 A 
HETATM    5  N2  UNL     1      22.211   1.032  50.990  1.00  0.00    -0.241 NA
HETATM    6  C6  UNL     1      22.208   0.234  52.082  1.00  0.00     0.236 A 
HETATM    7  N3  UNL     1      23.167   0.261  53.011  1.00  0.00    -0.224 NA
HETATM    8  C7  UNL     1      24.192   1.112  52.876  1.00  0.00     0.142 A 
HETATM    9  C14 UNL     1      24.213   1.933  51.771  1.00  0.00     0.041 A 
HETATM   10  C15 UNL     1      25.194   2.848  51.501  1.00  0.00     0.047 A 
ENDROOT
BRANCH   8  11
HETATM   11  N4  UNL     1      25.227   1.187  53.814  1.00  0.00    -0.340 N 
HETATM   12  H6  UNL     1      25.098   1.644  54.738  1.00  0.00     0.167 HD
BRANCH  11  13
HETATM   13  C8  UNL     1      26.536   0.705  53.722  1.00  0.00     0.035 A 
HETATM   14  C9  UNL     1      27.652   1.468  53.979  1.00  0.00     0.032 A 
HETATM   15  C10 UNL     1      28.954   1.036  53.917  1.00  0.00     0.046 A 
HETATM   16  C11 UNL     1      29.218  -0.268  53.570  1.00  0.00     0.138 A 
HETATM   17  F1  UNL     1      30.456  -0.806  53.476  1.00  0.00    -0.204 F 
HETATM   18  C12 UNL     1      28.154  -1.097  53.297  1.00  0.00     0.074 A 
HETATM   19 CL1  UNL     1      28.420  -2.761  52.852  1.00  0.00    -0.081 Cl
HETATM   20  C13 UNL     1      26.879  -0.589  53.382  1.00  0.00     0.056 A 
ENDBRANCH  11  13
ENDBRANCH   8  11
BRANCH   1  21
HETATM   21  N1  UNL     1      26.227   4.624  50.102  1.00  0.00    -0.334 N 
HETATM   22  H2  UNL     1      26.397   5.054  51.023  1.00  0.00     0.168 HD
BRANCH  21  23
HETATM   23  C1  UNL     1      26.923   5.015  48.914  1.00  0.00     0.353 C 
HETATM   24  O1  UNL     1      28.097   4.684  48.617  1.00  0.00    -0.283 OA
ENDBRANCH  21  23
ENDBRANCH   1  21
TORSDOF 4
ENDMDL
MODEL 5
REMARK VINA RESULT:      -7.6      3.619      5.914
REMARK  4 active torsions:
REMARK  status: ('A' for Active; 'I' for Inactive)
REMARK    1  A    between atoms: C1_2  and  N1_3 
REMARK    2  A    between atoms: N1_3  and  C2_4 
REMARK    3  A    between atoms: C7_11  and  N4_12 
REMARK    4  A    between atoms: N4_12  and  C8_13 
ROOT
HETATM    1  C2  UNL     1      25.172  -0.618  54.490  1.00  0.00     0.035 A 
HETATM    2  C3  UNL     1      24.520  -1.300  55.493  1.00  0.00     0.032 A 
HETATM    3  C4  UNL     1      23.141  -1.382  55.465  1.00  0.00     0.035 A 
HETATM    4  C5  UNL     1      22.482  -0.778  54.439  1.00  0.00     0.072 A 
HETATM    5  N2  UNL     1      21.118  -0.867  54.425  1.00  0.00    -0.241 NA
HETATM    6  C6  UNL     1      20.416  -0.284  53.426  1.00  0.00     0.236 A 
HETATM    7  N3  UNL     1      20.989   0.390  52.427  1.00  0.00    -0.224 NA
HETATM    8  C7  UNL     1      22.323   0.509  52.390  1.00  0.00     0.142 A 
HETATM    9  C14 UNL     1      23.054  -0.078  53.397  1.00  0.00     0.041 A 
HETATM   10  C15 UNL     1      24.419  -0.040  53.492  1.00  0.00     0.047 A 
ENDROOT
BRANCH   8  11
HETATM   11  N4  UNL     1      22.981   1.203  51.370  1.00  0.00    -0.340 N 
HETATM   12  H6  UNL     1      23.283   0.735  50.493  1.00  0.00     0.167 HD
BRANCH  11  13
HETATM   13  C8  UNL     1      23.339   2.554  51.313  1.00  0.00     0.035 A 
HETATM   14  C9  UNL     1      22.897   3.501  52.208  1.00  0.00     0.032 A 
HETATM   15  C10 UNL     1      23.231   4.833  52.201  1.00  0.00     0.046 A 
HETATM   16  C11 UNL     1      24.082   5.312  51.232  1.00  0.00     0.138 A 
HETATM   17  F1  UNL     1      24.481   6.599  51.124  1.00  0.00    -0.204 F 
HETATM   18  C12 UNL     1      24.568   4.425  50.298  1.00  0.00     0.074 A 
HETATM   19 CL1  UNL     1      25.650   4.968  49.044  1.00  0.00    -0.081 Cl
HETATM   20  C13 UNL     1      24.186   3.107  50.373  1.00  0.00     0.056 A 
ENDBRANCH  11  13
ENDBRANCH   8  11
BRANCH   1  21
HETATM   21  N1  UNL     1      26.568  -0.593  54.610  1.00  0.00    -0.334 N 
HETATM   22  H2  UNL     1      26.763  -1.515  55.025  1.00  0.00     0.168 HD
BRANCH  21  23
HETATM   23  C1  UNL     1      27.592   0.357  54.296  1.00  0.00     0.353 C 
HETATM   24  O1  UNL     1      28.408   0.843  55.116  1.00  0.00    -0.283 OA
ENDBRANCH  21  23
ENDBRANCH   1  21
TORSDOF 4
ENDMDL
MODEL 6
REMARK VINA RESULT:      -7.5      4.048      6.455
REMARK  4 active torsions:
REMARK  status: ('A' for Active; 'I' for Inactive)
REMARK    1  A    between atoms: C1_2  and  N1_3 
REMARK    2  A    between atoms: N1_3  and  C2_4 
REMARK    3  A    between atoms: C7_11  and  N4_12 
REMARK    4  A    between atoms: N4_12  and  C8_13 
ROOT
HETATM    1  C2  UNL     1      26.252   1.797  53.679  1.00  0.00     0.035 A 
HETATM    2  C3  UNL     1      26.448   0.474  54.006  1.00  0.00     0.032 A 
HETATM    3  C4  UNL     1      25.401  -0.417  53.865  1.00  0.00     0.035 A 
HETATM    4  C5  UNL     1      24.212   0.057  53.405  1.00  0.00     0.072 A 
HETATM    5  N2  UNL     1      23.185  -0.837  53.270  1.00  0.00    -0.241 NA
HETATM    6  C6  UNL     1      21.983  -0.415  52.817  1.00  0.00     0.236 A 
HETATM    7  N3  UNL     1      21.730   0.852  52.483  1.00  0.00    -0.224 NA
HETATM    8  C7  UNL     1      22.699   1.770  52.595  1.00  0.00     0.142 A 
HETATM    9  C14 UNL     1      23.930   1.361  53.054  1.00  0.00     0.041 A 
HETATM   10  C15 UNL     1      25.011   2.183  53.220  1.00  0.00     0.047 A 
ENDROOT
BRANCH   8  11
HETATM   11  N4  UNL     1      22.495   3.113  52.262  1.00  0.00    -0.340 N 
HETATM   12  H6  UNL     1      21.848   3.720  52.802  1.00  0.00     0.167 HD
BRANCH  11  13
HETATM   13  C8  UNL     1      23.069   3.861  51.229  1.00  0.00     0.035 A 
HETATM   14  C9  UNL     1      23.191   3.410  49.935  1.00  0.00     0.032 A 
HETATM   15  C10 UNL     1      23.733   4.111  48.885  1.00  0.00     0.046 A 
HETATM   16  C11 UNL     1      24.209   5.384  49.096  1.00  0.00     0.138 A 
HETATM   17  F1  UNL     1      24.761   6.169  48.144  1.00  0.00    -0.204 F 
HETATM   18  C12 UNL     1      24.122   5.908  50.367  1.00  0.00     0.074 A 
HETATM   19 CL1  UNL     1      24.708   7.515  50.701  1.00  0.00    -0.081 Cl
HETATM   20  C13 UNL     1      23.566   5.142  51.363  1.00  0.00     0.056 A 
ENDBRANCH  11  13
ENDBRANCH   8  11
BRANCH   1  21
HETATM   21  N1  UNL     1      27.373   2.618  53.857  1.00  0.00    -0.334 N 
HETATM   22  H2  UNL     1      26.940   3.535  54.035  1.00  0.00     0.168 HD
BRANCH  21  23
HETATM   23  C1  UNL     1      28.790   2.412  53.835  1.00  0.00     0.353 C 
HETATM   24  O1  UNL     1      29.521   2.281  54.846  1.00  0.00    -0.283 OA
ENDBRANCH  21  23
ENDBRANCH   1  21
TORSDOF 4
ENDMDL
MODEL 7
REMARK VINA RESULT:      -7.4      3.441      5.165
REMARK  4 active torsions:
REMARK  status: ('A' for Active; 'I' for Inactive)
REMARK    1  A    between atoms: C1_2  and  N1_3 
REMARK    2  A    between atoms: N1_3  and  C2_4 
REMARK    3  A    between atoms: C7_11  and  N4_12 
REMARK    4  A    between atoms: N4_12  and  C8_13 
ROOT
HETATM    1  C2  UNL     1      21.418  -0.275  53.988  1.00  0.00     0.035 A 
HETATM    2  C3  UNL     1      21.899  -1.070  55.005  1.00  0.00     0.032 A 
HETATM    3  C4  UNL     1      23.263  -1.251  55.130  1.00  0.00     0.035 A 
HETATM    4  C5  UNL     1      24.079  -0.630  54.236  1.00  0.00     0.072 A 
HETATM    5  N2  UNL     1      25.426  -0.820  54.373  1.00  0.00    -0.241 NA
HETATM    6  C6  UNL     1      26.280  -0.225  53.509  1.00  0.00     0.236 A 
HETATM    7  N3  UNL     1      25.878   0.556  52.504  1.00  0.00    -0.224 NA
HETATM    8  C7  UNL     1      24.569   0.776  52.323  1.00  0.00     0.142 A 
HETATM    9  C14 UNL     1      23.684   0.180  53.192  1.00  0.00     0.041 A 
HETATM   10  C15 UNL     1      22.324   0.313  53.131  1.00  0.00     0.047 A 
ENDROOT
BRANCH   8  11
HETATM   11  N4  UNL     1      24.085   1.584  51.289  1.00  0.00    -0.340 N 
HETATM   12  H6  UNL     1      23.313   1.274  50.665  1.00  0.00     0.167 HD
BRANCH  11  13
HETATM   13  C8  UNL     1      24.493   2.866  50.908  1.00  0.00     0.035 A 
HETATM   14  C9  UNL     1      23.846   4.019  51.289  1.00  0.00     0.032 A 
HETATM   15  C10 UNL     1      24.217   5.298  50.952  1.00  0.00     0.046 A 
HETATM   16  C11 UNL     1      25.327   5.496  50.166  1.00  0.00     0.138 A 
HETATM   17  F1  UNL     1      25.787   6.705  49.771  1.00  0.00    -0.204 F 
HETATM   18  C12 UNL     1      26.030   4.391  49.742  1.00  0.00     0.074 A 
HETATM   19 CL1  UNL     1      27.446   4.573  48.743  1.00  0.00    -0.081 Cl
HETATM   20  C13 UNL     1      25.594   3.143  50.122  1.00  0.00     0.056 A 
ENDBRANCH  11  13
ENDBRANCH   8  11
BRANCH   1  21
HETATM   21  N1  UNL     1      20.023  -0.155  53.947  1.00  0.00    -0.334 N 
HETATM   22  H2  UNL     1      19.852   0.581  54.646  1.00  0.00     0.168 HD
BRANCH  21  23
HETATM   23  C1  UNL     1      18.976  -0.791  53.205  1.00  0.00     0.353 C 
HETATM   24  O1  UNL     1      18.361  -1.826  53.560  1.00  0.00    -0.283 OA
ENDBRANCH  21  23
ENDBRANCH   1  21
TORSDOF 4
ENDMDL
MODEL 8
REMARK VINA RESULT:      -7.3      3.800      6.029
REMARK  4 active torsions:
REMARK  status: ('A' for Active; 'I' for Inactive)
REMARK    1  A    between atoms: C1_2  and  N1_3 
REMARK    2  A    between atoms: N1_3  and  C2_4 
REMARK    3  A    between atoms: C7_11  and  N4_12 
REMARK    4  A    between atoms: N4_12  and  C8_13 
ROOT
HETATM    1  C2  UNL     1      26.060   2.005  53.132  1.00  0.00     0.035 A 
HETATM    2  C3  UNL     1      26.964   2.217  52.115  1.00  0.00     0.032 A 
HETATM    3  C4  UNL     1      26.504   2.631  50.880  1.00  0.00     0.035 A 
HETATM    4  C5  UNL     1      25.165   2.812  50.721  1.00  0.00     0.072 A 
HETATM    5  N2  UNL     1      24.725   3.222  49.493  1.00  0.00    -0.241 NA
HETATM    6  C6  UNL     1      23.403   3.416  49.283  1.00  0.00     0.236 A 
HETATM    7  N3  UNL     1      22.477   3.227  50.226  1.00  0.00    -0.224 NA
HETATM    8  C7  UNL     1      22.852   2.826  51.448  1.00  0.00     0.142 A 
HETATM    9  C14 UNL     1      24.193   2.624  51.681  1.00  0.00     0.041 A 
HETATM   10  C15 UNL     1      24.722   2.215  52.875  1.00  0.00     0.047 A 
ENDROOT
BRANCH   8  11
HETATM   11  N4  UNL     1      21.930   2.611  52.477  1.00  0.00    -0.340 N 
HETATM   12  H6  UNL     1      21.678   3.358  53.154  1.00  0.00     0.167 HD
BRANCH  11  13
HETATM   13  C8  UNL     1      21.211   1.453  52.788  1.00  0.00     0.035 A 
HETATM   14  C9  UNL     1      21.570   0.573  53.782  1.00  0.00     0.032 A 
HETATM   15  C10 UNL     1      20.890  -0.568  54.133  1.00  0.00     0.046 A 
HETATM   16  C11 UNL     1      19.739  -0.903  53.459  1.00  0.00     0.138 A 
HETATM   17  F1  UNL     1      18.987  -1.997  53.714  1.00  0.00    -0.204 F 
HETATM   18  C12 UNL     1      19.313  -0.072  52.448  1.00  0.00     0.074 A 
HETATM   19 CL1  UNL     1      17.862  -0.440  51.554  1.00  0.00    -0.081 Cl
HETATM   20  C13 UNL     1      20.050   1.051  52.157  1.00  0.00     0.056 A 
ENDBRANCH  11  13
ENDBRANCH   8  11
BRANCH   1  21
HETATM   21  N1  UNL     1      26.626   1.587  54.343  1.00  0.00    -0.334 N 
HETATM   22  H2  UNL     1      26.757   2.481  54.837  1.00  0.00     0.168 HD
BRANCH  21  23
HETATM   23  C1  UNL     1      26.989   0.321  54.905  1.00  0.00     0.353 C 
HETATM   24  O1  UNL     1      26.186  -0.524  55.370  1.00  0.00    -0.283 OA
ENDBRANCH  21  23
ENDBRANCH   1  21
TORSDOF 4
ENDMDL
MODEL 9
REMARK VINA RESULT:      -7.3      4.360      6.522
REMARK  4 active torsions:
REMARK  status: ('A' for Active; 'I' for Inactive)
REMARK    1  A    between atoms: C1_2  and  N1_3 
REMARK    2  A    between atoms: N1_3  and  C2_4 
REMARK    3  A    between atoms: C7_11  and  N4_12 
REMARK    4  A    between atoms: N4_12  and  C8_13 
ROOT
HETATM    1  C2  UNL     1      28.447   5.769  48.231  1.00  0.00     0.035 A 
HETATM    2  C3  UNL     1      27.842   6.942  47.838  1.00  0.00     0.032 A 
HETATM    3  C4  UNL     1      26.493   7.118  48.079  1.00  0.00     0.035 A 
HETATM    4  C5  UNL     1      25.815   6.115  48.700  1.00  0.00     0.072 A 
HETATM    5  N2  UNL     1      24.481   6.304  48.932  1.00  0.00    -0.241 NA
HETATM    6  C6  UNL     1      23.762   5.336  49.545  1.00  0.00     0.236 A 
HETATM    7  N3  UNL     1      24.289   4.178  49.950  1.00  0.00    -0.224 NA
HETATM    8  C7  UNL     1      25.591   3.940  49.748  1.00  0.00     0.142 A 
HETATM    9  C14 UNL     1      26.340   4.913  49.126  1.00  0.00     0.041 A 
HETATM   10  C15 UNL     1      27.677   4.810  48.853  1.00  0.00     0.047 A 
ENDROOT
BRANCH   8  11
HETATM   11  N4  UNL     1      26.201   2.747  50.148  1.00  0.00    -0.340 N 
HETATM   12  H6  UNL     1      26.718   2.143  49.478  1.00  0.00     0.167 HD
BRANCH  11  13
HETATM   13  C8  UNL     1      26.249   2.164  51.418  1.00  0.00     0.035 A 
HETATM   14  C9  UNL     1      27.281   2.352  52.308  1.00  0.00     0.032 A 
HETATM   15  C10 UNL     1      27.365   1.813  53.569  1.00  0.00     0.046 A 
HETATM   16  C11 UNL     1      26.351   1.007  54.029  1.00  0.00     0.138 A 
HETATM   17  F1  UNL     1      26.323   0.422  55.248  1.00  0.00    -0.204 F 
HETATM   18  C12 UNL     1      25.281   0.769  53.196  1.00  0.00     0.074 A 
HETATM   19 CL1  UNL     1      23.962  -0.245  53.718  1.00  0.00    -0.081 Cl
HETATM   20  C13 UNL     1      25.271   1.346  51.948  1.00  0.00     0.056 A 
ENDBRANCH  11  13
ENDBRANCH   8  11
BRANCH   1  21
HETATM   21  N1  UNL     1      29.815   5.689  47.940  1.00  0.00    -0.334 N 
HETATM   22  H2  UNL     1      29.808   5.289  46.991  1.00  0.00     0.168 HD
BRANCH  21  23
HETATM   23  C1  UNL     1      31.018   6.020  48.643  1.00  0.00     0.353 C 
HETATM   24  O1  UNL     1      31.749   5.205  49.255  1.00  0.00    -0.283 OA
ENDBRANCH  21  23
ENDBRANCH   1  21
TORSDOF 4
ENDMDL
