MODEL 1
REMARK VINA RESULT:      -7.6      0.000      0.000
REMARK  6 active torsions:
REMARK  status: ('A' for Active; 'I' for Inactive)
REMARK    1  A    between atoms: C2_2  and  N1_3 
REMARK    2  A    between atoms: N1_3  and  C3_4 
REMARK    3  A    between atoms: C4_5  and  O1_6 
REMARK    4  A    between atoms: N2_9  and  C7_10 
REMARK    5  A    between atoms: C11_17  and  O2_18 
REMARK    6  A    between atoms: C13_20  and  O3_21 
ROOT
HETATM    1  C7  UNL     1      22.969   1.268  51.649  1.00  0.00     0.142 A 
HETATM    2  N3  UNL     1      22.171   0.367  52.248  1.00  0.00    -0.200 NA
HETATM    3  C8  UNL     1      22.749  -0.459  53.164  1.00  0.00     0.225 A 
HETATM    4 CL1  UNL     1      21.807  -1.687  54.021  1.00  0.00    -0.041 Cl
HETATM    5  N4  UNL     1      24.076  -0.382  53.464  1.00  0.00    -0.218 NA
HETATM    6  C9  UNL     1      24.871   0.530  52.854  1.00  0.00     0.077 A 
HETATM    7  C10 UNL     1      26.213   0.681  53.090  1.00  0.00     0.072 A 
HETATM    8  C11 UNL     1      26.947   1.633  52.422  1.00  0.00     0.103 A 
HETATM    9  C13 UNL     1      26.343   2.474  51.485  1.00  0.00     0.100 A 
HETATM   10  C14 UNL     1      24.983   2.354  51.218  1.00  0.00     0.057 A 
HETATM   11  C15 UNL     1      24.315   1.379  51.925  1.00  0.00     0.042 A 
ENDROOT
BRANCH   1  12
HETATM   12  N2  UNL     1      22.195   2.064  50.725  1.00  0.00    -0.355 N 
HETATM   13  C6  UNL     1      22.548   2.389  49.363  1.00  0.00     0.191 C 
HETATM   14  C4  UNL     1      22.767   3.833  49.152  1.00  0.00     0.086 C 
HETATM   15  C3  UNL     1      22.948   4.990  49.757  1.00  0.00     0.039 C 
HETATM   16  C19 UNL     1      23.020   5.384  51.154  1.00  0.00     0.086 C 
HETATM   17  C18 UNL     1      22.219   4.644  52.119  1.00  0.00    -0.023 C 
HETATM   18  C17 UNL     1      21.439   3.580  52.386  1.00  0.00    -0.011 C 
HETATM   19  C16 UNL     1      21.005   2.451  51.484  1.00  0.00     0.152 C 
BRANCH  14  20
HETATM   20  O1  UNL     1      22.788   4.034  47.756  1.00  0.00    -0.357 OA
HETATM   21  C5  UNL     1      21.905   3.207  47.007  1.00  0.00     0.209 C 
ENDBRANCH  14  20
BRANCH  15  22
HETATM   22  N1  UNL     1      23.109   6.077  48.818  1.00  0.00    -0.391 N 
HETATM   23  H6  UNL     1      22.348   6.172  48.078  1.00  0.00     0.159 HD
BRANCH  22  24
HETATM   24  C2  UNL     1      24.234   6.990  48.868  1.00  0.00     0.115 C 
HETATM   25  C1  UNL     1      25.564   6.336  48.686  1.00  0.00     0.026 C 
ENDBRANCH  22  24
ENDBRANCH  15  22
ENDBRANCH   1  12
BRANCH   9  26
HETATM   26  O3  UNL     1      27.092   3.449  50.801  1.00  0.00    -0.358 OA
HETATM   27  H16 UNL     1      26.542   4.145  50.298  1.00  0.00     0.217 HD
ENDBRANCH   9  26
BRANCH   8  28
HETATM   28  O2  UNL     1      28.301   1.824  52.622  1.00  0.00    -0.353 OA
HETATM   29  C12 UNL     1      28.798   2.459  53.769  1.00  0.00     0.210 C 
ENDBRANCH   8  28
TORSDOF 6
ENDMDL
MODEL 2
REMARK VINA RESULT:      -7.2      3.160      5.108
REMARK  6 active torsions:
REMARK  status: ('A' for Active; 'I' for Inactive)
REMARK    1  A    between atoms: C2_2  and  N1_3 
REMARK    2  A    between atoms: N1_3  and  C3_4 
REMARK    3  A    between atoms: C4_5  and  O1_6 
REMARK    4  A    between atoms: N2_9  and  C7_10 
REMARK    5  A    between atoms: C11_17  and  O2_18 
REMARK    6  A    between atoms: C13_20  and  O3_21 
ROOT
HETATM    1  C7  UNL     1      24.098   3.419  50.333  1.00  0.00     0.142 A 
HETATM    2  N3  UNL     1      24.815   4.233  49.540  1.00  0.00    -0.200 NA
HETATM    3  C8  UNL     1      26.170   4.106  49.587  1.00  0.00     0.225 A 
HETATM    4 CL1  UNL     1      27.225   5.119  48.591  1.00  0.00    -0.041 Cl
HETATM    5  N4  UNL     1      26.779   3.198  50.399  1.00  0.00    -0.218 NA
HETATM    6  C9  UNL     1      26.046   2.381  51.194  1.00  0.00     0.077 A 
HETATM    7  C10 UNL     1      26.569   1.440  52.044  1.00  0.00     0.072 A 
HETATM    8  C11 UNL     1      25.751   0.654  52.820  1.00  0.00     0.103 A 
HETATM    9  C13 UNL     1      24.361   0.793  52.763  1.00  0.00     0.100 A 
HETATM   10  C14 UNL     1      23.792   1.736  51.914  1.00  0.00     0.057 A 
HETATM   11  C15 UNL     1      24.675   2.486  51.168  1.00  0.00     0.042 A 
ENDROOT
BRANCH   1  12
HETATM   12  N2  UNL     1      22.689   3.677  50.148  1.00  0.00    -0.355 N 
HETATM   13  C6  UNL     1      21.701   3.852  51.188  1.00  0.00     0.191 C 
HETATM   14  C4  UNL     1      20.673   2.793  51.191  1.00  0.00     0.086 C 
HETATM   15  C3  UNL     1      20.359   1.602  50.724  1.00  0.00     0.039 C 
HETATM   16  C19 UNL     1      21.036   0.666  49.842  1.00  0.00     0.086 C 
HETATM   17  C18 UNL     1      21.884   1.206  48.788  1.00  0.00    -0.023 C 
HETATM   18  C17 UNL     1      22.499   2.273  48.245  1.00  0.00    -0.011 C 
HETATM   19  C16 UNL     1      22.511   3.713  48.696  1.00  0.00     0.152 C 
BRANCH  14  20
HETATM   20  O1  UNL     1      19.630   3.252  52.023  1.00  0.00    -0.357 OA
HETATM   21  C5  UNL     1      18.678   4.103  51.394  1.00  0.00     0.209 C 
ENDBRANCH  14  20
BRANCH  15  22
HETATM   22  N1  UNL     1      19.072   1.150  51.203  1.00  0.00    -0.391 N 
HETATM   23  H6  UNL     1      18.245   1.790  50.995  1.00  0.00     0.159 HD
BRANCH  22  24
HETATM   24  C2  UNL     1      18.902  -0.095  51.925  1.00  0.00     0.115 C 
HETATM   25  C1  UNL     1      19.788  -0.240  53.117  1.00  0.00     0.026 C 
ENDBRANCH  22  24
ENDBRANCH  15  22
ENDBRANCH   1  12
BRANCH   9  26
HETATM   26  O3  UNL     1      23.522  -0.010  53.557  1.00  0.00    -0.358 OA
HETATM   27  H16 UNL     1      23.293  -0.921  53.161  1.00  0.00     0.217 HD
ENDBRANCH   9  26
BRANCH   8  28
HETATM   28  O2  UNL     1      26.227  -0.307  53.691  1.00  0.00    -0.353 OA
HETATM   29  C12 UNL     1      26.947   0.030  54.845  1.00  0.00     0.210 C 
ENDBRANCH   8  28
TORSDOF 6
ENDMDL
MODEL 3
REMARK VINA RESULT:      -6.8      2.115      3.605
REMARK  6 active torsions:
REMARK  status: ('A' for Active; 'I' for Inactive)
REMARK    1  A    between atoms: C2_2  and  N1_3 
REMARK    2  A    between atoms: N1_3  and  C3_4 
REMARK    3  A    between atoms: C4_5  and  O1_6 
REMARK    4  A    between atoms: N2_9  and  C7_10 
REMARK    5  A    between atoms: C11_17  and  O2_18 
REMARK    6  A    between atoms: C13_20  and  O3_21 
ROOT
HETATM    1  C7  UNL     1      23.071   1.464  52.091  1.00  0.00     0.142 A 
HETATM    2  N3  UNL     1      22.039   0.727  52.535  1.00  0.00    -0.200 NA
HETATM    3  C8  UNL     1      22.319  -0.243  53.450  1.00  0.00     0.225 A 
HETATM    4 CL1  UNL     1      21.048  -1.281  54.111  1.00  0.00    -0.041 Cl
HETATM    5  N4  UNL     1      23.586  -0.461  53.899  1.00  0.00    -0.218 NA
HETATM    6  C9  UNL     1      24.620   0.288  53.445  1.00  0.00     0.077 A 
HETATM    7  C10 UNL     1      25.926   0.141  53.837  1.00  0.00     0.072 A 
HETATM    8  C11 UNL     1      26.914   0.945  53.322  1.00  0.00     0.103 A 
HETATM    9  C13 UNL     1      26.615   1.937  52.384  1.00  0.00     0.100 A 
HETATM   10  C14 UNL     1      25.302   2.118  51.961  1.00  0.00     0.057 A 
HETATM   11  C15 UNL     1      24.367   1.276  52.521  1.00  0.00     0.042 A 
ENDROOT
BRANCH   1  12
HETATM   12  N2  UNL     1      22.595   2.447  51.145  1.00  0.00    -0.355 N 
HETATM   13  C6  UNL     1      22.131   3.780  51.448  1.00  0.00     0.191 C 
HETATM   14  C4  UNL     1      20.703   3.980  51.132  1.00  0.00     0.086 C 
HETATM   15  C3  UNL     1      19.576   3.368  50.829  1.00  0.00     0.039 C 
HETATM   16  C19 UNL     1      19.216   1.971  50.650  1.00  0.00     0.086 C 
HETATM   17  C18 UNL     1      20.222   1.066  50.113  1.00  0.00    -0.023 C 
HETATM   18  C17 UNL     1      21.506   0.853  49.766  1.00  0.00    -0.011 C 
HETATM   19  C16 UNL     1      22.693   1.780  49.846  1.00  0.00     0.152 C 
BRANCH  14  20
HETATM   20  O1  UNL     1      20.475   5.371  51.175  1.00  0.00    -0.357 OA
HETATM   21  C5  UNL     1      21.598   6.184  50.854  1.00  0.00     0.209 C 
ENDBRANCH  14  20
BRANCH  15  22
HETATM   22  N1  UNL     1      18.484   4.297  50.641  1.00  0.00    -0.391 N 
HETATM   23  H6  UNL     1      18.757   5.319  50.513  1.00  0.00     0.159 HD
BRANCH  22  24
HETATM   24  C2  UNL     1      17.097   3.876  50.628  1.00  0.00     0.115 C 
HETATM   25  C1  UNL     1      16.348   4.189  51.881  1.00  0.00     0.026 C 
ENDBRANCH  22  24
ENDBRANCH  15  22
ENDBRANCH   1  12
BRANCH   9  26
HETATM   26  O3  UNL     1      27.625   2.760  51.856  1.00  0.00    -0.358 OA
HETATM   27  H16 UNL     1      27.706   2.750  50.840  1.00  0.00     0.217 HD
ENDBRANCH   9  26
BRANCH   8  28
HETATM   28  O2  UNL     1      28.244   0.837  53.683  1.00  0.00    -0.353 OA
HETATM   29  C12 UNL     1      28.888  -0.405  53.776  1.00  0.00     0.210 C 
ENDBRANCH   8  28
TORSDOF 6
ENDMDL
MODEL 4
REMARK VINA RESULT:      -6.6      2.905      3.808
REMARK  6 active torsions:
REMARK  status: ('A' for Active; 'I' for Inactive)
REMARK    1  A    between atoms: C2_2  and  N1_3 
REMARK    2  A    between atoms: N1_3  and  C3_4 
REMARK    3  A    between atoms: C4_5  and  O1_6 
REMARK    4  A    between atoms: N2_9  and  C7_10 
REMARK    5  A    between atoms: C11_17  and  O2_18 
REMARK    6  A    between atoms: C13_20  and  O3_21 
ROOT
HETATM    1  C7  UNL     1      24.525   2.305  51.365  1.00  0.00     0.142 A 
HETATM    2  N3  UNL     1      24.865   3.214  50.435  1.00  0.00    -0.200 NA
HETATM    3  C8  UNL     1      26.196   3.430  50.239  1.00  0.00     0.225 A 
HETATM    4 CL1  UNL     1      26.772   4.601  49.043  1.00  0.00    -0.041 Cl
HETATM    5  N4  UNL     1      27.144   2.759  50.949  1.00  0.00    -0.218 NA
HETATM    6  C9  UNL     1      26.791   1.845  51.884  1.00  0.00     0.077 A 
HETATM    7  C10 UNL     1      27.672   1.123  52.647  1.00  0.00     0.072 A 
HETATM    8  C11 UNL     1      27.226   0.216  53.578  1.00  0.00     0.103 A 
HETATM    9  C13 UNL     1      25.858   0.003  53.771  1.00  0.00     0.100 A 
HETATM   10  C14 UNL     1      24.931   0.714  53.016  1.00  0.00     0.057 A 
HETATM   11  C15 UNL     1      25.454   1.605  52.104  1.00  0.00     0.042 A 
ENDROOT
BRANCH   1  12
HETATM   12  N2  UNL     1      23.087   2.193  51.432  1.00  0.00    -0.355 N 
HETATM   13  C6  UNL     1      22.224   1.576  50.452  1.00  0.00     0.191 C 
HETATM   14  C4  UNL     1      21.303   2.533  49.809  1.00  0.00     0.086 C 
HETATM   15  C3  UNL     1      21.041   3.812  49.626  1.00  0.00     0.039 C 
HETATM   16  C19 UNL     1      21.684   5.036  50.074  1.00  0.00     0.086 C 
HETATM   17  C18 UNL     1      22.342   5.030  51.373  1.00  0.00    -0.023 C 
HETATM   18  C17 UNL     1      22.788   4.325  52.430  1.00  0.00    -0.011 C 
HETATM   19  C16 UNL     1      22.728   2.841  52.694  1.00  0.00     0.152 C 
BRANCH  14  20
HETATM   20  O1  UNL     1      20.335   1.763  49.132  1.00  0.00    -0.357 OA
HETATM   21  C5  UNL     1      19.550   0.907  49.955  1.00  0.00     0.209 C 
ENDBRANCH  14  20
BRANCH  15  22
HETATM   22  N1  UNL     1      19.868   4.016  48.806  1.00  0.00    -0.391 N 
HETATM   23  H6  UNL     1      18.992   3.488  49.103  1.00  0.00     0.159 HD
BRANCH  22  24
HETATM   24  C2  UNL     1      19.871   4.884  47.645  1.00  0.00     0.115 C 
HETATM   25  C1  UNL     1      20.497   4.283  46.430  1.00  0.00     0.026 C 
ENDBRANCH  22  24
ENDBRANCH  15  22
ENDBRANCH   1  12
BRANCH   9  26
HETATM   26  O3  UNL     1      25.399  -0.926  54.722  1.00  0.00    -0.358 OA
HETATM   27  H16 UNL     1      24.770  -0.547  55.429  1.00  0.00     0.217 HD
ENDBRANCH   9  26
BRANCH   8  28
HETATM   28  O2  UNL     1      28.072  -0.535  54.372  1.00  0.00    -0.353 OA
HETATM   29  C12 UNL     1      29.374  -0.859  53.967  1.00  0.00     0.210 C 
ENDBRANCH   8  28
TORSDOF 6
ENDMDL
MODEL 5
REMARK VINA RESULT:      -6.6      2.650      6.402
REMARK  6 active torsions:
REMARK  status: ('A' for Active; 'I' for Inactive)
REMARK    1  A    between atoms: C2_2  and  N1_3 
REMARK    2  A    between atoms: N1_3  and  C3_4 
REMARK    3  A    between atoms: C4_5  and  O1_6 
REMARK    4  A    between atoms: N2_9  and  C7_10 
REMARK    5  A    between atoms: C11_17  and  O2_18 
REMARK    6  A    between atoms: C13_20  and  O3_21 
ROOT
HETATM    1  C7  UNL     1      23.897   4.369  50.088  1.00  0.00     0.142 A 
HETATM    2  N3  UNL     1      23.001   3.603  49.444  1.00  0.00    -0.200 NA
HETATM    3  C8  UNL     1      22.576   4.039  48.225  1.00  0.00     0.225 A 
HETATM    4 CL1  UNL     1      21.398   3.120  47.277  1.00  0.00    -0.041 Cl
HETATM    5  N4  UNL     1      23.034   5.199  47.678  1.00  0.00    -0.218 NA
HETATM    6  C9  UNL     1      23.938   5.964  48.335  1.00  0.00     0.077 A 
HETATM    7  C10 UNL     1      24.455   7.145  47.866  1.00  0.00     0.072 A 
HETATM    8  C11 UNL     1      25.368   7.861  48.603  1.00  0.00     0.103 A 
HETATM    9  C13 UNL     1      25.796   7.404  49.852  1.00  0.00     0.100 A 
HETATM   10  C14 UNL     1      25.297   6.211  50.363  1.00  0.00     0.057 A 
HETATM   11  C15 UNL     1      24.386   5.549  49.568  1.00  0.00     0.042 A 
ENDROOT
BRANCH   1  12
HETATM   12  N2  UNL     1      24.246   3.756  51.348  1.00  0.00    -0.355 N 
HETATM   13  C6  UNL     1      25.093   2.601  51.539  1.00  0.00     0.191 C 
HETATM   14  C4  UNL     1      24.373   1.445  52.107  1.00  0.00     0.086 C 
HETATM   15  C3  UNL     1      23.181   0.947  52.370  1.00  0.00     0.039 C 
HETATM   16  C19 UNL     1      21.828   1.436  52.163  1.00  0.00     0.086 C 
HETATM   17  C18 UNL     1      21.596   2.871  52.244  1.00  0.00    -0.023 C 
HETATM   18  C17 UNL     1      22.110   4.114  52.317  1.00  0.00    -0.011 C 
HETATM   19  C16 UNL     1      23.550   4.562  52.352  1.00  0.00     0.152 C 
BRANCH  14  20
HETATM   20  O1  UNL     1      25.358   0.527  52.525  1.00  0.00    -0.357 OA
HETATM   21  C5  UNL     1      26.674   0.783  52.045  1.00  0.00     0.209 C 
ENDBRANCH  14  20
BRANCH  15  22
HETATM   22  N1  UNL     1      23.260  -0.356  52.990  1.00  0.00    -0.391 N 
HETATM   23  H6  UNL     1      24.240  -0.749  53.130  1.00  0.00     0.159 HD
BRANCH  22  24
HETATM   24  C2  UNL     1      22.082  -1.096  53.399  1.00  0.00     0.115 C 
HETATM   25  C1  UNL     1      21.930  -1.239  54.877  1.00  0.00     0.026 C 
ENDBRANCH  22  24
ENDBRANCH  15  22
ENDBRANCH   1  12
BRANCH   9  26
HETATM   26  O3  UNL     1      26.730   8.135  50.607  1.00  0.00    -0.358 OA
HETATM   27  H16 UNL     1      27.069   8.991  50.168  1.00  0.00     0.217 HD
ENDBRANCH   9  26
BRANCH   8  28
HETATM   28  O2  UNL     1      25.917   9.055  48.176  1.00  0.00    -0.353 OA
HETATM   29  C12 UNL     1      25.212  10.265  48.254  1.00  0.00     0.210 C 
ENDBRANCH   8  28
TORSDOF 6
ENDMDL
MODEL 6
REMARK VINA RESULT:      -6.4      8.610     10.619
REMARK  6 active torsions:
REMARK  status: ('A' for Active; 'I' for Inactive)
REMARK    1  A    between atoms: C2_2  and  N1_3 
REMARK    2  A    between atoms: N1_3  and  C3_4 
REMARK    3  A    between atoms: C4_5  and  O1_6 
REMARK    4  A    between atoms: N2_9  and  C7_10 
REMARK    5  A    between atoms: C11_17  and  O2_18 
REMARK    6  A    between atoms: C13_20  and  O3_21 
ROOT
HETATM    1  C7  UNL     1      31.704   7.811  45.569  1.00  0.00     0.142 A 
HETATM    2  N3  UNL     1      31.983   8.101  44.287  1.00  0.00    -0.200 NA
HETATM    3  C8  UNL     1      32.621   7.142  43.560  1.00  0.00     0.225 A 
HETATM    4 CL1  UNL     1      33.044   7.402  41.862  1.00  0.00    -0.041 Cl
HETATM    5  N4  UNL     1      32.964   5.940  44.102  1.00  0.00    -0.218 NA
HETATM    6  C9  UNL     1      32.677   5.657  45.395  1.00  0.00     0.077 A 
HETATM    7  C10 UNL     1      32.983   4.479  46.026  1.00  0.00     0.072 A 
HETATM    8  C11 UNL     1      32.658   4.277  47.346  1.00  0.00     0.103 A 
HETATM    9  C13 UNL     1      32.004   5.268  48.082  1.00  0.00     0.100 A 
HETATM   10  C14 UNL     1      31.675   6.477  47.479  1.00  0.00     0.057 A 
HETATM   11  C15 UNL     1      32.033   6.607  46.154  1.00  0.00     0.042 A 
ENDROOT
BRANCH   1  12
HETATM   12  N2  UNL     1      31.020   8.925  46.182  1.00  0.00    -0.355 N 
HETATM   13  C6  UNL     1      31.352   9.555  47.439  1.00  0.00     0.191 C 
HETATM   14  C4  UNL     1      30.297   9.400  48.459  1.00  0.00     0.086 C 
HETATM   15  C3  UNL     1      29.194   8.750  48.771  1.00  0.00     0.039 C 
HETATM   16  C19 UNL     1      28.420   7.718  48.099  1.00  0.00     0.086 C 
HETATM   17  C18 UNL     1      28.384   7.725  46.644  1.00  0.00    -0.023 C 
HETATM   18  C17 UNL     1      28.865   8.217  45.486  1.00  0.00    -0.011 C 
HETATM   19  C16 UNL     1      29.940   9.249  45.250  1.00  0.00     0.152 C 
BRANCH  14  20
HETATM   20  O1  UNL     1      30.606  10.306  49.494  1.00  0.00    -0.357 OA
HETATM   21  C5  UNL     1      30.907  11.633  49.075  1.00  0.00     0.209 C 
ENDBRANCH  14  20
BRANCH  15  22
HETATM   22  N1  UNL     1      28.660   9.163  50.049  1.00  0.00    -0.391 N 
HETATM   23  H6  UNL     1      29.377   9.409  50.797  1.00  0.00     0.159 HD
BRANCH  22  24
HETATM   24  C2  UNL     1      27.236   9.240  50.310  1.00  0.00     0.115 C 
HETATM   25  C1  UNL     1      26.483  10.107  49.356  1.00  0.00     0.026 C 
ENDBRANCH  22  24
ENDBRANCH  15  22
ENDBRANCH   1  12
BRANCH   9  26
HETATM   26  O3  UNL     1      31.669   5.063  49.433  1.00  0.00    -0.358 OA
HETATM   27  H16 UNL     1      30.827   4.511  49.592  1.00  0.00     0.217 HD
ENDBRANCH   9  26
BRANCH   8  28
HETATM   28  O2  UNL     1      32.945   3.109  48.027  1.00  0.00    -0.353 OA
HETATM   29  C12 UNL     1      32.973   1.864  47.384  1.00  0.00     0.210 C 
ENDBRANCH   8  28
TORSDOF 6
ENDMDL
MODEL 7
REMARK VINA RESULT:      -6.4      3.053      4.796
REMARK  6 active torsions:
REMARK  status: ('A' for Active; 'I' for Inactive)
REMARK    1  A    between atoms: C2_2  and  N1_3 
REMARK    2  A    between atoms: N1_3  and  C3_4 
REMARK    3  A    between atoms: C4_5  and  O1_6 
REMARK    4  A    between atoms: N2_9  and  C7_10 
REMARK    5  A    between atoms: C11_17  and  O2_18 
REMARK    6  A    between atoms: C13_20  and  O3_21 
ROOT
HETATM    1  C7  UNL     1      24.281   2.585  51.653  1.00  0.00     0.142 A 
HETATM    2  N3  UNL     1      25.509   2.039  51.680  1.00  0.00    -0.200 NA
HETATM    3  C8  UNL     1      25.638   0.837  52.308  1.00  0.00     0.225 A 
HETATM    4 CL1  UNL     1      27.201   0.014  52.411  1.00  0.00    -0.041 Cl
HETATM    5  N4  UNL     1      24.575   0.211  52.885  1.00  0.00    -0.218 NA
HETATM    6  C9  UNL     1      23.342   0.770  52.852  1.00  0.00     0.077 A 
HETATM    7  C10 UNL     1      22.215   0.217  53.405  1.00  0.00     0.072 A 
HETATM    8  C11 UNL     1      21.001   0.856  53.328  1.00  0.00     0.103 A 
HETATM    9  C13 UNL     1      20.881   2.088  52.681  1.00  0.00     0.100 A 
HETATM   10  C14 UNL     1      21.999   2.683  52.106  1.00  0.00     0.057 A 
HETATM   11  C15 UNL     1      23.180   1.984  52.224  1.00  0.00     0.042 A 
ENDROOT
BRANCH   1  12
HETATM   12  N2  UNL     1      24.323   3.841  50.941  1.00  0.00    -0.355 N 
HETATM   13  C6  UNL     1      23.865   5.122  51.426  1.00  0.00     0.191 C 
HETATM   14  C4  UNL     1      22.727   5.658  50.654  1.00  0.00     0.086 C 
HETATM   15  C3  UNL     1      21.799   5.362  49.767  1.00  0.00     0.039 C 
HETATM   16  C19 UNL     1      21.457   4.145  49.049  1.00  0.00     0.086 C 
HETATM   17  C18 UNL     1      22.532   3.227  48.701  1.00  0.00    -0.023 C 
HETATM   18  C17 UNL     1      23.823   2.869  48.835  1.00  0.00    -0.011 C 
HETATM   19  C16 UNL     1      24.922   3.508  49.648  1.00  0.00     0.152 C 
BRANCH  14  20
HETATM   20  O1  UNL     1      22.597   7.013  51.023  1.00  0.00    -0.357 OA
HETATM   21  C5  UNL     1      23.770   7.804  50.867  1.00  0.00     0.209 C 
ENDBRANCH  14  20
BRANCH  15  22
HETATM   22  N1  UNL     1      20.958   6.497  49.459  1.00  0.00    -0.391 N 
HETATM   23  H6  UNL     1      21.463   7.418  49.282  1.00  0.00     0.159 HD
BRANCH  22  24
HETATM   24  C2  UNL     1      19.513   6.400  49.393  1.00  0.00     0.115 C 
HETATM   25  C1  UNL     1      18.931   6.795  48.076  1.00  0.00     0.026 C 
ENDBRANCH  22  24
ENDBRANCH  15  22
ENDBRANCH   1  12
BRANCH   9  26
HETATM   26  O3  UNL     1      19.639   2.744  52.601  1.00  0.00    -0.358 OA
HETATM   27  H16 UNL     1      18.891   2.205  52.165  1.00  0.00     0.217 HD
ENDBRANCH   9  26
BRANCH   8  28
HETATM   28  O2  UNL     1      19.838   0.341  53.869  1.00  0.00    -0.353 OA
HETATM   29  C12 UNL     1      19.186  -0.766  53.309  1.00  0.00     0.210 C 
ENDBRANCH   8  28
TORSDOF 6
ENDMDL
MODEL 8
REMARK VINA RESULT:      -6.3      3.176      4.022
REMARK  6 active torsions:
REMARK  status: ('A' for Active; 'I' for Inactive)
REMARK    1  A    between atoms: C2_2  and  N1_3 
REMARK    2  A    between atoms: N1_3  and  C3_4 
REMARK    3  A    between atoms: C4_5  and  O1_6 
REMARK    4  A    between atoms: N2_9  and  C7_10 
REMARK    5  A    between atoms: C11_17  and  O2_18 
REMARK    6  A    between atoms: C13_20  and  O3_21 
ROOT
HETATM    1  C7  UNL     1      24.431   3.505  50.685  1.00  0.00     0.142 A 
HETATM    2  N3  UNL     1      25.173   4.280  49.876  1.00  0.00    -0.200 NA
HETATM    3  C8  UNL     1      26.474   3.918  49.695  1.00  0.00     0.225 A 
HETATM    4 CL1  UNL     1      27.555   4.856  48.654  1.00  0.00    -0.041 Cl
HETATM    5  N4  UNL     1      27.005   2.822  50.304  1.00  0.00    -0.218 NA
HETATM    6  C9  UNL     1      26.248   2.047  51.117  1.00  0.00     0.077 A 
HETATM    7  C10 UNL     1      26.694   0.928  51.773  1.00  0.00     0.072 A 
HETATM    8  C11 UNL     1      25.857   0.201  52.584  1.00  0.00     0.103 A 
HETATM    9  C13 UNL     1      24.524   0.582  52.762  1.00  0.00     0.100 A 
HETATM   10  C14 UNL     1      24.032   1.710  52.114  1.00  0.00     0.057 A 
HETATM   11  C15 UNL     1      24.930   2.387  51.319  1.00  0.00     0.042 A 
ENDROOT
BRANCH   1  12
HETATM   12  N2  UNL     1      23.084   4.022  50.752  1.00  0.00    -0.355 N 
HETATM   13  C6  UNL     1      22.096   3.992  49.699  1.00  0.00     0.191 C 
HETATM   14  C4  UNL     1      21.717   5.337  49.225  1.00  0.00     0.086 C 
HETATM   15  C3  UNL     1      22.043   6.614  49.247  1.00  0.00     0.039 C 
HETATM   16  C19 UNL     1      23.126   7.356  49.872  1.00  0.00     0.086 C 
HETATM   17  C18 UNL     1      23.643   6.875  51.145  1.00  0.00    -0.023 C 
HETATM   18  C17 UNL     1      23.679   5.900  52.074  1.00  0.00    -0.011 C 
HETATM   19  C16 UNL     1      22.969   4.570  52.105  1.00  0.00     0.152 C 
BRANCH  14  20
HETATM   20  O1  UNL     1      20.551   5.173  48.448  1.00  0.00    -0.357 OA
HETATM   21  C5  UNL     1      19.739   4.056  48.794  1.00  0.00     0.209 C 
ENDBRANCH  14  20
BRANCH  15  22
HETATM   22  N1  UNL     1      21.122   7.425  48.483  1.00  0.00    -0.391 N 
HETATM   23  H6  UNL     1      20.647   6.944  47.660  1.00  0.00     0.159 HD
BRANCH  22  24
HETATM   24  C2  UNL     1      20.854   8.813  48.807  1.00  0.00     0.115 C 
HETATM   25  C1  UNL     1      19.747   9.012  49.788  1.00  0.00     0.026 C 
ENDBRANCH  22  24
ENDBRANCH  15  22
ENDBRANCH   1  12
BRANCH   9  26
HETATM   26  O3  UNL     1      23.665  -0.162  53.591  1.00  0.00    -0.358 OA
HETATM   27  H16 UNL     1      24.124  -0.671  54.346  1.00  0.00     0.217 HD
ENDBRANCH   9  26
BRANCH   8  28
HETATM   28  O2  UNL     1      26.257  -0.933  53.266  1.00  0.00    -0.353 OA
HETATM   29  C12 UNL     1      26.889  -2.003  52.618  1.00  0.00     0.210 C 
ENDBRANCH   8  28
TORSDOF 6
ENDMDL
MODEL 9
REMARK VINA RESULT:      -6.2      7.981     10.848
REMARK  6 active torsions:
REMARK  status: ('A' for Active; 'I' for Inactive)
REMARK    1  A    between atoms: C2_2  and  N1_3 
REMARK    2  A    between atoms: N1_3  and  C3_4 
REMARK    3  A    between atoms: C4_5  and  O1_6 
REMARK    4  A    between atoms: N2_9  and  C7_10 
REMARK    5  A    between atoms: C11_17  and  O2_18 
REMARK    6  A    between atoms: C13_20  and  O3_21 
ROOT
HETATM    1  C7  UNL     1      30.076   8.182  47.889  1.00  0.00     0.142 A 
HETATM    2  N3  UNL     1      29.343   7.057  47.948  1.00  0.00    -0.200 NA
HETATM    3  C8  UNL     1      28.060   7.177  48.388  1.00  0.00     0.225 A 
HETATM    4 CL1  UNL     1      26.993   5.770  48.510  1.00  0.00    -0.041 Cl
HETATM    5  N4  UNL     1      27.536   8.379  48.755  1.00  0.00    -0.218 NA
HETATM    6  C9  UNL     1      28.283   9.507  48.693  1.00  0.00     0.077 A 
HETATM    7  C10 UNL     1      27.844  10.759  49.041  1.00  0.00     0.072 A 
HETATM    8  C11 UNL     1      28.672  11.851  48.950  1.00  0.00     0.103 A 
HETATM    9  C13 UNL     1      29.987  11.716  48.497  1.00  0.00     0.100 A 
HETATM   10  C14 UNL     1      30.471  10.465  48.132  1.00  0.00     0.057 A 
HETATM   11  C15 UNL     1      29.583   9.418  48.251  1.00  0.00     0.042 A 
ENDROOT
BRANCH   1  12
HETATM   12  N2  UNL     1      31.397   7.877  47.392  1.00  0.00    -0.355 N 
HETATM   13  C6  UNL     1      31.745   7.519  46.036  1.00  0.00     0.191 C 
HETATM   14  C4  UNL     1      32.273   6.146  45.919  1.00  0.00     0.086 C 
HETATM   15  C3  UNL     1      32.409   4.993  46.542  1.00  0.00     0.039 C 
HETATM   16  C19 UNL     1      32.013   4.516  47.857  1.00  0.00     0.086 C 
HETATM   17  C18 UNL     1      31.998   5.470  48.957  1.00  0.00    -0.023 C 
HETATM   18  C17 UNL     1      32.076   6.751  49.366  1.00  0.00    -0.011 C 
HETATM   19  C16 UNL     1      32.268   8.011  48.560  1.00  0.00     0.152 C 
BRANCH  14  20
HETATM   20  O1  UNL     1      32.853   6.049  44.637  1.00  0.00    -0.357 OA
HETATM   21  C5  UNL     1      32.318   6.931  43.657  1.00  0.00     0.209 C 
ENDBRANCH  14  20
BRANCH  15  22
HETATM   22  N1  UNL     1      33.095   4.012  45.730  1.00  0.00    -0.391 N 
HETATM   23  H6  UNL     1      32.906   4.058  44.683  1.00  0.00     0.159 HD
BRANCH  22  24
HETATM   24  C2  UNL     1      33.987   3.020  46.296  1.00  0.00     0.115 C 
HETATM   25  C1  UNL     1      35.305   3.561  46.741  1.00  0.00     0.026 C 
ENDBRANCH  22  24
ENDBRANCH  15  22
ENDBRANCH   1  12
BRANCH   9  26
HETATM   26  O3  UNL     1      30.837  12.834  48.402  1.00  0.00    -0.358 OA
HETATM   27  H16 UNL     1      31.833  12.628  48.474  1.00  0.00     0.217 HD
ENDBRANCH   9  26
BRANCH   8  28
HETATM   28  O2  UNL     1      28.279  13.132  49.290  1.00  0.00    -0.353 OA
HETATM   29  C12 UNL     1      27.444  13.895  48.462  1.00  0.00     0.210 C 
ENDBRANCH   8  28
TORSDOF 6
ENDMDL
