MODEL 1
REMARK VINA RESULT:      -7.8      0.000      0.000
REMARK  3 active torsions:
REMARK  status: ('A' for Active; 'I' for Inactive)
REMARK       I    between atoms: C3_3  and  N1_5 
REMARK    1  A    between atoms: N1_5  and  C4_6 
REMARK    2  A    between atoms: C7_9  and  N2_10 
REMARK    3  A    between atoms: N2_10  and  S1_11 
ROOT
HETATM    1  C1  UNL     1      30.287  -0.499  53.528  1.00  0.00     0.022 C 
HETATM    2  C2  UNL     1      29.109  -0.770  53.539  1.00  0.00    -0.016 C 
HETATM    3  C3  UNL     1      27.711  -1.083  53.570  1.00  0.00     0.301 C 
HETATM    4  O1  UNL     1      27.364  -2.109  52.955  1.00  0.00    -0.258 OA
HETATM    5  N1  UNL     1      26.736  -0.309  54.244  1.00  0.00    -0.301 N 
HETATM    6  H2  UNL     1      27.164   0.516  54.715  1.00  0.00     0.171 HD
ENDROOT
BRANCH   5   7
HETATM    7  C4  UNL     1      25.342  -0.533  54.334  1.00  0.00     0.131 A 
HETATM    8  C5  UNL     1      24.357  -0.113  53.487  1.00  0.00     0.068 A 
HETATM    9  C6  UNL     1      23.026  -0.382  53.661  1.00  0.00     0.044 A 
HETATM   10  C7  UNL     1      22.103   0.082  52.756  1.00  0.00     0.146 A 
HETATM   11  C12 UNL     1      22.608  -1.113  54.735  1.00  0.00     0.089 A 
HETATM   12  N3  UNL     1      20.802  -0.184  52.931  1.00  0.00    -0.223 NA
HETATM   13  C11 UNL     1      20.403  -0.918  54.012  1.00  0.00     0.236 A 
HETATM   14  N4  UNL     1      21.313  -1.382  54.915  1.00  0.00    -0.240 NA
HETATM   15  C13 UNL     1      23.610  -1.533  55.584  1.00  0.00     0.151 A 
HETATM   16  N5  UNL     1      24.889  -1.248  55.377  1.00  0.00    -0.241 NA
BRANCH  10  17
HETATM   17  N2  UNL     1      22.440   0.850  51.609  1.00  0.00    -0.327 N 
HETATM   18  H4  UNL     1      22.728   0.586  50.658  1.00  0.00     0.174 HD
BRANCH  17  19
HETATM   19  S1  UNL     1      22.440   2.626  51.543  1.00  0.00    -0.138 SA
HETATM   20  C8  UNL     1      23.108   3.882  52.339  1.00  0.00     0.007 A 
HETATM   21  C9  UNL     1      22.340   4.657  51.625  1.00  0.00     0.102 A 
HETATM   22  C10 UNL     1      21.185   3.874  52.068  1.00  0.00     0.100 A 
ENDBRANCH  17  19
ENDBRANCH  10  17
ENDBRANCH   5   7
TORSDOF 3
ENDMDL
MODEL 2
REMARK VINA RESULT:      -7.0      2.811      5.876
REMARK  3 active torsions:
REMARK  status: ('A' for Active; 'I' for Inactive)
REMARK       I    between atoms: C3_3  and  N1_5 
REMARK    1  A    between atoms: N1_5  and  C4_6 
REMARK    2  A    between atoms: C7_9  and  N2_10 
REMARK    3  A    between atoms: N2_10  and  S1_11 
ROOT
HETATM    1  C1  UNL     1      16.458  -0.948  52.675  1.00  0.00     0.022 C 
HETATM    2  C2  UNL     1      17.654  -0.788  52.746  1.00  0.00    -0.016 C 
HETATM    3  C3  UNL     1      19.070  -0.600  52.851  1.00  0.00     0.301 C 
HETATM    4  O1  UNL     1      19.607   0.056  51.938  1.00  0.00    -0.258 OA
HETATM    5  N1  UNL     1      19.866  -1.105  53.908  1.00  0.00    -0.301 N 
HETATM    6  H2  UNL     1      19.290  -1.631  54.600  1.00  0.00     0.171 HD
ENDROOT
BRANCH   5   7
HETATM    7  C4  UNL     1      21.261  -0.974  54.101  1.00  0.00     0.131 A 
HETATM    8  C5  UNL     1      22.159  -0.265  53.355  1.00  0.00     0.068 A 
HETATM    9  C6  UNL     1      23.500  -0.199  53.624  1.00  0.00     0.044 A 
HETATM   10  C7  UNL     1      24.331   0.539  52.818  1.00  0.00     0.146 A 
HETATM   11  C12 UNL     1      24.019  -0.868  54.694  1.00  0.00     0.089 A 
HETATM   12  N3  UNL     1      25.642   0.600  53.085  1.00  0.00    -0.223 NA
HETATM   13  C11 UNL     1      26.143  -0.076  54.161  1.00  0.00     0.236 A 
HETATM   14  N4  UNL     1      25.325  -0.811  54.966  1.00  0.00    -0.240 NA
HETATM   15  C13 UNL     1      23.104  -1.580  55.440  1.00  0.00     0.151 A 
HETATM   16  N5  UNL     1      21.812  -1.617  55.143  1.00  0.00    -0.241 NA
BRANCH  10  17
HETATM   17  N2  UNL     1      23.885   1.268  51.682  1.00  0.00    -0.327 N 
HETATM   18  H4  UNL     1      23.074   1.156  51.060  1.00  0.00     0.174 HD
BRANCH  17  19
HETATM   19  S1  UNL     1      24.708   2.689  51.003  1.00  0.00    -0.138 SA
HETATM   20  C8  UNL     1      24.845   3.459  49.573  1.00  0.00     0.007 A 
HETATM   21  C9  UNL     1      25.762   4.198  50.133  1.00  0.00     0.102 A 
HETATM   22  C10 UNL     1      26.468   2.976  50.524  1.00  0.00     0.100 A 
ENDBRANCH  17  19
ENDBRANCH  10  17
ENDBRANCH   5   7
TORSDOF 3
ENDMDL
MODEL 3
REMARK VINA RESULT:      -6.9      3.493      5.717
REMARK  3 active torsions:
REMARK  status: ('A' for Active; 'I' for Inactive)
REMARK       I    between atoms: C3_3  and  N1_5 
REMARK    1  A    between atoms: N1_5  and  C4_6 
REMARK    2  A    between atoms: C7_9  and  N2_10 
REMARK    3  A    between atoms: N2_10  and  S1_11 
ROOT
HETATM    1  C1  UNL     1      27.808   5.753  48.443  1.00  0.00     0.022 C 
HETATM    2  C2  UNL     1      26.964   5.044  48.941  1.00  0.00    -0.016 C 
HETATM    3  C3  UNL     1      25.978   4.199  49.545  1.00  0.00     0.301 C 
HETATM    4  O1  UNL     1      25.080   3.776  48.791  1.00  0.00    -0.258 OA
HETATM    5  N1  UNL     1      25.972   3.830  50.912  1.00  0.00    -0.301 N 
HETATM    6  H2  UNL     1      26.777   4.252  51.423  1.00  0.00     0.171 HD
ENDROOT
BRANCH   5   7
HETATM    7  C4  UNL     1      25.050   3.006  51.598  1.00  0.00     0.131 A 
HETATM    8  C5  UNL     1      25.223   1.728  52.048  1.00  0.00     0.068 A 
HETATM    9  C6  UNL     1      24.262   1.008  52.707  1.00  0.00     0.044 A 
HETATM   10  C7  UNL     1      24.524  -0.273  53.124  1.00  0.00     0.146 A 
HETATM   11  C12 UNL     1      23.038   1.559  52.950  1.00  0.00     0.089 A 
HETATM   12  N3  UNL     1      23.580  -0.973  53.767  1.00  0.00    -0.223 NA
HETATM   13  C11 UNL     1      22.361  -0.405  54.002  1.00  0.00     0.236 A 
HETATM   14  N4  UNL     1      22.093   0.867  53.590  1.00  0.00    -0.240 NA
HETATM   15  C13 UNL     1      22.873   2.849  52.492  1.00  0.00     0.151 A 
HETATM   16  N5  UNL     1      23.833   3.511  51.858  1.00  0.00    -0.241 NA
BRANCH  10  17
HETATM   17  N2  UNL     1      25.766  -0.933  52.916  1.00  0.00    -0.327 N 
HETATM   18  H4  UNL     1      26.038  -1.728  52.324  1.00  0.00     0.174 HD
BRANCH  17  19
HETATM   19  S1  UNL     1      27.292  -0.491  53.710  1.00  0.00    -0.138 SA
HETATM   20  C8  UNL     1      28.351   0.748  53.728  1.00  0.00     0.007 A 
HETATM   21  C9  UNL     1      29.125  -0.009  54.455  1.00  0.00     0.102 A 
HETATM   22  C10 UNL     1      29.030  -1.047  53.425  1.00  0.00     0.100 A 
ENDBRANCH  17  19
ENDBRANCH  10  17
ENDBRANCH   5   7
TORSDOF 3
ENDMDL
MODEL 4
REMARK VINA RESULT:      -6.9      3.100      5.830
REMARK  3 active torsions:
REMARK  status: ('A' for Active; 'I' for Inactive)
REMARK       I    between atoms: C3_3  and  N1_5 
REMARK    1  A    between atoms: N1_5  and  C4_6 
REMARK    2  A    between atoms: C7_9  and  N2_10 
REMARK    3  A    between atoms: N2_10  and  S1_11 
ROOT
HETATM    1  C1  UNL     1      18.431  -1.203  53.205  1.00  0.00     0.022 C 
HETATM    2  C2  UNL     1      19.536  -0.772  53.442  1.00  0.00    -0.016 C 
HETATM    3  C3  UNL     1      20.852  -0.278  53.718  1.00  0.00     0.301 C 
HETATM    4  O1  UNL     1      20.944   0.557  54.637  1.00  0.00    -0.258 OA
HETATM    5  N1  UNL     1      22.016  -0.678  53.018  1.00  0.00    -0.301 N 
HETATM    6  H2  UNL     1      21.794  -1.379  52.280  1.00  0.00     0.171 HD
ENDROOT
BRANCH   5   7
HETATM    7  C4  UNL     1      23.351  -0.253  53.214  1.00  0.00     0.131 A 
HETATM    8  C5  UNL     1      24.085   0.617  52.460  1.00  0.00     0.068 A 
HETATM    9  C6  UNL     1      25.380   0.968  52.733  1.00  0.00     0.044 A 
HETATM   10  C7  UNL     1      26.043   1.852  51.918  1.00  0.00     0.146 A 
HETATM   11  C12 UNL     1      26.021   0.441  53.816  1.00  0.00     0.089 A 
HETATM   12  N3  UNL     1      27.309   2.192  52.189  1.00  0.00    -0.223 NA
HETATM   13  C11 UNL     1      27.934   1.654  53.278  1.00  0.00     0.236 A 
HETATM   14  N4  UNL     1      27.283   0.775  54.092  1.00  0.00    -0.240 NA
HETATM   15  C13 UNL     1      25.271  -0.436  54.571  1.00  0.00     0.151 A 
HETATM   16  N5  UNL     1      24.018  -0.749  54.270  1.00  0.00    -0.241 NA
BRANCH  10  17
HETATM   17  N2  UNL     1      25.462   2.453  50.768  1.00  0.00    -0.327 N 
HETATM   18  H4  UNL     1      24.740   2.134  50.109  1.00  0.00     0.174 HD
BRANCH  17  19
HETATM   19  S1  UNL     1      25.890   4.059  50.139  1.00  0.00    -0.138 SA
HETATM   20  C8  UNL     1      25.261   5.197  49.154  1.00  0.00     0.007 A 
HETATM   21  C9  UNL     1      26.404   5.817  49.251  1.00  0.00     0.102 A 
HETATM   22  C10 UNL     1      27.076   4.587  48.826  1.00  0.00     0.100 A 
ENDBRANCH  17  19
ENDBRANCH  10  17
ENDBRANCH   5   7
TORSDOF 3
ENDMDL
MODEL 5
REMARK VINA RESULT:      -6.8      3.183      4.563
REMARK  3 active torsions:
REMARK  status: ('A' for Active; 'I' for Inactive)
REMARK       I    between atoms: C3_3  and  N1_5 
REMARK    1  A    between atoms: N1_5  and  C4_6 
REMARK    2  A    between atoms: C7_9  and  N2_10 
REMARK    3  A    between atoms: N2_10  and  S1_11 
ROOT
HETATM    1  C1  UNL     1      27.644   5.399  48.512  1.00  0.00     0.022 C 
HETATM    2  C2  UNL     1      27.135   4.518  49.166  1.00  0.00    -0.016 C 
HETATM    3  C3  UNL     1      26.549   3.472  49.950  1.00  0.00     0.301 C 
HETATM    4  O1  UNL     1      25.634   2.825  49.406  1.00  0.00    -0.258 OA
HETATM    5  N1  UNL     1      26.945   3.148  51.270  1.00  0.00    -0.301 N 
HETATM    6  H2  UNL     1      27.717   3.766  51.598  1.00  0.00     0.171 HD
ENDROOT
BRANCH   5   7
HETATM    7  C4  UNL     1      26.432   2.140  52.120  1.00  0.00     0.131 A 
HETATM    8  C5  UNL     1      25.132   1.766  52.308  1.00  0.00     0.068 A 
HETATM    9  C6  UNL     1      24.734   0.771  53.160  1.00  0.00     0.044 A 
HETATM   10  C7  UNL     1      23.402   0.461  53.286  1.00  0.00     0.146 A 
HETATM   11  C12 UNL     1      25.657   0.083  53.891  1.00  0.00     0.089 A 
HETATM   12  N3  UNL     1      23.018  -0.512  54.121  1.00  0.00    -0.223 NA
HETATM   13  C11 UNL     1      23.956  -1.191  54.844  1.00  0.00     0.236 A 
HETATM   14  N4  UNL     1      25.281  -0.889  54.726  1.00  0.00    -0.240 NA
HETATM   15  C13 UNL     1      26.967   0.468  53.695  1.00  0.00     0.151 A 
HETATM   16  N5  UNL     1      27.309   1.438  52.858  1.00  0.00    -0.241 NA
BRANCH  10  17
HETATM   17  N2  UNL     1      22.367   1.121  52.569  1.00  0.00    -0.327 N 
HETATM   18  H4  UNL     1      22.315   2.046  52.121  1.00  0.00     0.174 HD
BRANCH  17  19
HETATM   19  S1  UNL     1      20.762   0.433  52.244  1.00  0.00    -0.138 SA
HETATM   20  C8  UNL     1      19.248   0.950  51.928  1.00  0.00     0.007 A 
HETATM   21  C9  UNL     1      18.871  -0.293  52.041  1.00  0.00     0.102 A 
HETATM   22  C10 UNL     1      19.508  -0.337  53.359  1.00  0.00     0.100 A 
ENDBRANCH  17  19
ENDBRANCH  10  17
ENDBRANCH   5   7
TORSDOF 3
ENDMDL
MODEL 6
REMARK VINA RESULT:      -6.8      2.758      6.444
REMARK  3 active torsions:
REMARK  status: ('A' for Active; 'I' for Inactive)
REMARK       I    between atoms: C3_3  and  N1_5 
REMARK    1  A    between atoms: N1_5  and  C4_6 
REMARK    2  A    between atoms: C7_9  and  N2_10 
REMARK    3  A    between atoms: N2_10  and  S1_11 
ROOT
HETATM    1  C1  UNL     1      19.355   3.661  48.932  1.00  0.00     0.022 C 
HETATM    2  C2  UNL     1      19.838   3.177  49.929  1.00  0.00    -0.016 C 
HETATM    3  C3  UNL     1      20.405   2.586  51.104  1.00  0.00     0.301 C 
HETATM    4  O1  UNL     1      20.393   3.287  52.134  1.00  0.00    -0.258 OA
HETATM    5  N1  UNL     1      20.961   1.284  51.153  1.00  0.00    -0.301 N 
HETATM    6  H2  UNL     1      20.904   0.812  50.226  1.00  0.00     0.171 HD
ENDROOT
BRANCH   5   7
HETATM    7  C4  UNL     1      21.539   0.615  52.256  1.00  0.00     0.131 A 
HETATM    8  C5  UNL     1      22.863   0.432  52.542  1.00  0.00     0.068 A 
HETATM    9  C6  UNL     1      23.327  -0.236  53.643  1.00  0.00     0.044 A 
HETATM   10  C7  UNL     1      24.677  -0.372  53.850  1.00  0.00     0.146 A 
HETATM   11  C12 UNL     1      22.450  -0.772  54.541  1.00  0.00     0.089 A 
HETATM   12  N3  UNL     1      25.126  -1.026  54.929  1.00  0.00    -0.223 NA
HETATM   13  C11 UNL     1      24.234  -1.555  55.817  1.00  0.00     0.236 A 
HETATM   14  N4  UNL     1      22.891  -1.425  55.618  1.00  0.00    -0.240 NA
HETATM   15  C13 UNL     1      21.117  -0.582  54.244  1.00  0.00     0.151 A 
HETATM   16  N5  UNL     1      20.711   0.072  53.164  1.00  0.00    -0.241 NA
BRANCH  10  17
HETATM   17  N2  UNL     1      25.667   0.150  52.973  1.00  0.00    -0.327 N 
HETATM   18  H4  UNL     1      25.606   0.621  52.061  1.00  0.00     0.174 HD
BRANCH  17  19
HETATM   19  S1  UNL     1      27.416   0.108  53.279  1.00  0.00    -0.138 SA
HETATM   20  C8  UNL     1      28.634  -0.976  53.281  1.00  0.00     0.007 A 
HETATM   21  C9  UNL     1      29.382  -0.035  53.788  1.00  0.00     0.102 A 
HETATM   22  C10 UNL     1      28.389   0.145  54.849  1.00  0.00     0.100 A 
ENDBRANCH  17  19
ENDBRANCH  10  17
ENDBRANCH   5   7
TORSDOF 3
ENDMDL
MODEL 7
REMARK VINA RESULT:      -6.8      2.086      2.591
REMARK  3 active torsions:
REMARK  status: ('A' for Active; 'I' for Inactive)
REMARK       I    between atoms: C3_3  and  N1_5 
REMARK    1  A    between atoms: N1_5  and  C4_6 
REMARK    2  A    between atoms: C7_9  and  N2_10 
REMARK    3  A    between atoms: N2_10  and  S1_11 
ROOT
HETATM    1  C1  UNL     1      29.831  -0.887  53.810  1.00  0.00     0.022 C 
HETATM    2  C2  UNL     1      28.697  -0.481  53.909  1.00  0.00    -0.016 C 
HETATM    3  C3  UNL     1      27.350  -0.000  54.006  1.00  0.00     0.301 C 
HETATM    4  O1  UNL     1      27.107   0.765  54.958  1.00  0.00    -0.258 OA
HETATM    5  N1  UNL     1      26.315  -0.342  53.102  1.00  0.00    -0.301 N 
HETATM    6  H2  UNL     1      26.657  -0.986  52.357  1.00  0.00     0.171 HD
ENDROOT
BRANCH   5   7
HETATM    7  C4  UNL     1      24.964   0.078  53.111  1.00  0.00     0.131 A 
HETATM    8  C5  UNL     1      24.416   1.194  52.547  1.00  0.00     0.068 A 
HETATM    9  C6  UNL     1      23.087   1.515  52.612  1.00  0.00     0.044 A 
HETATM   10  C7  UNL     1      22.623   2.661  52.013  1.00  0.00     0.146 A 
HETATM   11  C12 UNL     1      22.215   0.700  53.273  1.00  0.00     0.089 A 
HETATM   12  N3  UNL     1      21.322   2.970  52.080  1.00  0.00    -0.223 NA
HETATM   13  C11 UNL     1      20.465   2.142  52.745  1.00  0.00     0.236 A 
HETATM   14  N4  UNL     1      20.917   1.003  53.343  1.00  0.00    -0.240 NA
HETATM   15  C13 UNL     1      22.778  -0.424  53.839  1.00  0.00     0.151 A 
HETATM   16  N5  UNL     1      24.073  -0.697  53.752  1.00  0.00    -0.241 NA
BRANCH  10  17
HETATM   17  N2  UNL     1      23.452   3.572  51.304  1.00  0.00    -0.327 N 
HETATM   18  H4  UNL     1      24.371   3.982  51.516  1.00  0.00     0.174 HD
BRANCH  17  19
HETATM   19  S1  UNL     1      23.055   4.286  49.727  1.00  0.00    -0.138 SA
HETATM   20  C8  UNL     1      23.768   5.198  48.579  1.00  0.00     0.007 A 
HETATM   21  C9  UNL     1      22.600   5.271  48.004  1.00  0.00     0.102 A 
HETATM   22  C10 UNL     1      22.039   5.758  49.266  1.00  0.00     0.100 A 
ENDBRANCH  17  19
ENDBRANCH  10  17
ENDBRANCH   5   7
TORSDOF 3
ENDMDL
MODEL 8
REMARK VINA RESULT:      -6.7      2.718      5.577
REMARK  3 active torsions:
REMARK  status: ('A' for Active; 'I' for Inactive)
REMARK       I    between atoms: C3_3  and  N1_5 
REMARK    1  A    between atoms: N1_5  and  C4_6 
REMARK    2  A    between atoms: C7_9  and  N2_10 
REMARK    3  A    between atoms: N2_10  and  S1_11 
ROOT
HETATM    1  C1  UNL     1      23.379   4.810  48.341  1.00  0.00     0.022 C 
HETATM    2  C2  UNL     1      23.326   4.207  49.388  1.00  0.00    -0.016 C 
HETATM    3  C3  UNL     1      23.253   3.477  50.618  1.00  0.00     0.301 C 
HETATM    4  O1  UNL     1      23.263   4.158  51.662  1.00  0.00    -0.258 OA
HETATM    5  N1  UNL     1      23.172   2.066  50.706  1.00  0.00    -0.301 N 
HETATM    6  H2  UNL     1      23.171   1.627  49.761  1.00  0.00     0.171 HD
ENDROOT
BRANCH   5   7
HETATM    7  C4  UNL     1      23.095   1.259  51.864  1.00  0.00     0.131 A 
HETATM    8  C5  UNL     1      24.106   0.616  52.521  1.00  0.00     0.068 A 
HETATM    9  C6  UNL     1      23.929  -0.148  53.644  1.00  0.00     0.044 A 
HETATM   10  C7  UNL     1      25.005  -0.759  54.239  1.00  0.00     0.146 A 
HETATM   11  C12 UNL     1      22.684  -0.310  54.175  1.00  0.00     0.089 A 
HETATM   12  N3  UNL     1      24.828  -1.506  55.336  1.00  0.00    -0.223 NA
HETATM   13  C11 UNL     1      23.573  -1.655  55.855  1.00  0.00     0.236 A 
HETATM   14  N4  UNL     1      22.500  -1.053  55.269  1.00  0.00    -0.240 NA
HETATM   15  C13 UNL     1      21.671   0.343  53.505  1.00  0.00     0.151 A 
HETATM   16  N5  UNL     1      21.886   1.074  52.420  1.00  0.00    -0.241 NA
BRANCH  10  17
HETATM   17  N2  UNL     1      26.339  -0.651  53.760  1.00  0.00    -0.327 N 
HETATM   18  H4  UNL     1      26.975  -1.330  53.321  1.00  0.00     0.174 HD
BRANCH  17  19
HETATM   19  S1  UNL     1      27.317   0.831  53.809  1.00  0.00    -0.138 SA
HETATM   20  C8  UNL     1      27.811   2.008  52.795  1.00  0.00     0.007 A 
HETATM   21  C9  UNL     1      28.567   2.438  53.767  1.00  0.00     0.102 A 
HETATM   22  C10 UNL     1      29.143   1.096  53.875  1.00  0.00     0.100 A 
ENDBRANCH  17  19
ENDBRANCH  10  17
ENDBRANCH   5   7
TORSDOF 3
ENDMDL
MODEL 9
REMARK VINA RESULT:      -6.6      3.448      4.422
REMARK  3 active torsions:
REMARK  status: ('A' for Active; 'I' for Inactive)
REMARK       I    between atoms: C3_3  and  N1_5 
REMARK    1  A    between atoms: N1_5  and  C4_6 
REMARK    2  A    between atoms: C7_9  and  N2_10 
REMARK    3  A    between atoms: N2_10  and  S1_11 
ROOT
HETATM    1  C1  UNL     1      27.665   5.701  48.406  1.00  0.00     0.022 C 
HETATM    2  C2  UNL     1      27.064   4.849  49.018  1.00  0.00    -0.016 C 
HETATM    3  C3  UNL     1      26.370   3.833  49.752  1.00  0.00     0.301 C 
HETATM    4  O1  UNL     1      25.324   3.398  49.233  1.00  0.00    -0.258 OA
HETATM    5  N1  UNL     1      26.799   3.316  50.999  1.00  0.00    -0.301 N 
HETATM    6  H2  UNL     1      27.684   3.767  51.313  1.00  0.00     0.171 HD
ENDROOT
BRANCH   5   7
HETATM    7  C4  UNL     1      26.188   2.320  51.796  1.00  0.00     0.131 A 
HETATM    8  C5  UNL     1      24.858   2.106  52.017  1.00  0.00     0.068 A 
HETATM    9  C6  UNL     1      24.361   1.107  52.812  1.00  0.00     0.044 A 
HETATM   10  C7  UNL     1      23.006   0.966  52.978  1.00  0.00     0.146 A 
HETATM   11  C12 UNL     1      25.211   0.247  53.444  1.00  0.00     0.089 A 
HETATM   12  N3  UNL     1      22.525  -0.012  53.756  1.00  0.00    -0.223 NA
HETATM   13  C11 UNL     1      23.391  -0.864  54.381  1.00  0.00     0.236 A 
HETATM   14  N4  UNL     1      24.739  -0.730  54.221  1.00  0.00    -0.240 NA
HETATM   15  C13 UNL     1      26.551   0.471  53.214  1.00  0.00     0.151 A 
HETATM   16  N5  UNL     1      26.989   1.452  52.436  1.00  0.00    -0.241 NA
BRANCH  10  17
HETATM   17  N2  UNL     1      22.043   1.811  52.363  1.00  0.00    -0.327 N 
HETATM   18  H4  UNL     1      21.511   2.622  52.707  1.00  0.00     0.174 HD
BRANCH  17  19
HETATM   19  S1  UNL     1      21.477   1.650  50.687  1.00  0.00    -0.138 SA
HETATM   20  C8  UNL     1      22.095   1.661  49.178  1.00  0.00     0.007 A 
HETATM   21  C9  UNL     1      20.865   1.649  48.745  1.00  0.00     0.102 A 
HETATM   22  C10 UNL     1      20.592   2.826  49.571  1.00  0.00     0.100 A 
ENDBRANCH  17  19
ENDBRANCH  10  17
ENDBRANCH   5   7
TORSDOF 3
ENDMDL
