MODEL 1
REMARK VINA RESULT:      -9.4      0.000      0.000
REMARK  8 active torsions:
REMARK  status: ('A' for Active; 'I' for Inactive)
REMARK    1  A    between atoms: C2_2  and  C3_3 
REMARK    2  A    between atoms: C3_3  and  C15_17 
REMARK    3  A    between atoms: C4_4  and  C5_5 
REMARK    4  A    between atoms: C6_6  and  N1_8 
REMARK       I    between atoms: N1_8  and  C8_9 
REMARK    5  A    between atoms: C8_9  and  C9_11 
REMARK    6  A    between atoms: C15_17  and  N2_18 
REMARK    7  A    between atoms: N2_18  and  C16_19 
REMARK    8  A    between atoms: C19_23  and  C20_24 
ROOT
HETATM    1  C3  UNL     1      25.587   5.047  49.392  1.00  0.00    -0.062 C 
HETATM    2  C4  UNL     1      26.798   4.786  48.975  1.00  0.00     0.006 C 
ENDROOT
BRANCH   1   3
HETATM    3  C2  UNL     1      24.800   6.275  49.618  1.00  0.00     0.031 C 
HETATM    4  C1  UNL     1      25.662   7.309  50.283  1.00  0.00     0.010 C 
ENDBRANCH   1   3
BRANCH   1   5
HETATM    5  C15 UNL     1      24.691   3.929  49.751  1.00  0.00     0.172 C 
BRANCH   5   6
HETATM    6  N2  UNL     1      25.368   2.977  50.598  1.00  0.00    -0.218 N 
HETATM    7  H19 UNL     1      26.427   2.960  50.558  1.00  0.00     0.178 HD
BRANCH   6   8
HETATM    8  C16 UNL     1      24.891   1.981  51.533  1.00  0.00     0.723 A 
HETATM    9  N3  UNL     1      23.765   1.679  52.178  1.00  0.00    -0.075 NA
HETATM   10  C17 UNL     1      23.635   0.642  52.991  1.00  0.00     0.139 A 
HETATM   11  C18 UNL     1      24.681  -0.215  53.230  1.00  0.00     0.053 A 
HETATM   12  C19 UNL     1      25.845   0.077  52.577  1.00  0.00     0.089 A 
HETATM   13  N5  UNL     1      25.923   1.136  51.770  1.00  0.00    -0.062 NA
BRANCH  12  14
HETATM   14  C20 UNL     1      26.981  -0.816  52.788  1.00  0.00     0.011 A 
HETATM   15  C21 UNL     1      28.148  -0.232  53.249  1.00  0.00     0.017 A 
HETATM   16  C22 UNL     1      29.327  -0.899  53.509  1.00  0.00     0.020 A 
HETATM   17  C23 UNL     1      29.266  -2.276  53.262  1.00  0.00     0.116 A 
HETATM   18  N4  UNL     1      28.132  -2.849  52.812  1.00  0.00    -0.272 NA
HETATM   19  C24 UNL     1      27.005  -2.163  52.573  1.00  0.00     0.130 A 
ENDBRANCH  12  14
ENDBRANCH   6   8
ENDBRANCH   5   6
ENDBRANCH   1   5
BRANCH   2  20
HETATM   20  C5  UNL     1      28.119   5.110  48.493  1.00  0.00     0.025 C 
HETATM   21  C6  UNL     1      29.071   5.949  48.175  1.00  0.00     0.008 C 
HETATM   22  C7  UNL     1      28.891   7.433  48.316  1.00  0.00     0.068 C 
BRANCH  21  23
HETATM   23  N1  UNL     1      30.277   5.393  47.694  1.00  0.00    -0.327 N 
HETATM   24  C8  UNL     1      31.460   5.211  48.484  1.00  0.00     0.255 C 
HETATM   25  O1  UNL     1      31.308   5.607  49.670  1.00  0.00    -0.267 OA
HETATM   26  H11 UNL     1      30.318   5.085  46.675  1.00  0.00     0.169 HD
BRANCH  24  27
HETATM   27  C9  UNL     1      32.695   4.633  47.967  1.00  0.00     0.032 A 
HETATM   28  C10 UNL     1      33.976   5.121  48.179  1.00  0.00     0.017 A 
HETATM   29  C11 UNL     1      35.061   4.481  47.627  1.00  0.00     0.001 A 
HETATM   30  C12 UNL     1      34.918   3.332  46.843  1.00  0.00     0.000 A 
HETATM   31  C13 UNL     1      33.632   2.843  46.631  1.00  0.00     0.001 A 
HETATM   32  C14 UNL     1      32.557   3.500  47.194  1.00  0.00     0.017 A 
ENDBRANCH  24  27
ENDBRANCH  21  23
ENDBRANCH   2  20
TORSDOF 8
ENDMDL
MODEL 2
REMARK VINA RESULT:      -9.1      1.484      3.282
REMARK  8 active torsions:
REMARK  status: ('A' for Active; 'I' for Inactive)
REMARK    1  A    between atoms: C2_2  and  C3_3 
REMARK    2  A    between atoms: C3_3  and  C15_17 
REMARK    3  A    between atoms: C4_4  and  C5_5 
REMARK    4  A    between atoms: C6_6  and  N1_8 
REMARK       I    between atoms: N1_8  and  C8_9 
REMARK    5  A    between atoms: C8_9  and  C9_11 
REMARK    6  A    between atoms: C15_17  and  N2_18 
REMARK    7  A    between atoms: N2_18  and  C16_19 
REMARK    8  A    between atoms: C19_23  and  C20_24 
ROOT
HETATM    1  C3  UNL     1      26.094   4.960  49.303  1.00  0.00    -0.062 C 
HETATM    2  C4  UNL     1      27.338   4.783  48.947  1.00  0.00     0.006 C 
ENDROOT
BRANCH   1   3
HETATM    3  C2  UNL     1      25.116   6.059  49.179  1.00  0.00     0.031 C 
HETATM    4  C1  UNL     1      25.592   7.042  48.149  1.00  0.00     0.010 C 
ENDBRANCH   1   3
BRANCH   1   5
HETATM    5  C15 UNL     1      25.382   3.872  50.004  1.00  0.00     0.172 C 
BRANCH   5   6
HETATM    6  N2  UNL     1      26.156   3.383  51.119  1.00  0.00    -0.218 N 
HETATM    7  H19 UNL     1      26.813   4.068  51.590  1.00  0.00     0.178 HD
BRANCH   6   8
HETATM    8  C16 UNL     1      26.240   2.091  51.765  1.00  0.00     0.723 A 
HETATM    9  N3  UNL     1      27.170   1.181  52.052  1.00  0.00    -0.075 NA
HETATM   10  C17 UNL     1      26.923   0.053  52.701  1.00  0.00     0.139 A 
HETATM   11  C18 UNL     1      25.659  -0.261  53.134  1.00  0.00     0.053 A 
HETATM   12  C19 UNL     1      24.691   0.661  52.850  1.00  0.00     0.089 A 
HETATM   13  N5  UNL     1      24.993   1.781  52.192  1.00  0.00    -0.062 NA
BRANCH  12  14
HETATM   14  C20 UNL     1      23.333   0.378  53.305  1.00  0.00     0.011 A 
HETATM   15  C21 UNL     1      23.177  -0.712  54.142  1.00  0.00     0.017 A 
HETATM   16  C22 UNL     1      21.982  -1.146  54.677  1.00  0.00     0.020 A 
HETATM   17  C23 UNL     1      20.878  -0.371  54.300  1.00  0.00     0.116 A 
HETATM   18  N4  UNL     1      21.025   0.693  53.486  1.00  0.00    -0.272 NA
HETATM   19  C24 UNL     1      22.207   1.081  52.987  1.00  0.00     0.130 A 
ENDBRANCH  12  14
ENDBRANCH   6   8
ENDBRANCH   5   6
ENDBRANCH   1   5
BRANCH   2  20
HETATM   20  C5  UNL     1      28.600   5.154  48.352  1.00  0.00     0.025 C 
HETATM   21  C6  UNL     1      29.534   6.016  48.043  1.00  0.00     0.008 C 
HETATM   22  C7  UNL     1      29.429   7.463  48.428  1.00  0.00     0.068 C 
BRANCH  21  23
HETATM   23  N1  UNL     1      30.649   5.519  47.331  1.00  0.00    -0.327 N 
HETATM   24  C8  UNL     1      31.856   5.042  47.941  1.00  0.00     0.255 C 
HETATM   25  O1  UNL     1      31.817   5.114  49.198  1.00  0.00    -0.267 OA
HETATM   26  H11 UNL     1      30.597   5.495  46.268  1.00  0.00     0.169 HD
BRANCH  24  27
HETATM   27  C9  UNL     1      32.995   4.532  47.186  1.00  0.00     0.032 A 
HETATM   28  C10 UNL     1      34.015   3.736  47.686  1.00  0.00     0.017 A 
HETATM   29  C11 UNL     1      35.039   3.326  46.865  1.00  0.00     0.001 A 
HETATM   30  C12 UNL     1      35.091   3.689  45.515  1.00  0.00     0.000 A 
HETATM   31  C13 UNL     1      34.067   4.487  45.015  1.00  0.00     0.001 A 
HETATM   32  C14 UNL     1      33.049   4.888  45.855  1.00  0.00     0.017 A 
ENDBRANCH  24  27
ENDBRANCH  21  23
ENDBRANCH   2  20
TORSDOF 8
ENDMDL
MODEL 3
REMARK VINA RESULT:      -8.8      4.740      6.538
REMARK  8 active torsions:
REMARK  status: ('A' for Active; 'I' for Inactive)
REMARK    1  A    between atoms: C2_2  and  C3_3 
REMARK    2  A    between atoms: C3_3  and  C15_17 
REMARK    3  A    between atoms: C4_4  and  C5_5 
REMARK    4  A    between atoms: C6_6  and  N1_8 
REMARK       I    between atoms: N1_8  and  C8_9 
REMARK    5  A    between atoms: C8_9  and  C9_11 
REMARK    6  A    between atoms: C15_17  and  N2_18 
REMARK    7  A    between atoms: N2_18  and  C16_19 
REMARK    8  A    between atoms: C19_23  and  C20_24 
ROOT
HETATM    1  C3  UNL     1      21.911   2.802  48.465  1.00  0.00    -0.062 C 
HETATM    2  C4  UNL     1      22.819   2.744  49.402  1.00  0.00     0.006 C 
ENDROOT
BRANCH   1   3
HETATM    3  C2  UNL     1      21.930   2.875  46.991  1.00  0.00     0.031 C 
HETATM    4  C1  UNL     1      21.162   4.082  46.537  1.00  0.00     0.010 C 
ENDBRANCH   1   3
BRANCH   1   5
HETATM    5  C15 UNL     1      20.483   2.800  48.843  1.00  0.00     0.172 C 
BRANCH   5   6
HETATM    6  N2  UNL     1      20.009   1.454  49.064  1.00  0.00    -0.218 N 
HETATM    7  H19 UNL     1      20.148   0.757  48.279  1.00  0.00     0.178 HD
BRANCH   6   8
HETATM    8  C16 UNL     1      19.346   0.817  50.182  1.00  0.00     0.723 A 
HETATM    9  N3  UNL     1      18.111   0.465  50.536  1.00  0.00    -0.075 NA
HETATM   10  C17 UNL     1      17.816  -0.150  51.672  1.00  0.00     0.139 A 
HETATM   11  C18 UNL     1      18.790  -0.475  52.583  1.00  0.00     0.053 A 
HETATM   12  C19 UNL     1      20.064  -0.121  52.237  1.00  0.00     0.089 A 
HETATM   13  N5  UNL     1      20.306   0.497  51.081  1.00  0.00    -0.062 NA
BRANCH  12  14
HETATM   14  C20 UNL     1      21.136  -0.461  53.169  1.00  0.00     0.011 A 
HETATM   15  C21 UNL     1      22.420  -0.123  52.780  1.00  0.00     0.017 A 
HETATM   16  C22 UNL     1      23.565  -0.357  53.513  1.00  0.00     0.020 A 
HETATM   17  C23 UNL     1      23.333  -0.993  54.739  1.00  0.00     0.116 A 
HETATM   18  N4  UNL     1      22.083  -1.324  55.122  1.00  0.00    -0.272 NA
HETATM   19  C24 UNL     1      20.996  -1.077  54.378  1.00  0.00     0.130 A 
ENDBRANCH  12  14
ENDBRANCH   6   8
ENDBRANCH   5   6
ENDBRANCH   1   5
BRANCH   2  20
HETATM   20  C5  UNL     1      24.163   2.697  49.927  1.00  0.00     0.025 C 
HETATM   21  C6  UNL     1      25.305   3.243  50.256  1.00  0.00     0.008 C 
HETATM   22  C7  UNL     1      25.563   4.709  50.061  1.00  0.00     0.068 C 
BRANCH  21  23
HETATM   23  N1  UNL     1      26.286   2.387  50.806  1.00  0.00    -0.327 N 
HETATM   24  C8  UNL     1      26.358   2.017  52.190  1.00  0.00     0.255 C 
HETATM   25  O1  UNL     1      25.442   2.545  52.874  1.00  0.00    -0.267 OA
HETATM   26  H11 UNL     1      27.025   1.984  50.154  1.00  0.00     0.169 HD
BRANCH  24  27
HETATM   27  C9  UNL     1      27.379   1.130  52.736  1.00  0.00     0.032 A 
HETATM   28  C10 UNL     1      28.556   1.523  53.354  1.00  0.00     0.017 A 
HETATM   29  C11 UNL     1      29.442   0.581  53.822  1.00  0.00     0.001 A 
HETATM   30  C12 UNL     1      29.193  -0.790  53.697  1.00  0.00     0.000 A 
HETATM   31  C13 UNL     1      28.011  -1.183  53.077  1.00  0.00     0.001 A 
HETATM   32  C14 UNL     1      27.136  -0.222  52.613  1.00  0.00     0.017 A 
ENDBRANCH  24  27
ENDBRANCH  21  23
ENDBRANCH   2  20
TORSDOF 8
ENDMDL
MODEL 4
REMARK VINA RESULT:      -8.7      1.401      1.709
REMARK  8 active torsions:
REMARK  status: ('A' for Active; 'I' for Inactive)
REMARK    1  A    between atoms: C2_2  and  C3_3 
REMARK    2  A    between atoms: C3_3  and  C15_17 
REMARK    3  A    between atoms: C4_4  and  C5_5 
REMARK    4  A    between atoms: C6_6  and  N1_8 
REMARK       I    between atoms: N1_8  and  C8_9 
REMARK    5  A    between atoms: C8_9  and  C9_11 
REMARK    6  A    between atoms: C15_17  and  N2_18 
REMARK    7  A    between atoms: N2_18  and  C16_19 
REMARK    8  A    between atoms: C19_23  and  C20_24 
ROOT
HETATM    1  C3  UNL     1      26.155   5.701  49.341  1.00  0.00    -0.062 C 
HETATM    2  C4  UNL     1      27.264   5.457  48.695  1.00  0.00     0.006 C 
ENDROOT
BRANCH   1   3
HETATM    3  C2  UNL     1      25.626   6.837  50.121  1.00  0.00     0.031 C 
HETATM    4  C1  UNL     1      26.062   8.127  49.490  1.00  0.00     0.010 C 
ENDBRANCH   1   3
BRANCH   1   5
HETATM    5  C15 UNL     1      25.095   4.673  49.369  1.00  0.00     0.172 C 
BRANCH   5   6
HETATM    6  N2  UNL     1      24.555   4.524  50.699  1.00  0.00    -0.218 N 
HETATM    7  H19 UNL     1      24.416   5.407  51.267  1.00  0.00     0.178 HD
BRANCH   6   8
HETATM    8  C16 UNL     1      24.147   3.369  51.470  1.00  0.00     0.723 A 
HETATM    9  N3  UNL     1      23.025   2.713  51.762  1.00  0.00    -0.075 NA
HETATM   10  C17 UNL     1      22.980   1.626  52.518  1.00  0.00     0.139 A 
HETATM   11  C18 UNL     1      24.118   1.089  53.065  1.00  0.00     0.053 A 
HETATM   12  C19 UNL     1      25.281   1.748  52.778  1.00  0.00     0.089 A 
HETATM   13  N5  UNL     1      25.270   2.839  52.011  1.00  0.00    -0.062 NA
BRANCH  12  14
HETATM   14  C20 UNL     1      26.520   1.204  53.326  1.00  0.00     0.011 A 
HETATM   15  C21 UNL     1      27.571   2.091  53.474  1.00  0.00     0.017 A 
HETATM   16  C22 UNL     1      28.819   1.777  53.970  1.00  0.00     0.020 A 
HETATM   17  C23 UNL     1      28.963   0.432  54.331  1.00  0.00     0.116 A 
HETATM   18  N4  UNL     1      27.942  -0.437  54.188  1.00  0.00    -0.272 NA
HETATM   19  C24 UNL     1      26.742  -0.089  53.702  1.00  0.00     0.130 A 
ENDBRANCH  12  14
ENDBRANCH   6   8
ENDBRANCH   5   6
ENDBRANCH   1   5
BRANCH   2  20
HETATM   20  C5  UNL     1      28.585   5.754  48.195  1.00  0.00     0.025 C 
HETATM   21  C6  UNL     1      29.630   6.527  48.050  1.00  0.00     0.008 C 
HETATM   22  C7  UNL     1      29.687   7.897  48.661  1.00  0.00     0.068 C 
BRANCH  21  23
HETATM   23  N1  UNL     1      30.705   6.011  47.292  1.00  0.00    -0.327 N 
HETATM   24  C8  UNL     1      31.788   5.243  47.836  1.00  0.00     0.255 C 
HETATM   25  O1  UNL     1      31.678   5.075  49.079  1.00  0.00    -0.267 OA
HETATM   26  H11 UNL     1      30.720   6.201  46.245  1.00  0.00     0.169 HD
BRANCH  24  27
HETATM   27  C9  UNL     1      32.888   4.718  47.034  1.00  0.00     0.032 A 
HETATM   28  C10 UNL     1      33.095   4.950  45.683  1.00  0.00     0.017 A 
HETATM   29  C11 UNL     1      34.174   4.388  45.041  1.00  0.00     0.001 A 
HETATM   30  C12 UNL     1      35.090   3.575  45.716  1.00  0.00     0.000 A 
HETATM   31  C13 UNL     1      34.881   3.343  47.071  1.00  0.00     0.001 A 
HETATM   32  C14 UNL     1      33.792   3.916  47.697  1.00  0.00     0.017 A 
ENDBRANCH  24  27
ENDBRANCH  21  23
ENDBRANCH   2  20
TORSDOF 8
ENDMDL
MODEL 5
REMARK VINA RESULT:      -8.7      3.089      9.534
REMARK  8 active torsions:
REMARK  status: ('A' for Active; 'I' for Inactive)
REMARK    1  A    between atoms: C2_2  and  C3_3 
REMARK    2  A    between atoms: C3_3  and  C15_17 
REMARK    3  A    between atoms: C4_4  and  C5_5 
REMARK    4  A    between atoms: C6_6  and  N1_8 
REMARK       I    between atoms: N1_8  and  C8_9 
REMARK    5  A    between atoms: C8_9  and  C9_11 
REMARK    6  A    between atoms: C15_17  and  N2_18 
REMARK    7  A    between atoms: N2_18  and  C16_19 
REMARK    8  A    between atoms: C19_23  and  C20_24 
ROOT
HETATM    1  C3  UNL     1      26.590   5.341  48.928  1.00  0.00    -0.062 C 
HETATM    2  C4  UNL     1      26.088   4.212  49.355  1.00  0.00     0.006 C 
ENDROOT
BRANCH   1   3
HETATM    3  C2  UNL     1      26.065   6.702  48.705  1.00  0.00     0.031 C 
HETATM    4  C1  UNL     1      24.651   6.620  48.208  1.00  0.00     0.010 C 
ENDBRANCH   1   3
BRANCH   1   5
HETATM    5  C15 UNL     1      28.016   5.398  48.547  1.00  0.00     0.172 C 
BRANCH   5   6
HETATM    6  N2  UNL     1      28.564   6.710  48.791  1.00  0.00    -0.218 N 
HETATM    7  H19 UNL     1      27.915   7.436  49.210  1.00  0.00     0.178 HD
BRANCH   6   8
HETATM    8  C16 UNL     1      29.874   7.285  48.571  1.00  0.00     0.723 A 
HETATM    9  N3  UNL     1      30.430   8.493  48.494  1.00  0.00    -0.075 NA
HETATM   10  C17 UNL     1      31.723   8.698  48.291  1.00  0.00     0.139 A 
HETATM   11  C18 UNL     1      32.599   7.651  48.145  1.00  0.00     0.053 A 
HETATM   12  C19 UNL     1      32.047   6.403  48.221  1.00  0.00     0.089 A 
HETATM   13  N5  UNL     1      30.738   6.252  48.426  1.00  0.00    -0.062 NA
BRANCH  12  14
HETATM   14  C20 UNL     1      32.943   5.258  48.088  1.00  0.00     0.011 A 
HETATM   15  C21 UNL     1      32.367   4.070  47.675  1.00  0.00     0.017 A 
HETATM   16  C22 UNL     1      33.037   2.878  47.490  1.00  0.00     0.020 A 
HETATM   17  C23 UNL     1      34.409   2.952  47.761  1.00  0.00     0.116 A 
HETATM   18  N4  UNL     1      34.974   4.107  48.163  1.00  0.00    -0.272 NA
HETATM   19  C24 UNL     1      34.285   5.245  48.330  1.00  0.00     0.130 A 
ENDBRANCH  12  14
ENDBRANCH   6   8
ENDBRANCH   5   6
ENDBRANCH   1   5
BRANCH   2  20
HETATM   20  C5  UNL     1      25.051   3.342  49.856  1.00  0.00     0.025 C 
HETATM   21  C6  UNL     1      23.826   2.883  49.881  1.00  0.00     0.008 C 
HETATM   22  C7  UNL     1      22.764   3.421  48.967  1.00  0.00     0.068 C 
BRANCH  21  23
HETATM   23  N1  UNL     1      23.551   1.853  50.809  1.00  0.00    -0.327 N 
HETATM   24  C8  UNL     1      23.008   2.064  52.119  1.00  0.00     0.255 C 
HETATM   25  O1  UNL     1      22.800   3.283  52.360  1.00  0.00    -0.267 OA
HETATM   26  H11 UNL     1      23.759   0.849  50.523  1.00  0.00     0.169 HD
BRANCH  24  27
HETATM   27  C9  UNL     1      22.730   0.986  53.061  1.00  0.00     0.032 A 
HETATM   28  C10 UNL     1      21.493   0.675  53.605  1.00  0.00     0.017 A 
HETATM   29  C11 UNL     1      21.368  -0.369  54.491  1.00  0.00     0.001 A 
HETATM   30  C12 UNL     1      22.466  -1.147  54.872  1.00  0.00     0.000 A 
HETATM   31  C13 UNL     1      23.707  -0.835  54.326  1.00  0.00     0.001 A 
HETATM   32  C14 UNL     1      23.811   0.217  53.438  1.00  0.00     0.017 A 
ENDBRANCH  24  27
ENDBRANCH  21  23
ENDBRANCH   2  20
TORSDOF 8
ENDMDL
MODEL 6
REMARK VINA RESULT:      -8.4      2.543      3.395
REMARK  8 active torsions:
REMARK  status: ('A' for Active; 'I' for Inactive)
REMARK    1  A    between atoms: C2_2  and  C3_3 
REMARK    2  A    between atoms: C3_3  and  C15_17 
REMARK    3  A    between atoms: C4_4  and  C5_5 
REMARK    4  A    between atoms: C6_6  and  N1_8 
REMARK       I    between atoms: N1_8  and  C8_9 
REMARK    5  A    between atoms: C8_9  and  C9_11 
REMARK    6  A    between atoms: C15_17  and  N2_18 
REMARK    7  A    between atoms: N2_18  and  C16_19 
REMARK    8  A    between atoms: C19_23  and  C20_24 
ROOT
HETATM    1  C3  UNL     1      26.019   5.078  49.185  1.00  0.00    -0.062 C 
HETATM    2  C4  UNL     1      27.263   4.870  48.843  1.00  0.00     0.006 C 
ENDROOT
BRANCH   1   3
HETATM    3  C2  UNL     1      25.093   6.225  49.117  1.00  0.00     0.031 C 
HETATM    4  C1  UNL     1      25.499   7.134  47.993  1.00  0.00     0.010 C 
ENDBRANCH   1   3
BRANCH   1   5
HETATM    5  C15 UNL     1      25.245   3.979  49.797  1.00  0.00     0.172 C 
BRANCH   5   6
HETATM    6  N2  UNL     1      24.230   4.494  50.685  1.00  0.00    -0.218 N 
HETATM    7  H19 UNL     1      24.432   5.414  51.169  1.00  0.00     0.178 HD
BRANCH   6   8
HETATM    8  C16 UNL     1      22.930   3.998  51.083  1.00  0.00     0.723 A 
HETATM    9  N3  UNL     1      21.647   4.302  50.892  1.00  0.00    -0.075 NA
HETATM   10  C17 UNL     1      20.640   3.610  51.403  1.00  0.00     0.139 A 
HETATM   11  C18 UNL     1      20.858   2.501  52.182  1.00  0.00     0.053 A 
HETATM   12  C19 UNL     1      22.168   2.172  52.390  1.00  0.00     0.089 A 
HETATM   13  N5  UNL     1      23.144   2.905  51.853  1.00  0.00    -0.062 NA
BRANCH  12  14
HETATM   14  C20 UNL     1      22.448   0.990  53.201  1.00  0.00     0.011 A 
HETATM   15  C21 UNL     1      21.384   0.461  53.908  1.00  0.00     0.017 A 
HETATM   16  C22 UNL     1      21.441  -0.646  54.729  1.00  0.00     0.020 A 
HETATM   17  C23 UNL     1      22.711  -1.230  54.805  1.00  0.00     0.116 A 
HETATM   18  N4  UNL     1      23.751  -0.718  54.118  1.00  0.00    -0.272 NA
HETATM   19  C24 UNL     1      23.652   0.362  53.329  1.00  0.00     0.130 A 
ENDBRANCH  12  14
ENDBRANCH   6   8
ENDBRANCH   5   6
ENDBRANCH   1   5
BRANCH   2  20
HETATM   20  C5  UNL     1      28.552   5.223  48.298  1.00  0.00     0.025 C 
HETATM   21  C6  UNL     1      29.522   6.065  48.051  1.00  0.00     0.008 C 
HETATM   22  C7  UNL     1      29.451   7.498  48.491  1.00  0.00     0.068 C 
BRANCH  21  23
HETATM   23  N1  UNL     1      30.641   5.561  47.350  1.00  0.00    -0.327 N 
HETATM   24  C8  UNL     1      31.832   5.062  47.973  1.00  0.00     0.255 C 
HETATM   25  O1  UNL     1      31.774   5.122  49.231  1.00  0.00    -0.267 OA
HETATM   26  H11 UNL     1      30.604   5.548  46.286  1.00  0.00     0.169 HD
BRANCH  24  27
HETATM   27  C9  UNL     1      32.976   4.545  47.230  1.00  0.00     0.032 A 
HETATM   28  C10 UNL     1      33.971   3.721  47.734  1.00  0.00     0.017 A 
HETATM   29  C11 UNL     1      35.003   3.307  46.925  1.00  0.00     0.001 A 
HETATM   30  C12 UNL     1      35.087   3.693  45.583  1.00  0.00     0.000 A 
HETATM   31  C13 UNL     1      34.088   4.519  45.079  1.00  0.00     0.001 A 
HETATM   32  C14 UNL     1      33.061   4.924  45.907  1.00  0.00     0.017 A 
ENDBRANCH  24  27
ENDBRANCH  21  23
ENDBRANCH   2  20
TORSDOF 8
ENDMDL
MODEL 7
REMARK VINA RESULT:      -8.2      2.279      8.168
REMARK  8 active torsions:
REMARK  status: ('A' for Active; 'I' for Inactive)
REMARK    1  A    between atoms: C2_2  and  C3_3 
REMARK    2  A    between atoms: C3_3  and  C15_17 
REMARK    3  A    between atoms: C4_4  and  C5_5 
REMARK    4  A    between atoms: C6_6  and  N1_8 
REMARK       I    between atoms: N1_8  and  C8_9 
REMARK    5  A    between atoms: C8_9  and  C9_11 
REMARK    6  A    between atoms: C15_17  and  N2_18 
REMARK    7  A    between atoms: N2_18  and  C16_19 
REMARK    8  A    between atoms: C19_23  and  C20_24 
ROOT
HETATM    1  C3  UNL     1      26.938   7.162  48.669  1.00  0.00    -0.062 C 
HETATM    2  C4  UNL     1      26.877   5.856  48.682  1.00  0.00     0.006 C 
ENDROOT
BRANCH   1   3
HETATM    3  C2  UNL     1      26.736   8.229  49.667  1.00  0.00     0.031 C 
HETATM    4  C1  UNL     1      25.350   8.789  49.531  1.00  0.00     0.010 C 
ENDBRANCH   1   3
BRANCH   1   5
HETATM    5  C15 UNL     1      27.286   7.855  47.412  1.00  0.00     0.172 C 
BRANCH   5   6
HETATM    6  N2  UNL     1      28.679   7.666  47.086  1.00  0.00    -0.218 N 
HETATM    7  H19 UNL     1      28.917   7.463  46.074  1.00  0.00     0.178 HD
BRANCH   6   8
HETATM    8  C16 UNL     1      29.887   7.687  47.884  1.00  0.00     0.723 A 
HETATM    9  N3  UNL     1      30.389   8.372  48.911  1.00  0.00    -0.075 NA
HETATM   10  C17 UNL     1      31.572   8.128  49.453  1.00  0.00     0.139 A 
HETATM   11  C18 UNL     1      32.382   7.125  48.981  1.00  0.00     0.053 A 
HETATM   12  C19 UNL     1      31.884   6.410  47.927  1.00  0.00     0.089 A 
HETATM   13  N5  UNL     1      30.685   6.698  47.418  1.00  0.00    -0.062 NA
BRANCH  12  14
HETATM   14  C20 UNL     1      32.703   5.322  47.401  1.00  0.00     0.011 A 
HETATM   15  C21 UNL     1      32.186   4.045  47.525  1.00  0.00     0.017 A 
HETATM   16  C22 UNL     1      32.801   2.887  47.096  1.00  0.00     0.020 A 
HETATM   17  C23 UNL     1      34.048   3.098  46.495  1.00  0.00     0.116 A 
HETATM   18  N4  UNL     1      34.556   4.341  46.371  1.00  0.00    -0.272 NA
HETATM   19  C24 UNL     1      33.923   5.441  46.803  1.00  0.00     0.130 A 
ENDBRANCH  12  14
ENDBRANCH   6   8
ENDBRANCH   5   6
ENDBRANCH   1   5
BRANCH   2  20
HETATM   20  C5  UNL     1      26.673   4.557  49.277  1.00  0.00     0.025 C 
HETATM   21  C6  UNL     1      25.927   3.546  49.641  1.00  0.00     0.008 C 
HETATM   22  C7  UNL     1      24.446   3.531  49.396  1.00  0.00     0.068 C 
BRANCH  21  23
HETATM   23  N1  UNL     1      26.583   2.466  50.274  1.00  0.00    -0.327 N 
HETATM   24  C8  UNL     1      26.391   2.089  51.644  1.00  0.00     0.255 C 
HETATM   25  O1  UNL     1      25.563   2.835  52.233  1.00  0.00    -0.267 OA
HETATM   26  H11 UNL     1      27.268   1.888  49.700  1.00  0.00     0.169 HD
BRANCH  24  27
HETATM   27  C9  UNL     1      27.078   0.970  52.278  1.00  0.00     0.032 A 
HETATM   28  C10 UNL     1      26.716  -0.366  52.188  1.00  0.00     0.017 A 
HETATM   29  C11 UNL     1      27.450  -1.328  52.842  1.00  0.00     0.001 A 
HETATM   30  C12 UNL     1      28.572  -1.002  53.611  1.00  0.00     0.000 A 
HETATM   31  C13 UNL     1      28.934   0.338  53.700  1.00  0.00     0.001 A 
HETATM   32  C14 UNL     1      28.184   1.288  53.036  1.00  0.00     0.017 A 
ENDBRANCH  24  27
ENDBRANCH  21  23
ENDBRANCH   2  20
TORSDOF 8
ENDMDL
MODEL 8
REMARK VINA RESULT:      -8.1      4.717      8.534
REMARK  8 active torsions:
REMARK  status: ('A' for Active; 'I' for Inactive)
REMARK    1  A    between atoms: C2_2  and  C3_3 
REMARK    2  A    between atoms: C3_3  and  C15_17 
REMARK    3  A    between atoms: C4_4  and  C5_5 
REMARK    4  A    between atoms: C6_6  and  N1_8 
REMARK       I    between atoms: N1_8  and  C8_9 
REMARK    5  A    between atoms: C8_9  and  C9_11 
REMARK    6  A    between atoms: C15_17  and  N2_18 
REMARK    7  A    between atoms: N2_18  and  C16_19 
REMARK    8  A    between atoms: C19_23  and  C20_24 
ROOT
HETATM    1  C3  UNL     1      19.484   1.134  52.179  1.00  0.00    -0.062 C 
HETATM    2  C4  UNL     1      20.644   1.102  52.781  1.00  0.00     0.006 C 
ENDROOT
BRANCH   1   3
HETATM    3  C2  UNL     1      18.492   0.123  51.765  1.00  0.00     0.031 C 
HETATM    4  C1  UNL     1      18.327  -0.895  52.855  1.00  0.00     0.010 C 
ENDBRANCH   1   3
BRANCH   1   5
HETATM    5  C15 UNL     1      18.922   2.435  51.763  1.00  0.00     0.172 C 
BRANCH   5   6
HETATM    6  N2  UNL     1      19.870   3.501  51.983  1.00  0.00    -0.218 N 
HETATM    7  H19 UNL     1      20.105   3.741  52.988  1.00  0.00     0.178 HD
BRANCH   6   8
HETATM    8  C16 UNL     1      20.604   4.365  51.083  1.00  0.00     0.723 A 
HETATM    9  N3  UNL     1      20.374   5.432  50.319  1.00  0.00    -0.075 NA
HETATM   10  C17 UNL     1      21.303   6.033  49.592  1.00  0.00     0.139 A 
HETATM   11  C18 UNL     1      22.600   5.584  49.577  1.00  0.00     0.053 A 
HETATM   12  C19 UNL     1      22.857   4.490  50.354  1.00  0.00     0.089 A 
HETATM   13  N5  UNL     1      21.884   3.922  51.068  1.00  0.00    -0.062 NA
BRANCH  12  14
HETATM   14  C20 UNL     1      24.227   3.986  50.383  1.00  0.00     0.011 A 
HETATM   15  C21 UNL     1      24.475   2.920  51.228  1.00  0.00     0.017 A 
HETATM   16  C22 UNL     1      25.697   2.303  51.401  1.00  0.00     0.020 A 
HETATM   17  C23 UNL     1      26.724   2.854  50.625  1.00  0.00     0.116 A 
HETATM   18  N4  UNL     1      26.487   3.893  49.799  1.00  0.00    -0.272 NA
HETATM   19  C24 UNL     1      25.282   4.464  49.661  1.00  0.00     0.130 A 
ENDBRANCH  12  14
ENDBRANCH   6   8
ENDBRANCH   5   6
ENDBRANCH   1   5
BRANCH   2  20
HETATM   20  C5  UNL     1      21.770   0.475  53.428  1.00  0.00     0.025 C 
HETATM   21  C6  UNL     1      22.334  -0.485  54.116  1.00  0.00     0.008 C 
HETATM   22  C7  UNL     1      21.554  -1.679  54.585  1.00  0.00     0.068 C 
BRANCH  21  23
HETATM   23  N1  UNL     1      23.712  -0.346  54.395  1.00  0.00    -0.327 N 
HETATM   24  C8  UNL     1      24.763  -0.636  53.463  1.00  0.00     0.255 C 
HETATM   25  O1  UNL     1      24.321  -1.036  52.353  1.00  0.00    -0.267 OA
HETATM   26  H11 UNL     1      23.997  -0.002  55.361  1.00  0.00     0.169 HD
BRANCH  24  27
HETATM   27  C9  UNL     1      26.180  -0.483  53.772  1.00  0.00     0.032 A 
HETATM   28  C10 UNL     1      26.714   0.284  54.796  1.00  0.00     0.017 A 
HETATM   29  C11 UNL     1      28.076   0.347  54.977  1.00  0.00     0.001 A 
HETATM   30  C12 UNL     1      28.962  -0.349  54.149  1.00  0.00     0.000 A 
HETATM   31  C13 UNL     1      28.425  -1.119  53.122  1.00  0.00     0.001 A 
HETATM   32  C14 UNL     1      27.056  -1.169  52.957  1.00  0.00     0.017 A 
ENDBRANCH  24  27
ENDBRANCH  21  23
ENDBRANCH   2  20
TORSDOF 8
ENDMDL
MODEL 9
REMARK VINA RESULT:      -8.1      1.825      2.576
REMARK  8 active torsions:
REMARK  status: ('A' for Active; 'I' for Inactive)
REMARK    1  A    between atoms: C2_2  and  C3_3 
REMARK    2  A    between atoms: C3_3  and  C15_17 
REMARK    3  A    between atoms: C4_4  and  C5_5 
REMARK    4  A    between atoms: C6_6  and  N1_8 
REMARK       I    between atoms: N1_8  and  C8_9 
REMARK    5  A    between atoms: C8_9  and  C9_11 
REMARK    6  A    between atoms: C15_17  and  N2_18 
REMARK    7  A    between atoms: N2_18  and  C16_19 
REMARK    8  A    between atoms: C19_23  and  C20_24 
ROOT
HETATM    1  C3  UNL     1      23.603   5.450  51.006  1.00  0.00    -0.062 C 
HETATM    2  C4  UNL     1      24.849   5.717  50.718  1.00  0.00     0.006 C 
ENDROOT
BRANCH   1   3
HETATM    3  C2  UNL     1      22.305   5.666  50.339  1.00  0.00     0.031 C 
HETATM    4  C1  UNL     1      21.592   6.817  50.985  1.00  0.00     0.010 C 
ENDBRANCH   1   3
BRANCH   1   5
HETATM    5  C15 UNL     1      23.287   4.769  52.278  1.00  0.00     0.172 C 
BRANCH   5   6
HETATM    6  N2  UNL     1      24.220   3.699  52.537  1.00  0.00    -0.218 N 
HETATM    7  H19 UNL     1      25.252   3.930  52.476  1.00  0.00     0.178 HD
BRANCH   6   8
HETATM    8  C16 UNL     1      24.044   2.302  52.873  1.00  0.00     0.723 A 
HETATM    9  N3  UNL     1      23.044   1.442  53.064  1.00  0.00    -0.075 NA
HETATM   10  C17 UNL     1      23.218   0.162  53.357  1.00  0.00     0.139 A 
HETATM   11  C18 UNL     1      24.473  -0.378  53.487  1.00  0.00     0.053 A 
HETATM   12  C19 UNL     1      25.512   0.488  53.296  1.00  0.00     0.089 A 
HETATM   13  N5  UNL     1      25.282   1.769  53.002  1.00  0.00    -0.062 NA
BRANCH  12  14
HETATM   14  C20 UNL     1      26.867  -0.045  53.408  1.00  0.00     0.011 A 
HETATM   15  C21 UNL     1      27.829   0.816  53.905  1.00  0.00     0.017 A 
HETATM   16  C22 UNL     1      29.161   0.507  54.086  1.00  0.00     0.020 A 
HETATM   17  C23 UNL     1      29.495  -0.802  53.716  1.00  0.00     0.116 A 
HETATM   18  N4  UNL     1      28.561  -1.644  53.231  1.00  0.00    -0.272 NA
HETATM   19  C24 UNL     1      27.274  -1.303  53.071  1.00  0.00     0.130 A 
ENDBRANCH  12  14
ENDBRANCH   6   8
ENDBRANCH   5   6
ENDBRANCH   1   5
BRANCH   2  20
HETATM   20  C5  UNL     1      25.929   6.229  49.909  1.00  0.00     0.025 C 
HETATM   21  C6  UNL     1      26.412   6.805  48.838  1.00  0.00     0.008 C 
HETATM   22  C7  UNL     1      25.521   7.257  47.718  1.00  0.00     0.068 C 
BRANCH  21  23
HETATM   23  N1  UNL     1      27.813   6.982  48.786  1.00  0.00    -0.327 N 
HETATM   24  C8  UNL     1      28.751   5.950  48.455  1.00  0.00     0.255 C 
HETATM   25  O1  UNL     1      28.186   4.850  48.213  1.00  0.00    -0.267 OA
HETATM   26  H11 UNL     1      28.206   7.947  49.007  1.00  0.00     0.169 HD
BRANCH  24  27
HETATM   27  C9  UNL     1      30.194   6.155  48.407  1.00  0.00     0.032 A 
HETATM   28  C10 UNL     1      30.877   7.262  48.887  1.00  0.00     0.017 A 
HETATM   29  C11 UNL     1      32.246   7.335  48.774  1.00  0.00     0.001 A 
HETATM   30  C12 UNL     1      32.991   6.312  48.179  1.00  0.00     0.000 A 
HETATM   31  C13 UNL     1      32.304   5.201  47.698  1.00  0.00     0.001 A 
HETATM   32  C14 UNL     1      30.931   5.147  47.821  1.00  0.00     0.017 A 
ENDBRANCH  24  27
ENDBRANCH  21  23
ENDBRANCH   2  20
TORSDOF 8
ENDMDL
