MODEL 1
REMARK VINA RESULT:      -9.5      0.000      0.000
REMARK  6 active torsions:
REMARK  status: ('A' for Active; 'I' for Inactive)
REMARK    1  A    between atoms: C2_2  and  C3_3 
REMARK       I    between atoms: C3_3  and  N1_5 
REMARK    2  A    between atoms: N1_5  and  C4_6 
REMARK    3  A    between atoms: C7_9  and  N2_10 
REMARK    4  A    between atoms: N3_15  and  C12_16 
REMARK    5  A    between atoms: C12_16  and  C13_17 
REMARK    6  A    between atoms: C25_31  and  O2_32 
ROOT
HETATM    1  C4  UNL     1      25.680   0.922  53.528  1.00  0.00     0.069 A 
HETATM    2  C5  UNL     1      25.467   1.708  52.416  1.00  0.00     0.050 A 
HETATM    3  C6  UNL     1      24.274   1.627  51.755  1.00  0.00     0.041 A 
HETATM    4  C7  UNL     1      24.198   2.462  50.662  1.00  0.00     0.143 A 
HETATM    5  N4  UNL     1      23.047   2.448  49.935  1.00  0.00    -0.223 NA
HETATM    6  C22 UNL     1      22.024   1.624  50.305  1.00  0.00     0.236 A 
HETATM    7  N5  UNL     1      22.122   0.815  51.381  1.00  0.00    -0.241 NA
HETATM    8  C23 UNL     1      23.232   0.812  52.104  1.00  0.00     0.075 A 
HETATM    9  C24 UNL     1      23.451   0.022  53.223  1.00  0.00     0.071 A 
HETATM   10  C25 UNL     1      24.651   0.071  53.928  1.00  0.00     0.097 A 
ENDROOT
BRANCH   4  11
HETATM   11  N2  UNL     1      25.121   3.396  50.129  1.00  0.00    -0.337 N 
HETATM   12  C8  UNL     1      24.641   4.738  50.368  1.00  0.00     0.102 A 
HETATM   13  C9  UNL     1      25.240   5.858  49.993  1.00  0.00    -0.015 A 
HETATM   14  C10 UNL     1      25.015   7.346  50.079  1.00  0.00     0.062 C 
HETATM   15  C19 UNL     1      26.524   5.759  49.267  1.00  0.00     0.036 A 
HETATM   16  C11 UNL     1      26.384   7.954  49.911  1.00  0.00     0.128 C 
HETATM   17  N3  UNL     1      26.998   7.065  48.959  1.00  0.00    -0.376 N 
HETATM   18  C20 UNL     1      26.967   4.542  49.054  1.00  0.00     0.023 A 
HETATM   19  C21 UNL     1      26.364   3.261  49.437  1.00  0.00     0.159 A 
BRANCH  17  20
HETATM   20  C12 UNL     1      27.917   7.397  47.888  1.00  0.00     0.161 C 
BRANCH  20  21
HETATM   21  C13 UNL     1      29.335   7.401  48.388  1.00  0.00    -0.040 A 
HETATM   22  C14 UNL     1      30.103   6.238  48.353  1.00  0.00     0.009 A 
HETATM   23  C15 UNL     1      31.417   6.255  48.821  1.00  0.00     0.001 A 
HETATM   24  C16 UNL     1      31.980   7.427  49.327  1.00  0.00     0.000 A 
HETATM   25  C17 UNL     1      31.210   8.573  49.358  1.00  0.00     0.001 A 
HETATM   26  C18 UNL     1      29.910   8.570  48.899  1.00  0.00     0.009 A 
ENDBRANCH  20  21
ENDBRANCH  17  20
ENDBRANCH   4  11
BRANCH   1  27
HETATM   27  N1  UNL     1      26.892   0.948  54.270  1.00  0.00    -0.325 N 
HETATM   28  C3  UNL     1      27.834   0.051  53.705  1.00  0.00     0.221 C 
HETATM   29  O1  UNL     1      27.666  -0.678  52.701  1.00  0.00    -0.273 OA
HETATM   30  H6  UNL     1      27.183   1.477  55.099  1.00  0.00     0.169 HD
BRANCH  28  31
HETATM   31  C2  UNL     1      29.209  -0.194  54.206  1.00  0.00     0.098 C 
HETATM   32  C1  UNL     1      29.733  -1.409  53.436  1.00  0.00     0.014 C 
ENDBRANCH  28  31
ENDBRANCH   1  27
BRANCH  10  33
HETATM   33  O2  UNL     1      24.870  -0.719  55.050  1.00  0.00    -0.354 OA
HETATM   34  C26 UNL     1      23.777  -1.373  55.643  1.00  0.00     0.210 C 
ENDBRANCH  10  33
TORSDOF 6
ENDMDL
MODEL 2
REMARK VINA RESULT:      -9.3      1.028      1.083
REMARK  6 active torsions:
REMARK  status: ('A' for Active; 'I' for Inactive)
REMARK    1  A    between atoms: C2_2  and  C3_3 
REMARK       I    between atoms: C3_3  and  N1_5 
REMARK    2  A    between atoms: N1_5  and  C4_6 
REMARK    3  A    between atoms: C7_9  and  N2_10 
REMARK    4  A    between atoms: N3_15  and  C12_16 
REMARK    5  A    between atoms: C12_16  and  C13_17 
REMARK    6  A    between atoms: C25_31  and  O2_32 
ROOT
HETATM    1  C4  UNL     1      25.453   0.434  52.763  1.00  0.00     0.069 A 
HETATM    2  C5  UNL     1      25.315   1.509  51.912  1.00  0.00     0.050 A 
HETATM    3  C6  UNL     1      24.066   1.982  51.626  1.00  0.00     0.041 A 
HETATM    4  C7  UNL     1      24.073   3.055  50.761  1.00  0.00     0.143 A 
HETATM    5  N4  UNL     1      22.873   3.593  50.412  1.00  0.00    -0.223 NA
HETATM    6  C22 UNL     1      21.721   3.065  50.920  1.00  0.00     0.236 A 
HETATM    7  N5  UNL     1      21.740   2.014  51.766  1.00  0.00    -0.241 NA
HETATM    8  C23 UNL     1      22.896   1.474  52.121  1.00  0.00     0.075 A 
HETATM    9  C24 UNL     1      23.040   0.391  52.976  1.00  0.00     0.071 A 
HETATM   10  C25 UNL     1      24.293  -0.125  53.297  1.00  0.00     0.097 A 
ENDROOT
BRANCH   4  11
HETATM   11  N2  UNL     1      25.140   3.757  50.147  1.00  0.00    -0.337 N 
HETATM   12  C8  UNL     1      24.875   5.176  50.199  1.00  0.00     0.102 A 
HETATM   13  C9  UNL     1      25.650   6.132  49.708  1.00  0.00    -0.015 A 
HETATM   14  C10 UNL     1      25.663   7.636  49.599  1.00  0.00     0.062 C 
HETATM   15  C19 UNL     1      26.912   5.742  49.045  1.00  0.00     0.036 A 
HETATM   16  C11 UNL     1      27.113   7.997  49.404  1.00  0.00     0.128 C 
HETATM   17  N3  UNL     1      27.591   6.907  48.591  1.00  0.00    -0.376 N 
HETATM   18  C20 UNL     1      27.159   4.454  49.001  1.00  0.00     0.023 A 
HETATM   19  C21 UNL     1      26.356   3.342  49.521  1.00  0.00     0.159 A 
BRANCH  17  20
HETATM   20  C12 UNL     1      28.567   6.951  47.520  1.00  0.00     0.161 C 
BRANCH  20  21
HETATM   21  C13 UNL     1      29.949   6.686  48.049  1.00  0.00    -0.040 A 
HETATM   22  C14 UNL     1      30.563   5.452  47.841  1.00  0.00     0.009 A 
HETATM   23  C15 UNL     1      31.845   5.219  48.339  1.00  0.00     0.001 A 
HETATM   24  C16 UNL     1      32.528   6.208  49.046  1.00  0.00     0.000 A 
HETATM   25  C17 UNL     1      31.911   7.427  49.246  1.00  0.00     0.001 A 
HETATM   26  C18 UNL     1      30.643   7.671  48.760  1.00  0.00     0.009 A 
ENDBRANCH  20  21
ENDBRANCH  17  20
ENDBRANCH   4  11
BRANCH   1  27
HETATM   27  N1  UNL     1      26.717  -0.117  53.111  1.00  0.00    -0.325 N 
HETATM   28  C3  UNL     1      27.311   0.634  54.156  1.00  0.00     0.221 C 
HETATM   29  O1  UNL     1      26.831   1.644  54.720  1.00  0.00    -0.273 OA
HETATM   30  H6  UNL     1      27.240  -0.922  52.751  1.00  0.00     0.169 HD
BRANCH  28  31
HETATM   31  C2  UNL     1      28.629   0.362  54.782  1.00  0.00     0.098 C 
HETATM   32  C1  UNL     1      29.497  -0.268  53.689  1.00  0.00     0.014 C 
ENDBRANCH  28  31
ENDBRANCH   1  27
BRANCH  10  33
HETATM   33  O2  UNL     1      24.438  -1.209  54.155  1.00  0.00    -0.354 OA
HETATM   34  C26 UNL     1      23.691  -1.236  55.344  1.00  0.00     0.210 C 
ENDBRANCH  10  33
TORSDOF 6
ENDMDL
MODEL 3
REMARK VINA RESULT:      -8.8      1.447      2.471
REMARK  6 active torsions:
REMARK  status: ('A' for Active; 'I' for Inactive)
REMARK    1  A    between atoms: C2_2  and  C3_3 
REMARK       I    between atoms: C3_3  and  N1_5 
REMARK    2  A    between atoms: N1_5  and  C4_6 
REMARK    3  A    between atoms: C7_9  and  N2_10 
REMARK    4  A    between atoms: N3_15  and  C12_16 
REMARK    5  A    between atoms: C12_16  and  C13_17 
REMARK    6  A    between atoms: C25_31  and  O2_32 
ROOT
HETATM    1  C4  UNL     1      25.040   0.938  53.187  1.00  0.00     0.069 A 
HETATM    2  C5  UNL     1      24.948   1.805  52.120  1.00  0.00     0.050 A 
HETATM    3  C6  UNL     1      23.813   1.816  51.359  1.00  0.00     0.041 A 
HETATM    4  C7  UNL     1      23.856   2.726  50.326  1.00  0.00     0.143 A 
HETATM    5  N4  UNL     1      22.771   2.807  49.508  1.00  0.00    -0.223 NA
HETATM    6  C22 UNL     1      21.694   1.999  49.733  1.00  0.00     0.236 A 
HETATM    7  N5  UNL     1      21.674   1.115  50.753  1.00  0.00    -0.241 NA
HETATM    8  C23 UNL     1      22.719   1.020  51.562  1.00  0.00     0.075 A 
HETATM    9  C24 UNL     1      22.816   0.147  52.636  1.00  0.00     0.071 A 
HETATM   10  C25 UNL     1      23.953   0.102  53.439  1.00  0.00     0.097 A 
ENDROOT
BRANCH   4  11
HETATM   11  N2  UNL     1      24.851   3.658  49.938  1.00  0.00    -0.337 N 
HETATM   12  C8  UNL     1      24.402   4.997  50.242  1.00  0.00     0.102 A 
HETATM   13  C9  UNL     1      25.068   6.115  50.001  1.00  0.00    -0.015 A 
HETATM   14  C10 UNL     1      24.891   7.602  50.184  1.00  0.00     0.062 C 
HETATM   15  C19 UNL     1      26.402   6.017  49.370  1.00  0.00     0.036 A 
HETATM   16  C11 UNL     1      26.290   8.163  50.169  1.00  0.00     0.128 C 
HETATM   17  N3  UNL     1      26.945   7.322  49.200  1.00  0.00    -0.376 N 
HETATM   18  C20 UNL     1      26.816   4.803  49.099  1.00  0.00     0.023 A 
HETATM   19  C21 UNL     1      26.140   3.523  49.335  1.00  0.00     0.159 A 
BRANCH  17  20
HETATM   20  C12 UNL     1      27.957   7.694  48.231  1.00  0.00     0.161 C 
BRANCH  20  21
HETATM   21  C13 UNL     1      27.328   8.028  46.908  1.00  0.00    -0.040 A 
HETATM   22  C14 UNL     1      25.941   8.058  46.769  1.00  0.00     0.009 A 
HETATM   23  C15 UNL     1      25.369   8.368  45.536  1.00  0.00     0.001 A 
HETATM   24  C16 UNL     1      26.169   8.654  44.429  1.00  0.00     0.000 A 
HETATM   25  C17 UNL     1      27.542   8.622  44.577  1.00  0.00     0.001 A 
HETATM   26  C18 UNL     1      28.120   8.315  45.791  1.00  0.00     0.009 A 
ENDBRANCH  20  21
ENDBRANCH  17  20
ENDBRANCH   4  11
BRANCH   1  27
HETATM   27  N1  UNL     1      26.185   0.866  54.025  1.00  0.00    -0.325 N 
HETATM   28  C3  UNL     1      27.240   0.189  53.361  1.00  0.00     0.221 C 
HETATM   29  O1  UNL     1      27.211  -0.292  52.206  1.00  0.00    -0.273 OA
HETATM   30  H6  UNL     1      26.366   1.203  54.977  1.00  0.00     0.169 HD
BRANCH  28  31
HETATM   31  C2  UNL     1      28.588  -0.078  53.920  1.00  0.00     0.098 C 
HETATM   32  C1  UNL     1      29.050  -1.402  53.305  1.00  0.00     0.014 C 
ENDBRANCH  28  31
ENDBRANCH   1  27
BRANCH  10  33
HETATM   33  O2  UNL     1      24.051  -0.771  54.516  1.00  0.00    -0.354 OA
HETATM   34  C26 UNL     1      22.872  -1.279  55.086  1.00  0.00     0.210 C 
ENDBRANCH  10  33
TORSDOF 6
ENDMDL
MODEL 4
REMARK VINA RESULT:      -8.7      1.559      2.300
REMARK  6 active torsions:
REMARK  status: ('A' for Active; 'I' for Inactive)
REMARK    1  A    between atoms: C2_2  and  C3_3 
REMARK       I    between atoms: C3_3  and  N1_5 
REMARK    2  A    between atoms: N1_5  and  C4_6 
REMARK    3  A    between atoms: C7_9  and  N2_10 
REMARK    4  A    between atoms: N3_15  and  C12_16 
REMARK    5  A    between atoms: C12_16  and  C13_17 
REMARK    6  A    between atoms: C25_31  and  O2_32 
ROOT
HETATM    1  C4  UNL     1      25.291   2.073  53.130  1.00  0.00     0.069 A 
HETATM    2  C5  UNL     1      24.969   3.050  52.212  1.00  0.00     0.050 A 
HETATM    3  C6  UNL     1      23.927   2.845  51.352  1.00  0.00     0.041 A 
HETATM    4  C7  UNL     1      23.717   3.898  50.489  1.00  0.00     0.143 A 
HETATM    5  N4  UNL     1      22.703   3.785  49.589  1.00  0.00    -0.223 NA
HETATM    6  C22 UNL     1      21.939   2.654  49.570  1.00  0.00     0.236 A 
HETATM    7  N5  UNL     1      22.163   1.635  50.427  1.00  0.00    -0.241 NA
HETATM    8  C23 UNL     1      23.145   1.724  51.312  1.00  0.00     0.075 A 
HETATM    9  C24 UNL     1      23.474   0.742  52.236  1.00  0.00     0.071 A 
HETATM   10  C25 UNL     1      24.527   0.907  53.132  1.00  0.00     0.097 A 
ENDROOT
BRANCH   4  11
HETATM   11  N2  UNL     1      24.370   5.150  50.359  1.00  0.00    -0.337 N 
HETATM   12  C8  UNL     1      25.484   5.021  49.449  1.00  0.00     0.102 A 
HETATM   13  C9  UNL     1      26.325   5.984  49.106  1.00  0.00    -0.015 A 
HETATM   14  C10 UNL     1      27.535   6.171  48.226  1.00  0.00     0.062 C 
HETATM   15  C19 UNL     1      26.127   7.329  49.686  1.00  0.00     0.036 A 
HETATM   16  C11 UNL     1      27.584   7.652  47.946  1.00  0.00     0.128 C 
HETATM   17  N3  UNL     1      27.128   8.212  49.192  1.00  0.00    -0.376 N 
HETATM   18  C20 UNL     1      25.112   7.452  50.508  1.00  0.00     0.023 A 
HETATM   19  C21 UNL     1      24.141   6.439  50.934  1.00  0.00     0.159 A 
BRANCH  17  20
HETATM   20  C12 UNL     1      27.575   9.428  49.844  1.00  0.00     0.161 C 
BRANCH  20  21
HETATM   21  C13 UNL     1      28.850   9.926  49.221  1.00  0.00    -0.040 A 
HETATM   22  C14 UNL     1      30.037   9.210  49.368  1.00  0.00     0.009 A 
HETATM   23  C15 UNL     1      31.213   9.683  48.786  1.00  0.00     0.001 A 
HETATM   24  C16 UNL     1      31.220  10.870  48.052  1.00  0.00     0.000 A 
HETATM   25  C17 UNL     1      30.039  11.571  47.913  1.00  0.00     0.001 A 
HETATM   26  C18 UNL     1      28.869  11.115  48.484  1.00  0.00     0.009 A 
ENDBRANCH  20  21
ENDBRANCH  17  20
ENDBRANCH   4  11
BRANCH   1  27
HETATM   27  N1  UNL     1      26.359   2.209  54.058  1.00  0.00    -0.325 N 
HETATM   28  C3  UNL     1      27.606   2.077  53.396  1.00  0.00     0.221 C 
HETATM   29  O1  UNL     1      27.788   1.869  52.175  1.00  0.00    -0.273 OA
HETATM   30  H6  UNL     1      26.377   2.378  55.069  1.00  0.00     0.169 HD
BRANCH  28  31
HETATM   31  C2  UNL     1      28.942   2.160  54.036  1.00  0.00     0.098 C 
HETATM   32  C1  UNL     1      29.447   0.720  54.158  1.00  0.00     0.014 C 
ENDBRANCH  28  31
ENDBRANCH   1  27
BRANCH  10  33
HETATM   33  O2  UNL     1      24.856  -0.075  54.059  1.00  0.00    -0.354 OA
HETATM   34  C26 UNL     1      23.839  -0.908  54.554  1.00  0.00     0.210 C 
ENDBRANCH  10  33
TORSDOF 6
ENDMDL
MODEL 5
REMARK VINA RESULT:      -8.6      3.471      8.653
REMARK  6 active torsions:
REMARK  status: ('A' for Active; 'I' for Inactive)
REMARK    1  A    between atoms: C2_2  and  C3_3 
REMARK       I    between atoms: C3_3  and  N1_5 
REMARK    2  A    between atoms: N1_5  and  C4_6 
REMARK    3  A    between atoms: C7_9  and  N2_10 
REMARK    4  A    between atoms: N3_15  and  C12_16 
REMARK    5  A    between atoms: C12_16  and  C13_17 
REMARK    6  A    between atoms: C25_31  and  O2_32 
ROOT
HETATM    1  C4  UNL     1      31.848   6.510  48.779  1.00  0.00     0.069 A 
HETATM    2  C5  UNL     1      30.474   6.618  48.798  1.00  0.00     0.050 A 
HETATM    3  C6  UNL     1      29.893   7.830  48.554  1.00  0.00     0.041 A 
HETATM    4  C7  UNL     1      28.516   7.796  48.607  1.00  0.00     0.143 A 
HETATM    5  N4  UNL     1      27.846   8.959  48.382  1.00  0.00    -0.223 NA
HETATM    6  C22 UNL     1      28.545  10.101  48.115  1.00  0.00     0.236 A 
HETATM    7  N5  UNL     1      29.894  10.110  48.068  1.00  0.00    -0.241 NA
HETATM    8  C23 UNL     1      30.567   8.989  48.283  1.00  0.00     0.075 A 
HETATM    9  C24 UNL     1      31.950   8.876  48.267  1.00  0.00     0.071 A 
HETATM   10  C25 UNL     1      32.586   7.662  48.509  1.00  0.00     0.097 A 
ENDROOT
BRANCH   4  11
HETATM   11  N2  UNL     1      27.613   6.730  48.842  1.00  0.00    -0.337 N 
HETATM   12  C8  UNL     1      26.518   7.197  49.660  1.00  0.00     0.102 A 
HETATM   13  C9  UNL     1      25.499   6.467  50.088  1.00  0.00    -0.015 A 
HETATM   14  C10 UNL     1      24.253   6.639  50.919  1.00  0.00     0.062 C 
HETATM   15  C19 UNL     1      25.445   5.041  49.703  1.00  0.00     0.036 A 
HETATM   16  C11 UNL     1      23.346   5.513  50.494  1.00  0.00     0.128 C 
HETATM   17  N3  UNL     1      24.281   4.442  50.260  1.00  0.00    -0.376 N 
HETATM   18  C20 UNL     1      26.434   4.615  48.954  1.00  0.00     0.023 A 
HETATM   19  C21 UNL     1      27.591   5.357  48.442  1.00  0.00     0.159 A 
BRANCH  17  20
HETATM   20  C12 UNL     1      24.105   3.027  50.525  1.00  0.00     0.161 C 
BRANCH  20  21
HETATM   21  C13 UNL     1      25.025   2.575  51.624  1.00  0.00    -0.040 A 
HETATM   22  C14 UNL     1      24.704   2.811  52.960  1.00  0.00     0.009 A 
HETATM   23  C15 UNL     1      25.567   2.388  53.971  1.00  0.00     0.001 A 
HETATM   24  C16 UNL     1      26.756   1.726  53.664  1.00  0.00     0.000 A 
HETATM   25  C17 UNL     1      27.064   1.497  52.338  1.00  0.00     0.001 A 
HETATM   26  C18 UNL     1      26.220   1.911  51.329  1.00  0.00     0.009 A 
ENDBRANCH  20  21
ENDBRANCH  17  20
ENDBRANCH   4  11
BRANCH   1  27
HETATM   27  N1  UNL     1      32.529   5.286  49.022  1.00  0.00    -0.325 N 
HETATM   28  C3  UNL     1      32.580   4.507  47.839  1.00  0.00     0.221 C 
HETATM   29  O1  UNL     1      32.106   4.811  46.720  1.00  0.00    -0.273 OA
HETATM   30  H6  UNL     1      32.965   4.895  49.864  1.00  0.00     0.169 HD
BRANCH  28  31
HETATM   31  C2  UNL     1      33.208   3.170  47.705  1.00  0.00     0.098 C 
HETATM   32  C1  UNL     1      34.716   3.391  47.854  1.00  0.00     0.014 C 
ENDBRANCH  28  31
ENDBRANCH   1  27
BRANCH  10  33
HETATM   33  O2  UNL     1      33.971   7.547  48.491  1.00  0.00    -0.354 OA
HETATM   34  C26 UNL     1      34.677   8.032  47.377  1.00  0.00     0.210 C 
ENDBRANCH  10  33
TORSDOF 6
ENDMDL
MODEL 6
REMARK VINA RESULT:      -8.5      2.110      2.873
REMARK  6 active torsions:
REMARK  status: ('A' for Active; 'I' for Inactive)
REMARK    1  A    between atoms: C2_2  and  C3_3 
REMARK       I    between atoms: C3_3  and  N1_5 
REMARK    2  A    between atoms: N1_5  and  C4_6 
REMARK    3  A    between atoms: C7_9  and  N2_10 
REMARK    4  A    between atoms: N3_15  and  C12_16 
REMARK    5  A    between atoms: C12_16  and  C13_17 
REMARK    6  A    between atoms: C25_31  and  O2_32 
ROOT
HETATM    1  C4  UNL     1      25.040   1.463  52.339  1.00  0.00     0.069 A 
HETATM    2  C5  UNL     1      24.321   2.564  51.927  1.00  0.00     0.050 A 
HETATM    3  C6  UNL     1      22.967   2.587  52.105  1.00  0.00     0.041 A 
HETATM    4  C7  UNL     1      22.375   3.743  51.646  1.00  0.00     0.143 A 
HETATM    5  N4  UNL     1      21.025   3.856  51.775  1.00  0.00    -0.223 NA
HETATM    6  C22 UNL     1      20.313   2.841  52.345  1.00  0.00     0.236 A 
HETATM    7  N5  UNL     1      20.915   1.717  52.789  1.00  0.00    -0.241 NA
HETATM    8  C23 UNL     1      22.228   1.585  52.674  1.00  0.00     0.075 A 
HETATM    9  C24 UNL     1      22.956   0.478  53.086  1.00  0.00     0.071 A 
HETATM   10  C25 UNL     1      24.337   0.411  52.925  1.00  0.00     0.097 A 
ENDROOT
BRANCH   4  11
HETATM   11  N2  UNL     1      22.925   4.907  51.053  1.00  0.00    -0.337 N 
HETATM   12  C8  UNL     1      22.744   4.851  49.621  1.00  0.00     0.102 A 
HETATM   13  C9  UNL     1      23.148   5.760  48.748  1.00  0.00    -0.015 A 
HETATM   14  C10 UNL     1      23.119   5.993  47.259  1.00  0.00     0.062 C 
HETATM   15  C19 UNL     1      23.848   6.959  49.257  1.00  0.00     0.036 A 
HETATM   16  C11 UNL     1      23.286   7.483  47.096  1.00  0.00     0.128 C 
HETATM   17  N3  UNL     1      24.196   7.805  48.166  1.00  0.00    -0.376 N 
HETATM   18  C20 UNL     1      24.010   7.017  50.557  1.00  0.00     0.023 A 
HETATM   19  C21 UNL     1      23.591   6.056  51.583  1.00  0.00     0.159 A 
BRANCH  17  20
HETATM   20  C12 UNL     1      25.262   8.788  48.168  1.00  0.00     0.161 C 
BRANCH  20  21
HETATM   21  C13 UNL     1      26.576   8.145  47.823  1.00  0.00    -0.040 A 
HETATM   22  C14 UNL     1      27.334   8.610  46.749  1.00  0.00     0.009 A 
HETATM   23  C15 UNL     1      28.551   8.004  46.439  1.00  0.00     0.001 A 
HETATM   24  C16 UNL     1      29.027   6.931  47.193  1.00  0.00     0.000 A 
HETATM   25  C17 UNL     1      28.269   6.478  48.255  1.00  0.00     0.001 A 
HETATM   26  C18 UNL     1      27.063   7.068  48.571  1.00  0.00     0.009 A 
ENDBRANCH  20  21
ENDBRANCH  17  20
ENDBRANCH   4  11
BRANCH   1  27
HETATM   27  N1  UNL     1      26.450   1.362  52.189  1.00  0.00    -0.325 N 
HETATM   28  C3  UNL     1      27.106   1.929  53.311  1.00  0.00     0.221 C 
HETATM   29  O1  UNL     1      26.564   2.455  54.309  1.00  0.00    -0.273 OA
HETATM   30  H6  UNL     1      27.039   0.969  51.447  1.00  0.00     0.169 HD
BRANCH  28  31
HETATM   31  C2  UNL     1      28.574   2.008  53.510  1.00  0.00     0.098 C 
HETATM   32  C1  UNL     1      28.952   0.807  54.382  1.00  0.00     0.014 C 
ENDBRANCH  28  31
ENDBRANCH   1  27
BRANCH  10  33
HETATM   33  O2  UNL     1      25.067  -0.697  53.339  1.00  0.00    -0.354 OA
HETATM   34  C26 UNL     1      25.211  -0.939  54.715  1.00  0.00     0.210 C 
ENDBRANCH  10  33
TORSDOF 6
ENDMDL
MODEL 7
REMARK VINA RESULT:      -8.4      3.211      8.575
REMARK  6 active torsions:
REMARK  status: ('A' for Active; 'I' for Inactive)
REMARK    1  A    between atoms: C2_2  and  C3_3 
REMARK       I    between atoms: C3_3  and  N1_5 
REMARK    2  A    between atoms: N1_5  and  C4_6 
REMARK    3  A    between atoms: C7_9  and  N2_10 
REMARK    4  A    between atoms: N3_15  and  C12_16 
REMARK    5  A    between atoms: C12_16  and  C13_17 
REMARK    6  A    between atoms: C25_31  and  O2_32 
ROOT
HETATM    1  C4  UNL     1      25.269   0.086  53.008  1.00  0.00     0.069 A 
HETATM    2  C5  UNL     1      24.568   0.834  52.087  1.00  0.00     0.050 A 
HETATM    3  C6  UNL     1      25.210   1.825  51.399  1.00  0.00     0.041 A 
HETATM    4  C7  UNL     1      24.391   2.494  50.516  1.00  0.00     0.143 A 
HETATM    5  N4  UNL     1      24.940   3.504  49.787  1.00  0.00    -0.223 NA
HETATM    6  C22 UNL     1      26.258   3.817  49.951  1.00  0.00     0.236 A 
HETATM    7  N5  UNL     1      27.041   3.147  50.823  1.00  0.00    -0.241 NA
HETATM    8  C23 UNL     1      26.528   2.159  51.542  1.00  0.00     0.075 A 
HETATM    9  C24 UNL     1      27.230   1.405  52.472  1.00  0.00     0.071 A 
HETATM   10  C25 UNL     1      26.619   0.384  53.195  1.00  0.00     0.097 A 
ENDROOT
BRANCH   4  11
HETATM   11  N2  UNL     1      23.025   2.315  50.183  1.00  0.00    -0.337 N 
HETATM   12  C8  UNL     1      22.198   2.855  51.236  1.00  0.00     0.102 A 
HETATM   13  C9  UNL     1      20.874   2.847  51.268  1.00  0.00    -0.015 A 
HETATM   14  C10 UNL     1      19.760   3.304  52.176  1.00  0.00     0.062 C 
HETATM   15  C19 UNL     1      20.147   2.242  50.132  1.00  0.00     0.036 A 
HETATM   16  C11 UNL     1      18.556   3.430  51.278  1.00  0.00     0.128 C 
HETATM   17  N3  UNL     1      18.745   2.336  50.360  1.00  0.00    -0.376 N 
HETATM   18  C20 UNL     1      20.895   1.756  49.170  1.00  0.00     0.023 A 
HETATM   19  C21 UNL     1      22.357   1.728  49.063  1.00  0.00     0.159 A 
BRANCH  17  20
HETATM   20  C12 UNL     1      17.736   1.480  49.767  1.00  0.00     0.161 C 
BRANCH  20  21
HETATM   21  C13 UNL     1      17.301   0.420  50.740  1.00  0.00    -0.040 A 
HETATM   22  C14 UNL     1      18.198  -0.097  51.674  1.00  0.00     0.009 A 
HETATM   23  C15 UNL     1      17.783  -1.081  52.570  1.00  0.00     0.001 A 
HETATM   24  C16 UNL     1      16.472  -1.560  52.549  1.00  0.00     0.000 A 
HETATM   25  C17 UNL     1      15.592  -1.041  51.620  1.00  0.00     0.001 A 
HETATM   26  C18 UNL     1      15.990  -0.068  50.728  1.00  0.00     0.009 A 
ENDBRANCH  20  21
ENDBRANCH  17  20
ENDBRANCH   4  11
BRANCH   1  27
HETATM   27  N1  UNL     1      24.675  -0.962  53.763  1.00  0.00    -0.325 N 
HETATM   28  C3  UNL     1      23.359  -0.605  54.150  1.00  0.00     0.221 C 
HETATM   29  O1  UNL     1      22.765   0.466  53.888  1.00  0.00    -0.273 OA
HETATM   30  H6  UNL     1      25.022  -1.882  54.058  1.00  0.00     0.169 HD
BRANCH  28  31
HETATM   31  C2  UNL     1      22.430  -1.444  54.947  1.00  0.00     0.098 C 
HETATM   32  C1  UNL     1      21.071  -1.359  54.247  1.00  0.00     0.014 C 
ENDBRANCH  28  31
ENDBRANCH   1  27
BRANCH  10  33
HETATM   33  O2  UNL     1      27.321  -0.373  54.125  1.00  0.00    -0.354 OA
HETATM   34  C26 UNL     1      28.355   0.238  54.854  1.00  0.00     0.210 C 
ENDBRANCH  10  33
TORSDOF 6
ENDMDL
MODEL 8
REMARK VINA RESULT:      -8.2      2.577      4.829
REMARK  6 active torsions:
REMARK  status: ('A' for Active; 'I' for Inactive)
REMARK    1  A    between atoms: C2_2  and  C3_3 
REMARK       I    between atoms: C3_3  and  N1_5 
REMARK    2  A    between atoms: N1_5  and  C4_6 
REMARK    3  A    between atoms: C7_9  and  N2_10 
REMARK    4  A    between atoms: N3_15  and  C12_16 
REMARK    5  A    between atoms: C12_16  and  C13_17 
REMARK    6  A    between atoms: C25_31  and  O2_32 
ROOT
HETATM    1  C4  UNL     1      21.072   1.220  51.482  1.00  0.00     0.069 A 
HETATM    2  C5  UNL     1      22.395   1.605  51.460  1.00  0.00     0.050 A 
HETATM    3  C6  UNL     1      23.300   0.942  52.239  1.00  0.00     0.041 A 
HETATM    4  C7  UNL     1      24.583   1.432  52.124  1.00  0.00     0.143 A 
HETATM    5  N4  UNL     1      25.556   0.838  52.867  1.00  0.00    -0.223 NA
HETATM    6  C22 UNL     1      25.238  -0.205  53.688  1.00  0.00     0.236 A 
HETATM    7  N5  UNL     1      23.973  -0.668  53.784  1.00  0.00    -0.241 NA
HETATM    8  C23 UNL     1      23.010  -0.106  53.070  1.00  0.00     0.075 A 
HETATM    9  C24 UNL     1      21.677  -0.489  53.090  1.00  0.00     0.071 A 
HETATM   10  C25 UNL     1      20.719   0.157  52.312  1.00  0.00     0.097 A 
ENDROOT
BRANCH   4  11
HETATM   11  N2  UNL     1      25.121   2.473  51.326  1.00  0.00    -0.337 N 
HETATM   12  C8  UNL     1      24.390   3.694  51.571  1.00  0.00     0.102 A 
HETATM   13  C9  UNL     1      24.609   4.863  50.988  1.00  0.00    -0.015 A 
HETATM   14  C10 UNL     1      24.053   6.265  51.016  1.00  0.00     0.062 C 
HETATM   15  C19 UNL     1      25.700   4.960  49.995  1.00  0.00     0.036 A 
HETATM   16  C11 UNL     1      25.169   7.134  50.494  1.00  0.00     0.128 C 
HETATM   17  N3  UNL     1      25.769   6.290  49.492  1.00  0.00    -0.376 N 
HETATM   18  C20 UNL     1      26.370   3.854  49.775  1.00  0.00     0.023 A 
HETATM   19  C21 UNL     1      26.189   2.529  50.378  1.00  0.00     0.159 A 
BRANCH  17  20
HETATM   20  C12 UNL     1      26.338   6.680  48.217  1.00  0.00     0.161 C 
BRANCH  20  21
HETATM   21  C13 UNL     1      27.808   6.959  48.356  1.00  0.00    -0.040 A 
HETATM   22  C14 UNL     1      28.747   5.958  48.111  1.00  0.00     0.009 A 
HETATM   23  C15 UNL     1      30.108   6.230  48.245  1.00  0.00     0.001 A 
HETATM   24  C16 UNL     1      30.550   7.498  48.622  1.00  0.00     0.000 A 
HETATM   25  C17 UNL     1      29.612   8.483  48.862  1.00  0.00     0.001 A 
HETATM   26  C18 UNL     1      28.263   8.227  48.735  1.00  0.00     0.009 A 
ENDBRANCH  20  21
ENDBRANCH  17  20
ENDBRANCH   4  11
BRANCH   1  27
HETATM   27  N1  UNL     1      20.070   1.859  50.701  1.00  0.00    -0.325 N 
HETATM   28  C3  UNL     1      19.540   2.975  51.397  1.00  0.00     0.221 C 
HETATM   29  O1  UNL     1      19.875   3.375  52.535  1.00  0.00    -0.273 OA
HETATM   30  H6  UNL     1      19.688   1.657  49.771  1.00  0.00     0.169 HD
BRANCH  28  31
HETATM   31  C2  UNL     1      18.478   3.883  50.902  1.00  0.00     0.098 C 
HETATM   32  C1  UNL     1      17.150   3.284  51.372  1.00  0.00     0.014 C 
ENDBRANCH  28  31
ENDBRANCH   1  27
BRANCH  10  33
HETATM   33  O2  UNL     1      19.384  -0.228  52.330  1.00  0.00    -0.354 OA
HETATM   34  C26 UNL     1      18.932  -1.056  53.371  1.00  0.00     0.210 C 
ENDBRANCH  10  33
TORSDOF 6
ENDMDL
MODEL 9
REMARK VINA RESULT:      -8.2      3.997      9.589
REMARK  6 active torsions:
REMARK  status: ('A' for Active; 'I' for Inactive)
REMARK    1  A    between atoms: C2_2  and  C3_3 
REMARK       I    between atoms: C3_3  and  N1_5 
REMARK    2  A    between atoms: N1_5  and  C4_6 
REMARK    3  A    between atoms: C7_9  and  N2_10 
REMARK    4  A    between atoms: N3_15  and  C12_16 
REMARK    5  A    between atoms: C12_16  and  C13_17 
REMARK    6  A    between atoms: C25_31  and  O2_32 
ROOT
HETATM    1  C4  UNL     1      25.566   1.176  52.162  1.00  0.00     0.069 A 
HETATM    2  C5  UNL     1      24.314   0.689  52.469  1.00  0.00     0.050 A 
HETATM    3  C6  UNL     1      24.146  -0.071  53.591  1.00  0.00     0.041 A 
HETATM    4  C7  UNL     1      22.847  -0.494  53.775  1.00  0.00     0.143 A 
HETATM    5  N4  UNL     1      22.582  -1.264  54.866  1.00  0.00    -0.223 NA
HETATM    6  C22 UNL     1      23.590  -1.586  55.728  1.00  0.00     0.236 A 
HETATM    7  N5  UNL     1      24.855  -1.160  55.527  1.00  0.00    -0.241 NA
HETATM    8  C23 UNL     1      25.137  -0.409  54.472  1.00  0.00     0.075 A 
HETATM    9  C24 UNL     1      26.396   0.081  54.159  1.00  0.00     0.071 A 
HETATM   10  C25 UNL     1      26.615   0.861  53.026  1.00  0.00     0.097 A 
ENDROOT
BRANCH   4  11
HETATM   11  N2  UNL     1      21.669  -0.256  53.025  1.00  0.00    -0.337 N 
HETATM   12  C8  UNL     1      20.570  -0.991  53.608  1.00  0.00     0.102 A 
HETATM   13  C9  UNL     1      19.325  -1.016  53.159  1.00  0.00    -0.015 A 
HETATM   14  C10 UNL     1      18.004  -1.651  53.517  1.00  0.00     0.062 C 
HETATM   15  C19 UNL     1      18.995  -0.224  51.956  1.00  0.00     0.036 A 
HETATM   16  C11 UNL     1      16.965  -0.774  52.867  1.00  0.00     0.128 C 
HETATM   17  N3  UNL     1      17.616  -0.386  51.642  1.00  0.00    -0.376 N 
HETATM   18  C20 UNL     1      19.989   0.451  51.427  1.00  0.00     0.023 A 
HETATM   19  C21 UNL     1      21.386   0.529  51.864  1.00  0.00     0.159 A 
BRANCH  17  20
HETATM   20  C12 UNL     1      17.020  -0.190  50.335  1.00  0.00     0.161 C 
BRANCH  20  21
HETATM   21  C13 UNL     1      16.218   1.081  50.303  1.00  0.00    -0.040 A 
HETATM   22  C14 UNL     1      16.845   2.320  50.426  1.00  0.00     0.009 A 
HETATM   23  C15 UNL     1      16.089   3.491  50.397  1.00  0.00     0.001 A 
HETATM   24  C16 UNL     1      14.703   3.443  50.242  1.00  0.00     0.000 A 
HETATM   25  C17 UNL     1      14.092   2.211  50.121  1.00  0.00     0.001 A 
HETATM   26  C18 UNL     1      14.828   1.045  50.150  1.00  0.00     0.009 A 
ENDBRANCH  20  21
ENDBRANCH  17  20
ENDBRANCH   4  11
BRANCH   1  27
HETATM   27  N1  UNL     1      25.823   1.974  51.014  1.00  0.00    -0.325 N 
HETATM   28  C3  UNL     1      25.200   3.240  51.145  1.00  0.00     0.221 C 
HETATM   29  O1  UNL     1      24.512   3.641  52.111  1.00  0.00    -0.273 OA
HETATM   30  H6  UNL     1      26.355   1.795  50.155  1.00  0.00     0.169 HD
BRANCH  28  31
HETATM   31  C2  UNL     1      25.245   4.338  50.148  1.00  0.00     0.098 C 
HETATM   32  C1  UNL     1      26.554   4.158  49.374  1.00  0.00     0.014 C 
ENDBRANCH  28  31
ENDBRANCH   1  27
BRANCH  10  33
HETATM   33  O2  UNL     1      27.875   1.354  52.712  1.00  0.00    -0.354 OA
HETATM   34  C26 UNL     1      28.470   2.292  53.572  1.00  0.00     0.210 C 
ENDBRANCH  10  33
TORSDOF 6
ENDMDL
