MODEL 1
REMARK VINA RESULT:      -7.7      0.000      0.000
REMARK  7 active torsions:
REMARK  status: ('A' for Active; 'I' for Inactive)
REMARK    1  A    between atoms: C3_3  and  C4_4 
REMARK    2  A    between atoms: C4_4  and  O1_5 
REMARK    3  A    between atoms: C7_8  and  S1_9 
REMARK    4  A    between atoms: S1_9  and  C8_10 
REMARK    5  A    between atoms: C9_11  and  C10_12 
REMARK    6  A    between atoms: C10_12  and  C11_13 
REMARK    7  A    between atoms: C11_13  and  O3_15 
ROOT
HETATM    1  C8  UNL     1      26.390   1.191  53.256  1.00  0.00     0.086 A 
HETATM    2  C9  UNL     1      26.033  -0.108  53.092  1.00  0.00    -0.002 A 
HETATM    3  C13 UNL     1      27.222  -0.849  53.146  1.00  0.00     0.000 A 
HETATM    4  C14 UNL     1      27.490  -2.221  53.047  1.00  0.00     0.014 A 
HETATM    5  C15 UNL     1      28.806  -2.583  53.155  1.00  0.00     0.001 A 
HETATM    6  C16 UNL     1      29.872  -1.736  53.348  1.00  0.00     0.002 A 
HETATM    7  C17 UNL     1      29.589  -0.379  53.442  1.00  0.00     0.030 A 
HETATM    8  C18 UNL     1      28.259   0.034  53.338  1.00  0.00     0.045 A 
HETATM    9  N1  UNL     1      27.737   1.291  53.404  1.00  0.00    -0.344 N 
HETATM   10  C19 UNL     1      28.559   2.497  53.607  1.00  0.00     0.157 C 
ENDROOT
BRANCH   1  11
HETATM   11  S1  UNL     1      25.433   2.644  53.427  1.00  0.00    -0.054 SA
BRANCH  11  12
HETATM   12  C7  UNL     1      24.909   3.216  51.814  1.00  0.00     0.075 A 
HETATM   13  C6  UNL     1      25.828   2.981  50.890  1.00  0.00     0.023 A 
HETATM   14  C3  UNL     1      25.413   3.473  49.512  1.00  0.00     0.084 A 
HETATM   15  C2  UNL     1      24.066   4.032  49.882  1.00  0.00     0.012 A 
HETATM   16  C1  UNL     1      23.199   4.622  49.066  1.00  0.00     0.039 C 
HETATM   17  N2  UNL     1      23.786   3.868  51.259  1.00  0.00    -0.349 N 
HETATM   18  C20 UNL     1      22.621   4.250  52.023  1.00  0.00     0.156 C 
BRANCH  14  19
HETATM   19  C4  UNL     1      26.337   4.652  49.215  1.00  0.00     0.181 C 
BRANCH  19  20
HETATM   20  O1  UNL     1      27.628   4.280  48.969  1.00  0.00    -0.395 OA
HETATM   21  C5  UNL     1      28.323   5.378  48.433  1.00  0.00     0.201 C 
ENDBRANCH  19  20
ENDBRANCH  14  19
ENDBRANCH  11  12
ENDBRANCH   1  11
BRANCH   2  22
HETATM   22  C10 UNL     1      24.738  -0.787  52.824  1.00  0.00     0.153 C 
BRANCH  22  23
HETATM   23  C11 UNL     1      23.981  -0.863  54.138  1.00  0.00     0.262 C 
HETATM   24  O2  UNL     1      24.511  -1.082  55.287  1.00  0.00    -0.265 OA
BRANCH  23  25
HETATM   25  O3  UNL     1      22.599  -0.667  53.989  1.00  0.00    -0.326 OA
HETATM   26  C12 UNL     1      21.593  -1.500  54.464  1.00  0.00     0.213 C 
ENDBRANCH  23  25
ENDBRANCH  22  23
ENDBRANCH   2  22
TORSDOF 7
ENDMDL
MODEL 2
REMARK VINA RESULT:      -7.6      2.674      4.689
REMARK  7 active torsions:
REMARK  status: ('A' for Active; 'I' for Inactive)
REMARK    1  A    between atoms: C3_3  and  C4_4 
REMARK    2  A    between atoms: C4_4  and  O1_5 
REMARK    3  A    between atoms: C7_8  and  S1_9 
REMARK    4  A    between atoms: S1_9  and  C8_10 
REMARK    5  A    between atoms: C9_11  and  C10_12 
REMARK    6  A    between atoms: C10_12  and  C11_13 
REMARK    7  A    between atoms: C11_13  and  O3_15 
ROOT
HETATM    1  C8  UNL     1      22.405   1.206  51.403  1.00  0.00     0.086 A 
HETATM    2  C9  UNL     1      23.499   0.932  52.157  1.00  0.00    -0.002 A 
HETATM    3  C13 UNL     1      23.068   0.060  53.167  1.00  0.00     0.000 A 
HETATM    4  C14 UNL     1      23.736  -0.567  54.228  1.00  0.00     0.014 A 
HETATM    5  C15 UNL     1      22.968  -1.373  55.024  1.00  0.00     0.001 A 
HETATM    6  C16 UNL     1      21.623  -1.619  54.881  1.00  0.00     0.002 A 
HETATM    7  C17 UNL     1      20.976  -0.990  53.825  1.00  0.00     0.030 A 
HETATM    8  C18 UNL     1      21.722  -0.158  52.987  1.00  0.00     0.045 A 
HETATM    9  N1  UNL     1      21.321   0.554  51.897  1.00  0.00    -0.344 N 
HETATM   10  C19 UNL     1      19.933   0.558  51.402  1.00  0.00     0.157 C 
ENDROOT
BRANCH   1  11
HETATM   11  S1  UNL     1      22.217   2.106  49.916  1.00  0.00    -0.054 SA
BRANCH  11  12
HETATM   12  C7  UNL     1      23.234   3.578  49.967  1.00  0.00     0.075 A 
HETATM   13  C6  UNL     1      24.294   3.467  49.182  1.00  0.00     0.023 A 
HETATM   14  C3  UNL     1      25.185   4.699  49.220  1.00  0.00     0.084 A 
HETATM   15  C2  UNL     1      24.383   5.511  50.202  1.00  0.00     0.012 A 
HETATM   16  C1  UNL     1      24.672   6.728  50.650  1.00  0.00     0.039 C 
HETATM   17  N2  UNL     1      23.224   4.823  50.634  1.00  0.00    -0.349 N 
HETATM   18  C20 UNL     1      22.191   5.232  51.555  1.00  0.00     0.156 C 
BRANCH  14  19
HETATM   19  C4  UNL     1      26.460   4.248  49.927  1.00  0.00     0.181 C 
BRANCH  19  20
HETATM   20  O1  UNL     1      27.538   4.152  49.093  1.00  0.00    -0.395 OA
HETATM   21  C5  UNL     1      27.760   5.402  48.491  1.00  0.00     0.201 C 
ENDBRANCH  19  20
ENDBRANCH  14  19
ENDBRANCH  11  12
ENDBRANCH   1  11
BRANCH   2  22
HETATM   22  C10 UNL     1      24.907   1.409  52.129  1.00  0.00     0.153 C 
BRANCH  22  23
HETATM   23  C11 UNL     1      25.073   2.407  53.261  1.00  0.00     0.262 C 
HETATM   24  O2  UNL     1      24.320   3.427  53.467  1.00  0.00    -0.265 OA
BRANCH  23  25
HETATM   25  O3  UNL     1      26.161   2.113  54.099  1.00  0.00    -0.326 OA
HETATM   26  C12 UNL     1      27.213   1.253  53.811  1.00  0.00     0.213 C 
ENDBRANCH  23  25
ENDBRANCH  22  23
ENDBRANCH   2  22
TORSDOF 7
ENDMDL
MODEL 3
REMARK VINA RESULT:      -7.2      1.813      3.026
REMARK  7 active torsions:
REMARK  status: ('A' for Active; 'I' for Inactive)
REMARK    1  A    between atoms: C3_3  and  C4_4 
REMARK    2  A    between atoms: C4_4  and  O1_5 
REMARK    3  A    between atoms: C7_8  and  S1_9 
REMARK    4  A    between atoms: S1_9  and  C8_10 
REMARK    5  A    between atoms: C9_11  and  C10_12 
REMARK    6  A    between atoms: C10_12  and  C11_13 
REMARK    7  A    between atoms: C11_13  and  O3_15 
ROOT
HETATM    1  C8  UNL     1      26.591   1.164  53.430  1.00  0.00     0.086 A 
HETATM    2  C9  UNL     1      26.228  -0.132  53.258  1.00  0.00    -0.002 A 
HETATM    3  C13 UNL     1      27.418  -0.874  53.265  1.00  0.00     0.000 A 
HETATM    4  C14 UNL     1      27.682  -2.244  53.138  1.00  0.00     0.014 A 
HETATM    5  C15 UNL     1      29.000  -2.608  53.200  1.00  0.00     0.001 A 
HETATM    6  C16 UNL     1      30.072  -1.764  53.372  1.00  0.00     0.002 A 
HETATM    7  C17 UNL     1      29.793  -0.408  53.496  1.00  0.00     0.030 A 
HETATM    8  C18 UNL     1      28.461   0.006  53.438  1.00  0.00     0.045 A 
HETATM    9  N1  UNL     1      27.942   1.262  53.538  1.00  0.00    -0.344 N 
HETATM   10  C19 UNL     1      28.770   2.465  53.733  1.00  0.00     0.157 C 
ENDROOT
BRANCH   1  11
HETATM   11  S1  UNL     1      25.641   2.615  53.651  1.00  0.00    -0.054 SA
BRANCH  11  12
HETATM   12  C7  UNL     1      24.615   2.892  52.211  1.00  0.00     0.075 A 
HETATM   13  C6  UNL     1      23.327   2.837  52.510  1.00  0.00     0.023 A 
HETATM   14  C3  UNL     1      22.433   3.053  51.299  1.00  0.00     0.084 A 
HETATM   15  C2  UNL     1      23.513   3.235  50.267  1.00  0.00     0.012 A 
HETATM   16  C1  UNL     1      23.342   3.463  48.969  1.00  0.00     0.039 C 
HETATM   17  N2  UNL     1      24.807   3.135  50.832  1.00  0.00    -0.349 N 
HETATM   18  C20 UNL     1      26.104   3.250  50.210  1.00  0.00     0.156 C 
BRANCH  14  19
HETATM   19  C4  UNL     1      21.774   1.700  51.043  1.00  0.00     0.181 C 
BRANCH  19  20
HETATM   20  O1  UNL     1      20.495   1.799  50.575  1.00  0.00    -0.395 OA
HETATM   21  C5  UNL     1      19.790   0.634  50.924  1.00  0.00     0.201 C 
ENDBRANCH  19  20
ENDBRANCH  14  19
ENDBRANCH  11  12
ENDBRANCH   1  11
BRANCH   2  22
HETATM   22  C10 UNL     1      24.926  -0.806  53.019  1.00  0.00     0.153 C 
BRANCH  22  23
HETATM   23  C11 UNL     1      24.199  -0.881  54.350  1.00  0.00     0.262 C 
HETATM   24  O2  UNL     1      24.721  -1.261  55.460  1.00  0.00    -0.265 OA
BRANCH  23  25
HETATM   25  O3  UNL     1      22.854  -0.485  54.266  1.00  0.00    -0.326 OA
HETATM   26  C12 UNL     1      21.838  -1.159  53.600  1.00  0.00     0.213 C 
ENDBRANCH  23  25
ENDBRANCH  22  23
ENDBRANCH   2  22
TORSDOF 7
ENDMDL
MODEL 4
REMARK VINA RESULT:      -7.2      2.047      4.358
REMARK  7 active torsions:
REMARK  status: ('A' for Active; 'I' for Inactive)
REMARK    1  A    between atoms: C3_3  and  C4_4 
REMARK    2  A    between atoms: C4_4  and  O1_5 
REMARK    3  A    between atoms: C7_8  and  S1_9 
REMARK    4  A    between atoms: S1_9  and  C8_10 
REMARK    5  A    between atoms: C9_11  and  C10_12 
REMARK    6  A    between atoms: C10_12  and  C11_13 
REMARK    7  A    between atoms: C11_13  and  O3_15 
ROOT
HETATM    1  C8  UNL     1      24.588   1.218  52.143  1.00  0.00     0.086 A 
HETATM    2  C9  UNL     1      24.814   0.555  53.305  1.00  0.00    -0.002 A 
HETATM    3  C13 UNL     1      23.603  -0.067  53.640  1.00  0.00     0.000 A 
HETATM    4  C14 UNL     1      23.222  -0.886  54.713  1.00  0.00     0.014 A 
HETATM    5  C15 UNL     1      21.924  -1.321  54.700  1.00  0.00     0.001 A 
HETATM    6  C16 UNL     1      20.975  -1.032  53.748  1.00  0.00     0.002 A 
HETATM    7  C17 UNL     1      21.369  -0.219  52.693  1.00  0.00     0.030 A 
HETATM    8  C18 UNL     1      22.685   0.247  52.666  1.00  0.00     0.045 A 
HETATM    9  N1  UNL     1      23.301   1.042  51.746  1.00  0.00    -0.344 N 
HETATM   10  C19 UNL     1      22.619   1.573  50.553  1.00  0.00     0.157 C 
ENDROOT
BRANCH   1  11
HETATM   11  S1  UNL     1      25.664   2.097  51.082  1.00  0.00    -0.054 SA
BRANCH  11  12
HETATM   12  C7  UNL     1      24.968   3.704  50.711  1.00  0.00     0.075 A 
HETATM   13  C6  UNL     1      25.288   4.106  49.492  1.00  0.00     0.023 A 
HETATM   14  C3  UNL     1      24.721   5.477  49.157  1.00  0.00     0.084 A 
HETATM   15  C2  UNL     1      24.021   5.742  50.463  1.00  0.00     0.012 A 
HETATM   16  C1  UNL     1      23.324   6.826  50.785  1.00  0.00     0.039 C 
HETATM   17  N2  UNL     1      24.181   4.672  51.375  1.00  0.00    -0.349 N 
HETATM   18  C20 UNL     1      23.677   4.513  52.718  1.00  0.00     0.156 C 
BRANCH  14  19
HETATM   19  C4  UNL     1      25.933   6.403  49.087  1.00  0.00     0.181 C 
BRANCH  19  20
HETATM   20  O1  UNL     1      27.056   5.791  48.608  1.00  0.00    -0.395 OA
HETATM   21  C5  UNL     1      27.993   6.775  48.248  1.00  0.00     0.201 C 
ENDBRANCH  19  20
ENDBRANCH  14  19
ENDBRANCH  11  12
ENDBRANCH   1  11
BRANCH   2  22
HETATM   22  C10 UNL     1      25.986   0.452  54.213  1.00  0.00     0.153 C 
BRANCH  22  23
HETATM   23  C11 UNL     1      26.991  -0.479  53.559  1.00  0.00     0.262 C 
HETATM   24  O2  UNL     1      26.845  -1.747  53.420  1.00  0.00    -0.265 OA
BRANCH  23  25
HETATM   25  O3  UNL     1      28.140   0.186  53.102  1.00  0.00    -0.326 OA
HETATM   26  C12 UNL     1      28.603   1.423  53.532  1.00  0.00     0.213 C 
ENDBRANCH  23  25
ENDBRANCH  22  23
ENDBRANCH   2  22
TORSDOF 7
ENDMDL
MODEL 5
REMARK VINA RESULT:      -7.1      2.695      3.839
REMARK  7 active torsions:
REMARK  status: ('A' for Active; 'I' for Inactive)
REMARK    1  A    between atoms: C3_3  and  C4_4 
REMARK    2  A    between atoms: C4_4  and  O1_5 
REMARK    3  A    between atoms: C7_8  and  S1_9 
REMARK    4  A    between atoms: S1_9  and  C8_10 
REMARK    5  A    between atoms: C9_11  and  C10_12 
REMARK    6  A    between atoms: C10_12  and  C11_13 
REMARK    7  A    between atoms: C11_13  and  O3_15 
ROOT
HETATM    1  C8  UNL     1      22.661   1.501  52.748  1.00  0.00     0.086 A 
HETATM    2  C9  UNL     1      23.070   0.240  53.039  1.00  0.00    -0.002 A 
HETATM    3  C13 UNL     1      24.440   0.331  53.325  1.00  0.00     0.000 A 
HETATM    4  C14 UNL     1      25.397  -0.624  53.695  1.00  0.00     0.014 A 
HETATM    5  C15 UNL     1      26.665  -0.150  53.902  1.00  0.00     0.001 A 
HETATM    6  C16 UNL     1      27.078   1.156  53.782  1.00  0.00     0.002 A 
HETATM    7  C17 UNL     1      26.117   2.090  53.414  1.00  0.00     0.030 A 
HETATM    8  C18 UNL     1      24.810   1.649  53.193  1.00  0.00     0.045 A 
HETATM    9  N1  UNL     1      23.707   2.364  52.835  1.00  0.00    -0.344 N 
HETATM   10  C19 UNL     1      23.727   3.820  52.607  1.00  0.00     0.157 C 
ENDROOT
BRANCH   1  11
HETATM   11  S1  UNL     1      21.074   2.160  52.428  1.00  0.00    -0.054 SA
BRANCH  11  12
HETATM   12  C7  UNL     1      20.805   2.258  50.661  1.00  0.00     0.075 A 
HETATM   13  C6  UNL     1      21.715   1.571  49.989  1.00  0.00     0.023 A 
HETATM   14  C3  UNL     1      21.518   1.651  48.483  1.00  0.00     0.084 A 
HETATM   15  C2  UNL     1      20.301   2.536  48.475  1.00  0.00     0.012 A 
HETATM   16  C1  UNL     1      19.643   2.973  47.406  1.00  0.00     0.039 C 
HETATM   17  N2  UNL     1      19.893   2.885  49.784  1.00  0.00    -0.349 N 
HETATM   18  C20 UNL     1      18.786   3.701  50.225  1.00  0.00     0.156 C 
BRANCH  14  19
HETATM   19  C4  UNL     1      22.694   2.479  47.971  1.00  0.00     0.181 C 
BRANCH  19  20
HETATM   20  O1  UNL     1      23.530   2.906  48.963  1.00  0.00    -0.395 OA
HETATM   21  C5  UNL     1      23.713   4.294  48.839  1.00  0.00     0.201 C 
ENDBRANCH  19  20
ENDBRANCH  14  19
ENDBRANCH  11  12
ENDBRANCH   1  11
BRANCH   2  22
HETATM   22  C10 UNL     1      22.392  -1.082  53.033  1.00  0.00     0.153 C 
BRANCH  22  23
HETATM   23  C11 UNL     1      21.738  -1.267  54.391  1.00  0.00     0.262 C 
HETATM   24  O2  UNL     1      22.300  -1.793  55.418  1.00  0.00    -0.265 OA
BRANCH  23  25
HETATM   25  O3  UNL     1      20.416  -0.797  54.434  1.00  0.00    -0.326 OA
HETATM   26  C12 UNL     1      19.412  -1.078  53.516  1.00  0.00     0.213 C 
ENDBRANCH  23  25
ENDBRANCH  22  23
ENDBRANCH   2  22
TORSDOF 7
ENDMDL
MODEL 6
REMARK VINA RESULT:      -7.1      3.093      5.552
REMARK  7 active torsions:
REMARK  status: ('A' for Active; 'I' for Inactive)
REMARK    1  A    between atoms: C3_3  and  C4_4 
REMARK    2  A    between atoms: C4_4  and  O1_5 
REMARK    3  A    between atoms: C7_8  and  S1_9 
REMARK    4  A    between atoms: S1_9  and  C8_10 
REMARK    5  A    between atoms: C9_11  and  C10_12 
REMARK    6  A    between atoms: C10_12  and  C11_13 
REMARK    7  A    between atoms: C11_13  and  O3_15 
ROOT
HETATM    1  C8  UNL     1      22.736   1.395  51.378  1.00  0.00     0.086 A 
HETATM    2  C9  UNL     1      23.696   0.929  52.216  1.00  0.00    -0.002 A 
HETATM    3  C13 UNL     1      23.042   0.090  53.130  1.00  0.00     0.000 A 
HETATM    4  C14 UNL     1      23.500  -0.672  54.213  1.00  0.00     0.014 A 
HETATM    5  C15 UNL     1      22.546  -1.387  54.887  1.00  0.00     0.001 A 
HETATM    6  C16 UNL     1      21.201  -1.424  54.602  1.00  0.00     0.002 A 
HETATM    7  C17 UNL     1      20.764  -0.662  53.525  1.00  0.00     0.030 A 
HETATM    8  C18 UNL     1      21.705   0.083  52.810  1.00  0.00     0.045 A 
HETATM    9  N1  UNL     1      21.524   0.891  51.728  1.00  0.00    -0.344 N 
HETATM   10  C19 UNL     1      20.210   1.123  51.103  1.00  0.00     0.157 C 
ENDROOT
BRANCH   1  11
HETATM   11  S1  UNL     1      22.834   2.373  49.932  1.00  0.00    -0.054 SA
BRANCH  11  12
HETATM   12  C7  UNL     1      23.017   4.095  50.379  1.00  0.00     0.075 A 
HETATM   13  C6  UNL     1      21.865   4.629  50.752  1.00  0.00     0.023 A 
HETATM   14  C3  UNL     1      21.990   6.099  51.122  1.00  0.00     0.084 A 
HETATM   15  C2  UNL     1      23.465   6.257  50.867  1.00  0.00     0.012 A 
HETATM   16  C1  UNL     1      24.183   7.365  51.017  1.00  0.00     0.039 C 
HETATM   17  N2  UNL     1      24.057   5.051  50.425  1.00  0.00    -0.349 N 
HETATM   18  C20 UNL     1      25.428   4.762  50.077  1.00  0.00     0.156 C 
BRANCH  14  19
HETATM   19  C4  UNL     1      21.248   6.852  50.021  1.00  0.00     0.181 C 
BRANCH  19  20
HETATM   20  O1  UNL     1      20.785   8.074  50.418  1.00  0.00    -0.395 OA
HETATM   21  C5  UNL     1      20.918   8.979  49.351  1.00  0.00     0.201 C 
ENDBRANCH  19  20
ENDBRANCH  14  19
ENDBRANCH  11  12
ENDBRANCH   1  11
BRANCH   2  22
HETATM   22  C10 UNL     1      25.153   1.192  52.350  1.00  0.00     0.153 C 
BRANCH  22  23
HETATM   23  C11 UNL     1      25.321   2.347  53.320  1.00  0.00     0.262 C 
HETATM   24  O2  UNL     1      24.480   3.303  53.488  1.00  0.00    -0.265 OA
BRANCH  23  25
HETATM   25  O3  UNL     1      26.520   2.285  54.049  1.00  0.00    -0.326 OA
HETATM   26  C12 UNL     1      27.802   2.210  53.519  1.00  0.00     0.213 C 
ENDBRANCH  23  25
ENDBRANCH  22  23
ENDBRANCH   2  22
TORSDOF 7
ENDMDL
MODEL 7
REMARK VINA RESULT:      -7.0      2.510      5.086
REMARK  7 active torsions:
REMARK  status: ('A' for Active; 'I' for Inactive)
REMARK    1  A    between atoms: C3_3  and  C4_4 
REMARK    2  A    between atoms: C4_4  and  O1_5 
REMARK    3  A    between atoms: C7_8  and  S1_9 
REMARK    4  A    between atoms: S1_9  and  C8_10 
REMARK    5  A    between atoms: C9_11  and  C10_12 
REMARK    6  A    between atoms: C10_12  and  C11_13 
REMARK    7  A    between atoms: C11_13  and  O3_15 
ROOT
HETATM    1  C8  UNL     1      24.149   1.181  52.052  1.00  0.00     0.086 A 
HETATM    2  C9  UNL     1      24.499   0.559  53.206  1.00  0.00    -0.002 A 
HETATM    3  C13 UNL     1      23.355  -0.127  53.641  1.00  0.00     0.000 A 
HETATM    4  C14 UNL     1      23.104  -0.943  54.753  1.00  0.00     0.014 A 
HETATM    5  C15 UNL     1      21.838  -1.454  54.844  1.00  0.00     0.001 A 
HETATM    6  C16 UNL     1      20.806  -1.244  53.960  1.00  0.00     0.002 A 
HETATM    7  C17 UNL     1      21.072  -0.432  52.864  1.00  0.00     0.030 A 
HETATM    8  C18 UNL     1      22.352   0.111  52.731  1.00  0.00     0.045 A 
HETATM    9  N1  UNL     1      22.849   0.920  51.754  1.00  0.00    -0.344 N 
HETATM   10  C19 UNL     1      22.052   1.383  50.605  1.00  0.00     0.157 C 
ENDROOT
BRANCH   1  11
HETATM   11  S1  UNL     1      25.089   2.099  50.898  1.00  0.00    -0.054 SA
BRANCH  11  12
HETATM   12  C7  UNL     1      24.684   3.837  51.034  1.00  0.00     0.075 A 
HETATM   13  C6  UNL     1      23.795   4.058  51.990  1.00  0.00     0.023 A 
HETATM   14  C3  UNL     1      23.421   5.527  52.115  1.00  0.00     0.084 A 
HETATM   15  C2  UNL     1      24.298   6.064  51.016  1.00  0.00     0.012 A 
HETATM   16  C1  UNL     1      24.406   7.332  50.634  1.00  0.00     0.039 C 
HETATM   17  N2  UNL     1      25.042   5.039  50.386  1.00  0.00    -0.349 N 
HETATM   18  C20 UNL     1      25.995   5.115  49.303  1.00  0.00     0.156 C 
BRANCH  14  19
HETATM   19  C4  UNL     1      21.974   5.613  51.635  1.00  0.00     0.181 C 
BRANCH  19  20
HETATM   20  O1  UNL     1      21.735   4.888  50.502  1.00  0.00    -0.395 OA
HETATM   21  C5  UNL     1      20.350   4.690  50.371  1.00  0.00     0.201 C 
ENDBRANCH  19  20
ENDBRANCH  14  19
ENDBRANCH  11  12
ENDBRANCH   1  11
BRANCH   2  22
HETATM   22  C10 UNL     1      25.738   0.546  54.027  1.00  0.00     0.153 C 
BRANCH  22  23
HETATM   23  C11 UNL     1      26.602  -0.600  53.532  1.00  0.00     0.262 C 
HETATM   24  O2  UNL     1      26.295  -1.401  52.576  1.00  0.00    -0.265 OA
BRANCH  23  25
HETATM   25  O3  UNL     1      27.812  -0.719  54.233  1.00  0.00    -0.326 OA
HETATM   26  C12 UNL     1      28.497   0.306  54.874  1.00  0.00     0.213 C 
ENDBRANCH  23  25
ENDBRANCH  22  23
ENDBRANCH   2  22
TORSDOF 7
ENDMDL
MODEL 8
REMARK VINA RESULT:      -7.0      3.002      5.509
REMARK  7 active torsions:
REMARK  status: ('A' for Active; 'I' for Inactive)
REMARK    1  A    between atoms: C3_3  and  C4_4 
REMARK    2  A    between atoms: C4_4  and  O1_5 
REMARK    3  A    between atoms: C7_8  and  S1_9 
REMARK    4  A    between atoms: S1_9  and  C8_10 
REMARK    5  A    between atoms: C9_11  and  C10_12 
REMARK    6  A    between atoms: C10_12  and  C11_13 
REMARK    7  A    between atoms: C11_13  and  O3_15 
ROOT
HETATM    1  C8  UNL     1      24.560   2.741  50.601  1.00  0.00     0.086 A 
HETATM    2  C9  UNL     1      24.631   2.169  51.829  1.00  0.00    -0.002 A 
HETATM    3  C13 UNL     1      23.451   1.427  51.981  1.00  0.00     0.000 A 
HETATM    4  C14 UNL     1      22.963   0.625  53.022  1.00  0.00     0.014 A 
HETATM    5  C15 UNL     1      21.744   0.041  52.804  1.00  0.00     0.001 A 
HETATM    6  C16 UNL     1      20.967   0.167  51.677  1.00  0.00     0.002 A 
HETATM    7  C17 UNL     1      21.466   0.966  50.655  1.00  0.00     0.030 A 
HETATM    8  C18 UNL     1      22.706   1.582  50.836  1.00  0.00     0.045 A 
HETATM    9  N1  UNL     1      23.398   2.395  49.989  1.00  0.00    -0.344 N 
HETATM   10  C19 UNL     1      22.903   2.782  48.656  1.00  0.00     0.157 C 
ENDROOT
BRANCH   1  11
HETATM   11  S1  UNL     1      25.719   3.685  49.693  1.00  0.00    -0.054 SA
BRANCH  11  12
HETATM   12  C7  UNL     1      25.449   5.428  49.997  1.00  0.00     0.075 A 
HETATM   13  C6  UNL     1      24.443   5.629  50.833  1.00  0.00     0.023 A 
HETATM   14  C3  UNL     1      24.183   7.103  51.097  1.00  0.00     0.084 A 
HETATM   15  C2  UNL     1      25.265   7.671  50.218  1.00  0.00     0.012 A 
HETATM   16  C1  UNL     1      25.541   8.956  50.026  1.00  0.00     0.039 C 
HETATM   17  N2  UNL     1      26.008   6.654  49.572  1.00  0.00    -0.349 N 
HETATM   18  C20 UNL     1      27.122   6.755  48.660  1.00  0.00     0.156 C 
BRANCH  14  19
HETATM   19  C4  UNL     1      22.843   7.398  50.426  1.00  0.00     0.181 C 
BRANCH  19  20
HETATM   20  O1  UNL     1      22.002   6.321  50.399  1.00  0.00    -0.395 OA
HETATM   21  C5  UNL     1      21.071   6.497  49.361  1.00  0.00     0.201 C 
ENDBRANCH  19  20
ENDBRANCH  14  19
ENDBRANCH  11  12
ENDBRANCH   1  11
BRANCH   2  22
HETATM   22  C10 UNL     1      25.614   2.251  52.941  1.00  0.00     0.153 C 
BRANCH  22  23
HETATM   23  C11 UNL     1      26.925   1.677  52.435  1.00  0.00     0.262 C 
HETATM   24  O2  UNL     1      28.053   2.290  52.439  1.00  0.00    -0.265 OA
BRANCH  23  25
HETATM   25  O3  UNL     1      26.799   0.369  51.941  1.00  0.00    -0.326 OA
HETATM   26  C12 UNL     1      26.958  -0.805  52.667  1.00  0.00     0.213 C 
ENDBRANCH  23  25
ENDBRANCH  22  23
ENDBRANCH   2  22
TORSDOF 7
ENDMDL
MODEL 9
REMARK VINA RESULT:      -7.0      3.289      6.522
REMARK  7 active torsions:
REMARK  status: ('A' for Active; 'I' for Inactive)
REMARK    1  A    between atoms: C3_3  and  C4_4 
REMARK    2  A    between atoms: C4_4  and  O1_5 
REMARK    3  A    between atoms: C7_8  and  S1_9 
REMARK    4  A    between atoms: S1_9  and  C8_10 
REMARK    5  A    between atoms: C9_11  and  C10_12 
REMARK    6  A    between atoms: C10_12  and  C11_13 
REMARK    7  A    between atoms: C11_13  and  O3_15 
ROOT
HETATM    1  C8  UNL     1      24.735   5.450  50.369  1.00  0.00     0.086 A 
HETATM    2  C9  UNL     1      25.648   4.559  49.908  1.00  0.00    -0.002 A 
HETATM    3  C13 UNL     1      26.630   5.312  49.250  1.00  0.00     0.000 A 
HETATM    4  C14 UNL     1      27.812   4.956  48.585  1.00  0.00     0.014 A 
HETATM    5  C15 UNL     1      28.537   5.992  48.059  1.00  0.00     0.001 A 
HETATM    6  C16 UNL     1      28.216   7.328  48.121  1.00  0.00     0.002 A 
HETATM    7  C17 UNL     1      27.041   7.663  48.783  1.00  0.00     0.030 A 
HETATM    8  C18 UNL     1      26.271   6.637  49.335  1.00  0.00     0.045 A 
HETATM    9  N1  UNL     1      25.099   6.713  50.027  1.00  0.00    -0.344 N 
HETATM   10  C19 UNL     1      24.413   7.985  50.315  1.00  0.00     0.157 C 
ENDROOT
BRANCH   1  11
HETATM   11  S1  UNL     1      23.325   5.246  51.382  1.00  0.00    -0.054 SA
BRANCH  11  12
HETATM   12  C7  UNL     1      22.423   3.786  50.876  1.00  0.00     0.075 A 
HETATM   13  C6  UNL     1      22.018   3.076  51.917  1.00  0.00     0.023 A 
HETATM   14  C3  UNL     1      21.262   1.820  51.514  1.00  0.00     0.084 A 
HETATM   15  C2  UNL     1      21.343   1.993  50.021  1.00  0.00     0.012 A 
HETATM   16  C1  UNL     1      20.845   1.177  49.098  1.00  0.00     0.039 C 
HETATM   17  N2  UNL     1      22.039   3.172  49.663  1.00  0.00    -0.349 N 
HETATM   18  C20 UNL     1      22.336   3.716  48.359  1.00  0.00     0.156 C 
BRANCH  14  19
HETATM   19  C4  UNL     1      22.182   0.661  51.894  1.00  0.00     0.181 C 
BRANCH  19  20
HETATM   20  O1  UNL     1      21.892   0.117  53.112  1.00  0.00    -0.395 OA
HETATM   21  C5  UNL     1      23.008  -0.609  53.563  1.00  0.00     0.201 C 
ENDBRANCH  19  20
ENDBRANCH  14  19
ENDBRANCH  11  12
ENDBRANCH   1  11
BRANCH   2  22
HETATM   22  C10 UNL     1      25.728   3.075  49.925  1.00  0.00     0.153 C 
BRANCH  22  23
HETATM   23  C11 UNL     1      26.290   2.662  51.274  1.00  0.00     0.262 C 
HETATM   24  O2  UNL     1      27.533   2.678  51.595  1.00  0.00    -0.265 OA
BRANCH  23  25
HETATM   25  O3  UNL     1      25.301   2.245  52.178  1.00  0.00    -0.326 OA
HETATM   26  C12 UNL     1      25.347   2.361  53.562  1.00  0.00     0.213 C 
ENDBRANCH  23  25
ENDBRANCH  22  23
ENDBRANCH   2  22
TORSDOF 7
ENDMDL
