MODEL 1
REMARK VINA RESULT:      -8.0      0.000      0.000
REMARK  6 active torsions:
REMARK  status: ('A' for Active; 'I' for Inactive)
REMARK    1  A    between atoms: N1_1  and  P1_2 
REMARK    2  A    between atoms: C5_9  and  N4_10 
REMARK       I    between atoms: N4_10  and  C6_11 
REMARK    3  A    between atoms: C6_11  and  C7_13 
REMARK    4  A    between atoms: C8_14  and  C9_15 
REMARK    5  A    between atoms: C9_15  and  C10_16 
REMARK    6  A    between atoms: C10_16  and  N5_17 
ROOT
HETATM    1  N4  UNL     1      26.842   3.720  50.388  1.00  0.00    -0.316 N 
HETATM    2  C6  UNL     1      26.264   4.582  49.387  1.00  0.00     0.300 C 
HETATM    3  O1  UNL     1      25.044   4.604  49.093  1.00  0.00    -0.258 OA
HETATM    4  H5  UNL     1      27.864   3.735  50.601  1.00  0.00     0.170 HD
ENDROOT
BRANCH   1   5
HETATM    5  C5  UNL     1      26.191   2.759  51.213  1.00  0.00     0.036 A 
HETATM    6  C4  UNL     1      24.855   2.460  51.059  1.00  0.00     0.032 A 
HETATM    7  C3  UNL     1      24.123   1.553  51.795  1.00  0.00     0.035 A 
HETATM    8  C2  UNL     1      24.837   0.884  52.791  1.00  0.00     0.072 A 
HETATM    9  N3  UNL     1      24.190  -0.060  53.599  1.00  0.00    -0.241 NA
HETATM   10  C16 UNL     1      26.196   1.141  53.000  1.00  0.00     0.037 A 
HETATM   11  C1  UNL     1      24.726  -0.747  54.550  1.00  0.00     0.234 A 
HETATM   12  N2  UNL     1      26.070  -0.779  55.073  1.00  0.00    -0.232 NA
HETATM   13  P1  UNL     1      27.045   0.237  54.305  1.00  0.00     0.136 P 
HETATM   14  C15 UNL     1      26.877   2.077  52.215  1.00  0.00     0.047 A 
BRANCH  13  15
HETATM   15  N1  UNL     1      28.317   0.909  54.936  1.00  0.00    -0.205 NA
HETATM   16  H1  UNL     1      29.120   0.988  54.282  1.00  0.00     0.148 HD
ENDBRANCH  13  15
ENDBRANCH   1   5
BRANCH   2  17
HETATM   17  C7  UNL     1      27.188   5.453  48.713  1.00  0.00    -0.005 C 
HETATM   18  C8  UNL     1      27.957   6.201  48.151  1.00  0.00    -0.095 C 
BRANCH  18  19
HETATM   19  C9  UNL     1      28.885   7.114  47.442  1.00  0.00     0.124 C 
BRANCH  19  20
HETATM   20  C10 UNL     1      29.812   7.779  48.430  1.00  0.00     0.284 C 
BRANCH  20  21
HETATM   21  N5  UNL     1      31.202   7.627  48.137  1.00  0.00     0.093 N 
HETATM   22  C11 UNL     1      31.980   7.302  49.289  1.00  0.00     0.298 C 
HETATM   23  C12 UNL     1      31.704   5.912  49.763  1.00  0.00     0.198 C 
HETATM   24  O2  UNL     1      31.978   4.995  48.778  1.00  0.00    -0.388 OA
HETATM   25  C13 UNL     1      32.401   5.590  47.592  1.00  0.00     0.198 C 
HETATM   26  C14 UNL     1      31.378   6.625  47.126  1.00  0.00     0.298 C 
ENDBRANCH  20  21
ENDBRANCH  19  20
ENDBRANCH  18  19
ENDBRANCH   2  17
TORSDOF 6
ENDMDL
MODEL 2
REMARK VINA RESULT:      -7.7      1.382      1.859
REMARK  6 active torsions:
REMARK  status: ('A' for Active; 'I' for Inactive)
REMARK    1  A    between atoms: N1_1  and  P1_2 
REMARK    2  A    between atoms: C5_9  and  N4_10 
REMARK       I    between atoms: N4_10  and  C6_11 
REMARK    3  A    between atoms: C6_11  and  C7_13 
REMARK    4  A    between atoms: C8_14  and  C9_15 
REMARK    5  A    between atoms: C9_15  and  C10_16 
REMARK    6  A    between atoms: C10_16  and  N5_17 
ROOT
HETATM    1  N4  UNL     1      26.802   3.726  50.361  1.00  0.00    -0.316 N 
HETATM    2  C6  UNL     1      26.192   4.641  49.428  1.00  0.00     0.300 C 
HETATM    3  O1  UNL     1      24.958   4.712  49.211  1.00  0.00    -0.258 OA
HETATM    4  H5  UNL     1      27.835   3.701  50.510  1.00  0.00     0.170 HD
ENDROOT
BRANCH   1   5
HETATM    5  C5  UNL     1      26.171   2.756  51.192  1.00  0.00     0.036 A 
HETATM    6  C4  UNL     1      24.844   2.420  51.032  1.00  0.00     0.032 A 
HETATM    7  C3  UNL     1      24.132   1.501  51.772  1.00  0.00     0.035 A 
HETATM    8  C2  UNL     1      24.856   0.861  52.779  1.00  0.00     0.072 A 
HETATM    9  N3  UNL     1      24.229  -0.093  53.592  1.00  0.00    -0.241 NA
HETATM   10  C16 UNL     1      26.207   1.156  52.994  1.00  0.00     0.037 A 
HETATM   11  C1  UNL     1      24.778  -0.756  54.553  1.00  0.00     0.234 A 
HETATM   12  N2  UNL     1      26.119  -0.748  55.084  1.00  0.00    -0.232 NA
HETATM   13  P1  UNL     1      27.071   0.287  54.313  1.00  0.00     0.136 P 
HETATM   14  C15 UNL     1      26.869   2.102  52.203  1.00  0.00     0.047 A 
BRANCH  13  15
HETATM   15  N1  UNL     1      28.321   0.997  54.945  1.00  0.00    -0.205 NA
HETATM   16  H1  UNL     1      29.048   0.341  55.293  1.00  0.00     0.148 HD
ENDBRANCH  13  15
ENDBRANCH   1   5
BRANCH   2  17
HETATM   17  C7  UNL     1      27.102   5.507  48.728  1.00  0.00    -0.005 C 
HETATM   18  C8  UNL     1      27.879   6.237  48.155  1.00  0.00    -0.095 C 
BRANCH  18  19
HETATM   19  C9  UNL     1      28.816   7.151  47.458  1.00  0.00     0.124 C 
BRANCH  19  20
HETATM   20  C10 UNL     1      30.214   6.965  47.995  1.00  0.00     0.284 C 
BRANCH  20  21
HETATM   21  N5  UNL     1      30.572   7.864  49.046  1.00  0.00     0.093 N 
HETATM   22  C11 UNL     1      31.967   8.165  49.069  1.00  0.00     0.298 C 
HETATM   23  C12 UNL     1      32.364   9.017  47.908  1.00  0.00     0.198 C 
HETATM   24  O2  UNL     1      31.664  10.199  47.906  1.00  0.00    -0.388 OA
HETATM   25  C13 UNL     1      30.746  10.282  48.950  1.00  0.00     0.198 C 
HETATM   26  C14 UNL     1      29.810   9.074  48.929  1.00  0.00     0.298 C 
ENDBRANCH  20  21
ENDBRANCH  19  20
ENDBRANCH  18  19
ENDBRANCH   2  17
TORSDOF 6
ENDMDL
MODEL 3
REMARK VINA RESULT:      -7.5      6.362     10.524
REMARK  6 active torsions:
REMARK  status: ('A' for Active; 'I' for Inactive)
REMARK    1  A    between atoms: N1_1  and  P1_2 
REMARK    2  A    between atoms: C5_9  and  N4_10 
REMARK       I    between atoms: N4_10  and  C6_11 
REMARK    3  A    between atoms: C6_11  and  C7_13 
REMARK    4  A    between atoms: C8_14  and  C9_15 
REMARK    5  A    between atoms: C9_15  and  C10_16 
REMARK    6  A    between atoms: C10_16  and  N5_17 
ROOT
HETATM    1  N4  UNL     1      22.373   0.056  52.532  1.00  0.00    -0.316 N 
HETATM    2  C6  UNL     1      21.094   0.279  53.158  1.00  0.00     0.300 C 
HETATM    3  O1  UNL     1      20.933   0.478  54.386  1.00  0.00    -0.258 OA
HETATM    4  H5  UNL     1      22.460  -0.106  51.504  1.00  0.00     0.170 HD
ENDROOT
BRANCH   1   5
HETATM    5  C5  UNL     1      23.661   0.016  53.137  1.00  0.00     0.036 A 
HETATM    6  C4  UNL     1      23.908  -0.742  54.262  1.00  0.00     0.032 A 
HETATM    7  C3  UNL     1      25.107  -0.858  54.930  1.00  0.00     0.035 A 
HETATM    8  C2  UNL     1      26.162  -0.121  54.388  1.00  0.00     0.072 A 
HETATM    9  N3  UNL     1      27.427  -0.167  54.989  1.00  0.00    -0.241 NA
HETATM   10  C16 UNL     1      25.979   0.668  53.248  1.00  0.00     0.037 A 
HETATM   11  C1  UNL     1      28.483   0.460  54.595  1.00  0.00     0.234 A 
HETATM   12  N2  UNL     1      28.712   1.355  53.487  1.00  0.00    -0.232 NA
HETATM   13  P1  UNL     1      27.389   1.588  52.610  1.00  0.00     0.136 P 
HETATM   14  C15 UNL     1      24.731   0.740  52.619  1.00  0.00     0.047 A 
BRANCH  13  15
HETATM   15  N1  UNL     1      27.086   2.880  51.771  1.00  0.00    -0.205 NA
HETATM   16  H1  UNL     1      27.857   3.577  51.776  1.00  0.00     0.148 HD
ENDBRANCH  13  15
ENDBRANCH   1   5
BRANCH   2  17
HETATM   17  C7  UNL     1      19.961   0.262  52.272  1.00  0.00    -0.005 C 
HETATM   18  C8  UNL     1      19.007   0.267  51.527  1.00  0.00    -0.095 C 
BRANCH  18  19
HETATM   19  C9  UNL     1      17.822   0.269  50.634  1.00  0.00     0.124 C 
BRANCH  19  20
HETATM   20  C10 UNL     1      16.615   0.784  51.379  1.00  0.00     0.284 C 
BRANCH  20  21
HETATM   21  N5  UNL     1      16.100   2.024  50.892  1.00  0.00     0.093 N 
HETATM   22  C11 UNL     1      14.730   2.230  51.235  1.00  0.00     0.298 C 
HETATM   23  C12 UNL     1      14.563   2.483  52.698  1.00  0.00     0.198 C 
HETATM   24  O2  UNL     1      15.280   3.587  53.090  1.00  0.00    -0.388 OA
HETATM   25  C13 UNL     1      16.003   4.157  52.044  1.00  0.00     0.198 C 
HETATM   26  C14 UNL     1      16.899   3.108  51.387  1.00  0.00     0.298 C 
ENDBRANCH  20  21
ENDBRANCH  19  20
ENDBRANCH  18  19
ENDBRANCH   2  17
TORSDOF 6
ENDMDL
MODEL 4
REMARK VINA RESULT:      -7.2      6.226     10.201
REMARK  6 active torsions:
REMARK  status: ('A' for Active; 'I' for Inactive)
REMARK    1  A    between atoms: N1_1  and  P1_2 
REMARK    2  A    between atoms: C5_9  and  N4_10 
REMARK       I    between atoms: N4_10  and  C6_11 
REMARK    3  A    between atoms: C6_11  and  C7_13 
REMARK    4  A    between atoms: C8_14  and  C9_15 
REMARK    5  A    between atoms: C9_15  and  C10_16 
REMARK    6  A    between atoms: C10_16  and  N5_17 
ROOT
HETATM    1  N4  UNL     1      22.759   0.650  52.464  1.00  0.00    -0.316 N 
HETATM    2  C6  UNL     1      21.621   0.233  53.244  1.00  0.00     0.300 C 
HETATM    3  O1  UNL     1      21.665  -0.040  54.468  1.00  0.00    -0.258 OA
HETATM    4  H5  UNL     1      22.677   0.869  51.446  1.00  0.00     0.170 HD
ENDROOT
BRANCH   1   5
HETATM    5  C5  UNL     1      24.106   0.832  52.889  1.00  0.00     0.036 A 
HETATM    6  C4  UNL     1      24.587   2.069  53.259  1.00  0.00     0.032 A 
HETATM    7  C3  UNL     1      25.864   2.363  53.685  1.00  0.00     0.035 A 
HETATM    8  C2  UNL     1      26.738   1.275  53.737  1.00  0.00     0.072 A 
HETATM    9  N3  UNL     1      28.062   1.461  54.156  1.00  0.00    -0.241 NA
HETATM   10  C16 UNL     1      26.313  -0.008  53.375  1.00  0.00     0.037 A 
HETATM   11  C1  UNL     1      28.968   0.548  54.251  1.00  0.00     0.234 A 
HETATM   12  N2  UNL     1      28.939  -0.868  53.979  1.00  0.00    -0.232 NA
HETATM   13  P1  UNL     1      27.499  -1.359  53.469  1.00  0.00     0.136 P 
HETATM   14  C15 UNL     1      24.999  -0.235  52.950  1.00  0.00     0.047 A 
BRANCH  13  15
HETATM   15  N1  UNL     1      27.254  -2.599  52.538  1.00  0.00    -0.205 NA
HETATM   16  H1  UNL     1      26.601  -2.413  51.751  1.00  0.00     0.148 HD
ENDBRANCH  13  15
ENDBRANCH   1   5
BRANCH   2  17
HETATM   17  C7  UNL     1      20.379   0.141  52.525  1.00  0.00    -0.005 C 
HETATM   18  C8  UNL     1      19.336   0.046  51.918  1.00  0.00    -0.095 C 
BRANCH  18  19
HETATM   19  C9  UNL     1      18.071  -0.065  51.152  1.00  0.00     0.124 C 
BRANCH  19  20
HETATM   20  C10 UNL     1      17.007   0.797  51.786  1.00  0.00     0.284 C 
BRANCH  20  21
HETATM   21  N5  UNL     1      16.629   1.940  51.017  1.00  0.00     0.093 N 
HETATM   22  C11 UNL     1      15.270   2.325  51.223  1.00  0.00     0.298 C 
HETATM   23  C12 UNL     1      15.064   2.902  52.585  1.00  0.00     0.198 C 
HETATM   24  O2  UNL     1      15.863   4.003  52.777  1.00  0.00    -0.388 OA
HETATM   25  C13 UNL     1      16.679   4.273  51.681  1.00  0.00     0.198 C 
HETATM   26  C14 UNL     1      17.502   3.038  51.318  1.00  0.00     0.298 C 
ENDBRANCH  20  21
ENDBRANCH  19  20
ENDBRANCH  18  19
ENDBRANCH   2  17
TORSDOF 6
ENDMDL
MODEL 5
REMARK VINA RESULT:      -6.9      2.365      2.866
REMARK  6 active torsions:
REMARK  status: ('A' for Active; 'I' for Inactive)
REMARK    1  A    between atoms: N1_1  and  P1_2 
REMARK    2  A    between atoms: C5_9  and  N4_10 
REMARK       I    between atoms: N4_10  and  C6_11 
REMARK    3  A    between atoms: C6_11  and  C7_13 
REMARK    4  A    between atoms: C8_14  and  C9_15 
REMARK    5  A    between atoms: C9_15  and  C10_16 
REMARK    6  A    between atoms: C10_16  and  N5_17 
ROOT
HETATM    1  N4  UNL     1      25.133   4.107  50.463  1.00  0.00    -0.316 N 
HETATM    2  C6  UNL     1      26.228   4.311  49.548  1.00  0.00     0.300 C 
HETATM    3  O1  UNL     1      27.151   3.483  49.354  1.00  0.00    -0.258 OA
HETATM    4  H5  UNL     1      24.385   4.824  50.593  1.00  0.00     0.170 HD
ENDROOT
BRANCH   1   5
HETATM    5  C5  UNL     1      24.875   2.984  51.300  1.00  0.00     0.036 A 
HETATM    6  C4  UNL     1      23.646   2.361  51.317  1.00  0.00     0.032 A 
HETATM    7  C3  UNL     1      23.284   1.273  52.081  1.00  0.00     0.035 A 
HETATM    8  C2  UNL     1      24.287   0.771  52.913  1.00  0.00     0.072 A 
HETATM    9  N3  UNL     1      24.026  -0.334  53.733  1.00  0.00    -0.241 NA
HETATM   10  C16 UNL     1      25.557   1.356  52.943  1.00  0.00     0.037 A 
HETATM   11  C1  UNL     1      24.857  -0.897  54.543  1.00  0.00     0.234 A 
HETATM   12  N2  UNL     1      26.233  -0.606  54.864  1.00  0.00    -0.232 NA
HETATM   13  P1  UNL     1      26.796   0.651  54.042  1.00  0.00     0.136 P 
HETATM   14  C15 UNL     1      25.857   2.462  52.139  1.00  0.00     0.047 A 
BRANCH  13  15
HETATM   15  N1  UNL     1      27.948   1.599  54.532  1.00  0.00    -0.205 NA
HETATM   16  H1  UNL     1      28.071   2.450  53.948  1.00  0.00     0.148 HD
ENDBRANCH  13  15
ENDBRANCH   1   5
BRANCH   2  17
HETATM   17  C7  UNL     1      26.213   5.560  48.836  1.00  0.00    -0.005 C 
HETATM   18  C8  UNL     1      26.207   6.621  48.252  1.00  0.00    -0.095 C 
BRANCH  18  19
HETATM   19  C9  UNL     1      26.175   7.923  47.543  1.00  0.00     0.124 C 
BRANCH  19  20
HETATM   20  C10 UNL     1      26.989   8.944  48.299  1.00  0.00     0.284 C 
BRANCH  20  21
HETATM   21  N5  UNL     1      28.403   8.809  48.148  1.00  0.00     0.093 N 
HETATM   22  C11 UNL     1      28.933   9.632  47.109  1.00  0.00     0.298 C 
HETATM   23  C12 UNL     1      28.890  11.078  47.480  1.00  0.00     0.198 C 
HETATM   24  O2  UNL     1      29.607  11.312  48.628  1.00  0.00    -0.388 OA
HETATM   25  C13 UNL     1      30.150  10.148  49.168  1.00  0.00     0.198 C 
HETATM   26  C14 UNL     1      29.054   9.107  49.391  1.00  0.00     0.298 C 
ENDBRANCH  20  21
ENDBRANCH  19  20
ENDBRANCH  18  19
ENDBRANCH   2  17
TORSDOF 6
ENDMDL
MODEL 6
REMARK VINA RESULT:      -6.9      2.860      3.777
REMARK  6 active torsions:
REMARK  status: ('A' for Active; 'I' for Inactive)
REMARK    1  A    between atoms: N1_1  and  P1_2 
REMARK    2  A    between atoms: C5_9  and  N4_10 
REMARK       I    between atoms: N4_10  and  C6_11 
REMARK    3  A    between atoms: C6_11  and  C7_13 
REMARK    4  A    between atoms: C8_14  and  C9_15 
REMARK    5  A    between atoms: C9_15  and  C10_16 
REMARK    6  A    between atoms: C10_16  and  N5_17 
ROOT
HETATM    1  N4  UNL     1      25.123   3.904  50.235  1.00  0.00    -0.316 N 
HETATM    2  C6  UNL     1      26.417   3.538  49.716  1.00  0.00     0.300 C 
HETATM    3  O1  UNL     1      26.918   2.391  49.812  1.00  0.00    -0.258 OA
HETATM    4  H5  UNL     1      24.744   4.872  50.133  1.00  0.00     0.170 HD
ENDROOT
BRANCH   1   5
HETATM    5  C5  UNL     1      24.184   3.090  50.931  1.00  0.00     0.036 A 
HETATM    6  C4  UNL     1      24.419   2.650  52.215  1.00  0.00     0.032 A 
HETATM    7  C3  UNL     1      23.588   1.864  52.982  1.00  0.00     0.035 A 
HETATM    8  C2  UNL     1      22.391   1.491  52.369  1.00  0.00     0.072 A 
HETATM    9  N3  UNL     1      21.471   0.691  53.060  1.00  0.00    -0.241 NA
HETATM   10  C16 UNL     1      22.089   1.904  51.067  1.00  0.00     0.037 A 
HETATM   11  C1  UNL     1      20.334   0.277  52.615  1.00  0.00     0.234 A 
HETATM   12  N2  UNL     1      19.665   0.475  51.352  1.00  0.00    -0.232 NA
HETATM   13  P1  UNL     1      20.525   1.381  50.346  1.00  0.00     0.136 P 
HETATM   14  C15 UNL     1      22.982   2.703  50.344  1.00  0.00     0.047 A 
BRANCH  13  15
HETATM   15  N1  UNL     1      20.444   1.306  48.779  1.00  0.00    -0.205 NA
HETATM   16  H1  UNL     1      19.674   0.703  48.426  1.00  0.00     0.148 HD
ENDBRANCH  13  15
ENDBRANCH   1   5
BRANCH   2  17
HETATM   17  C7  UNL     1      27.139   4.591  49.055  1.00  0.00    -0.005 C 
HETATM   18  C8  UNL     1      27.759   5.477  48.513  1.00  0.00    -0.095 C 
BRANCH  18  19
HETATM   19  C9  UNL     1      28.504   6.581  47.859  1.00  0.00     0.124 C 
BRANCH  19  20
HETATM   20  C10 UNL     1      29.979   6.262  47.829  1.00  0.00     0.284 C 
BRANCH  20  21
HETATM   21  N5  UNL     1      30.740   6.866  48.875  1.00  0.00     0.093 N 
HETATM   22  C11 UNL     1      31.644   5.957  49.502  1.00  0.00     0.298 C 
HETATM   23  C12 UNL     1      32.772   5.591  48.594  1.00  0.00     0.198 C 
HETATM   24  O2  UNL     1      33.475   6.708  48.210  1.00  0.00    -0.388 OA
HETATM   25  C13 UNL     1      32.938   7.884  48.727  1.00  0.00     0.198 C 
HETATM   26  C14 UNL     1      31.458   7.997  48.360  1.00  0.00     0.298 C 
ENDBRANCH  20  21
ENDBRANCH  19  20
ENDBRANCH  18  19
ENDBRANCH   2  17
TORSDOF 6
ENDMDL
MODEL 7
REMARK VINA RESULT:      -6.8      5.934     11.015
REMARK  6 active torsions:
REMARK  status: ('A' for Active; 'I' for Inactive)
REMARK    1  A    between atoms: N1_1  and  P1_2 
REMARK    2  A    between atoms: C5_9  and  N4_10 
REMARK       I    between atoms: N4_10  and  C6_11 
REMARK    3  A    between atoms: C6_11  and  C7_13 
REMARK    4  A    between atoms: C8_14  and  C9_15 
REMARK    5  A    between atoms: C9_15  and  C10_16 
REMARK    6  A    between atoms: C10_16  and  N5_17 
ROOT
HETATM    1  N4  UNL     1      22.503   1.086  51.586  1.00  0.00    -0.316 N 
HETATM    2  C6  UNL     1      21.487   0.710  52.536  1.00  0.00     0.300 C 
HETATM    3  O1  UNL     1      21.678   0.607  53.772  1.00  0.00    -0.258 OA
HETATM    4  H5  UNL     1      22.299   1.160  50.564  1.00  0.00     0.170 HD
ENDROOT
BRANCH   1   5
HETATM    5  C5  UNL     1      23.870   1.404  51.829  1.00  0.00     0.036 A 
HETATM    6  C4  UNL     1      24.596   2.189  50.959  1.00  0.00     0.032 A 
HETATM    7  C3  UNL     1      25.916   2.561  51.090  1.00  0.00     0.035 A 
HETATM    8  C2  UNL     1      26.557   2.078  52.232  1.00  0.00     0.072 A 
HETATM    9  N3  UNL     1      27.902   2.396  52.465  1.00  0.00    -0.241 NA
HETATM   10  C16 UNL     1      25.878   1.277  53.156  1.00  0.00     0.037 A 
HETATM   11  C1  UNL     1      28.612   2.020  53.474  1.00  0.00     0.234 A 
HETATM   12  N2  UNL     1      28.296   1.205  54.621  1.00  0.00    -0.232 NA
HETATM   13  P1  UNL     1      26.776   0.694  54.604  1.00  0.00     0.136 P 
HETATM   14  C15 UNL     1      24.535   0.937  52.959  1.00  0.00     0.047 A 
BRANCH  13  15
HETATM   15  N1  UNL     1      26.266  -0.627  55.283  1.00  0.00    -0.205 NA
HETATM   16  H1  UNL     1      26.954  -1.060  55.932  1.00  0.00     0.148 HD
ENDBRANCH  13  15
ENDBRANCH   1   5
BRANCH   2  17
HETATM   17  C7  UNL     1      20.187   0.448  51.980  1.00  0.00    -0.005 C 
HETATM   18  C8  UNL     1      19.099   0.210  51.506  1.00  0.00    -0.095 C 
BRANCH  18  19
HETATM   19  C9  UNL     1      17.773  -0.069  50.903  1.00  0.00     0.124 C 
BRANCH  19  20
HETATM   20  C10 UNL     1      16.679   0.253  51.892  1.00  0.00     0.284 C 
BRANCH  20  21
HETATM   21  N5  UNL     1      15.467   0.728  51.305  1.00  0.00     0.093 N 
HETATM   22  C11 UNL     1      14.312   0.029  51.770  1.00  0.00     0.298 C 
HETATM   23  C12 UNL     1      14.008   0.359  53.194  1.00  0.00     0.198 C 
HETATM   24  O2  UNL     1      13.793   1.706  53.351  1.00  0.00    -0.388 OA
HETATM   25  C13 UNL     1      13.951   2.417  52.164  1.00  0.00     0.198 C 
HETATM   26  C14 UNL     1      15.325   2.133  51.556  1.00  0.00     0.298 C 
ENDBRANCH  20  21
ENDBRANCH  19  20
ENDBRANCH  18  19
ENDBRANCH   2  17
TORSDOF 6
ENDMDL
MODEL 8
REMARK VINA RESULT:      -6.8      2.331      3.223
REMARK  6 active torsions:
REMARK  status: ('A' for Active; 'I' for Inactive)
REMARK    1  A    between atoms: N1_1  and  P1_2 
REMARK    2  A    between atoms: C5_9  and  N4_10 
REMARK       I    between atoms: N4_10  and  C6_11 
REMARK    3  A    between atoms: C6_11  and  C7_13 
REMARK    4  A    between atoms: C8_14  and  C9_15 
REMARK    5  A    between atoms: C9_15  and  C10_16 
REMARK    6  A    between atoms: C10_16  and  N5_17 
ROOT
HETATM    1  N4  UNL     1      25.613   3.831  50.755  1.00  0.00    -0.316 N 
HETATM    2  C6  UNL     1      26.528   3.774  49.643  1.00  0.00     0.300 C 
HETATM    3  O1  UNL     1      27.057   2.720  49.216  1.00  0.00    -0.258 OA
HETATM    4  H5  UNL     1      25.196   4.733  51.077  1.00  0.00     0.170 HD
ENDROOT
BRANCH   1   5
HETATM    5  C5  UNL     1      25.138   2.762  51.567  1.00  0.00     0.036 A 
HETATM    6  C4  UNL     1      25.922   2.194  52.548  1.00  0.00     0.032 A 
HETATM    7  C3  UNL     1      25.569   1.162  53.389  1.00  0.00     0.035 A 
HETATM    8  C2  UNL     1      24.279   0.661  53.207  1.00  0.00     0.072 A 
HETATM    9  N3  UNL     1      23.817  -0.390  54.010  1.00  0.00    -0.241 NA
HETATM   10  C16 UNL     1      23.431   1.194  52.230  1.00  0.00     0.037 A 
HETATM   11  C1  UNL     1      22.654  -0.944  53.949  1.00  0.00     0.234 A 
HETATM   12  N2  UNL     1      21.515  -0.695  53.100  1.00  0.00    -0.232 NA
HETATM   13  P1  UNL     1      21.782   0.493  52.057  1.00  0.00     0.136 P 
HETATM   14  C15 UNL     1      23.855   2.243  51.408  1.00  0.00     0.047 A 
BRANCH  13  15
HETATM   15  N1  UNL     1      21.084   0.631  50.657  1.00  0.00    -0.205 NA
HETATM   16  H1  UNL     1      21.495   1.369  50.052  1.00  0.00     0.148 HD
ENDBRANCH  13  15
ENDBRANCH   1   5
BRANCH   2  17
HETATM   17  C7  UNL     1      26.819   5.036  49.017  1.00  0.00    -0.005 C 
HETATM   18  C8  UNL     1      27.076   6.102  48.505  1.00  0.00    -0.095 C 
BRANCH  18  19
HETATM   19  C9  UNL     1      27.369   7.419  47.887  1.00  0.00     0.124 C 
BRANCH  19  20
HETATM   20  C10 UNL     1      28.576   8.041  48.546  1.00  0.00     0.284 C 
BRANCH  20  21
HETATM   21  N5  UNL     1      29.830   7.630  48.000  1.00  0.00     0.093 N 
HETATM   22  C11 UNL     1      30.227   8.408  46.871  1.00  0.00     0.298 C 
HETATM   23  C12 UNL     1      30.606   9.797  47.268  1.00  0.00     0.198 C 
HETATM   24  O2  UNL     1      31.640   9.784  48.172  1.00  0.00    -0.388 OA
HETATM   25  C13 UNL     1      32.039   8.493  48.513  1.00  0.00     0.198 C 
HETATM   26  C14 UNL     1      30.842   7.686  49.015  1.00  0.00     0.298 C 
ENDBRANCH  20  21
ENDBRANCH  19  20
ENDBRANCH  18  19
ENDBRANCH   2  17
TORSDOF 6
ENDMDL
MODEL 9
REMARK VINA RESULT:      -6.7      7.724     12.639
REMARK  6 active torsions:
REMARK  status: ('A' for Active; 'I' for Inactive)
REMARK    1  A    between atoms: N1_1  and  P1_2 
REMARK    2  A    between atoms: C5_9  and  N4_10 
REMARK       I    between atoms: N4_10  and  C6_11 
REMARK    3  A    between atoms: C6_11  and  C7_13 
REMARK    4  A    between atoms: C8_14  and  C9_15 
REMARK    5  A    between atoms: C9_15  and  C10_16 
REMARK    6  A    between atoms: C10_16  and  N5_17 
ROOT
HETATM    1  N4  UNL     1      19.012  -0.407  53.007  1.00  0.00    -0.316 N 
HETATM    2  C6  UNL     1      17.990  -1.400  53.231  1.00  0.00     0.300 C 
HETATM    3  O1  UNL     1      18.192  -2.513  53.774  1.00  0.00    -0.258 OA
HETATM    4  H5  UNL     1      18.798   0.507  52.551  1.00  0.00     0.170 HD
ENDROOT
BRANCH   1   5
HETATM    5  C5  UNL     1      20.396  -0.471  53.336  1.00  0.00     0.036 A 
HETATM    6  C4  UNL     1      20.875  -1.347  54.287  1.00  0.00     0.032 A 
HETATM    7  C3  UNL     1      22.185  -1.496  54.684  1.00  0.00     0.035 A 
HETATM    8  C2  UNL     1      23.100  -0.660  54.040  1.00  0.00     0.072 A 
HETATM    9  N3  UNL     1      24.460  -0.729  54.368  1.00  0.00    -0.241 NA
HETATM   10  C16 UNL     1      22.680   0.251  53.065  1.00  0.00     0.037 A 
HETATM   11  C1  UNL     1      25.407  -0.020  53.853  1.00  0.00     0.234 A 
HETATM   12  N2  UNL     1      25.396   1.009  52.842  1.00  0.00    -0.232 NA
HETATM   13  P1  UNL     1      23.921   1.294  52.281  1.00  0.00     0.136 P 
HETATM   14  C15 UNL     1      21.330   0.350  52.710  1.00  0.00     0.047 A 
BRANCH  13  15
HETATM   15  N1  UNL     1      23.437   2.664  51.684  1.00  0.00    -0.205 NA
HETATM   16  H1  UNL     1      22.992   2.583  50.749  1.00  0.00     0.148 HD
ENDBRANCH  13  15
ENDBRANCH   1   5
BRANCH   2  17
HETATM   17  C7  UNL     1      16.672  -1.041  52.783  1.00  0.00    -0.005 C 
HETATM   18  C8  UNL     1      15.569  -0.734  52.390  1.00  0.00    -0.095 C 
BRANCH  18  19
HETATM   19  C9  UNL     1      14.220  -0.335  51.918  1.00  0.00     0.124 C 
BRANCH  19  20
HETATM   20  C10 UNL     1      14.132   1.168  51.817  1.00  0.00     0.284 C 
BRANCH  20  21
HETATM   21  N5  UNL     1      14.125   1.850  53.072  1.00  0.00     0.093 N 
HETATM   22  C11 UNL     1      14.485   3.227  52.959  1.00  0.00     0.298 C 
HETATM   23  C12 UNL     1      13.419   4.018  52.275  1.00  0.00     0.198 C 
HETATM   24  O2  UNL     1      12.231   3.934  52.959  1.00  0.00    -0.388 OA
HETATM   25  C13 UNL     1      12.312   3.110  54.079  1.00  0.00     0.198 C 
HETATM   26  C14 UNL     1      12.833   1.729  53.683  1.00  0.00     0.298 C 
ENDBRANCH  20  21
ENDBRANCH  19  20
ENDBRANCH  18  19
ENDBRANCH   2  17
TORSDOF 6
ENDMDL
