MODEL 1
REMARK VINA RESULT:      -8.5      0.000      0.000
REMARK  8 active torsions:
REMARK  status: ('A' for Active; 'I' for Inactive)
REMARK    1  A    between atoms: C2_2  and  O1_3 
REMARK    2  A    between atoms: O1_3  and  C3_4 
REMARK    3  A    between atoms: C8_9  and  N1_10 
REMARK       I    between atoms: N1_10  and  C9_11 
REMARK    4  A    between atoms: C9_11  and  C10_13 
REMARK    5  A    between atoms: C11_14  and  C12_15 
REMARK    6  A    between atoms: C12_15  and  N2_16 
REMARK    7  A    between atoms: C15_19  and  N3_20 
REMARK    8  A    between atoms: N3_20  and  C16_21 
ROOT
HETATM    1  C3  UNL     1      22.383   3.950  51.301  1.00  0.00     0.097 A 
HETATM    2  C4  UNL     1      21.250   3.255  51.661  1.00  0.00     0.071 A 
HETATM    3  C5  UNL     1      21.341   2.080  52.369  1.00  0.00     0.066 A 
HETATM    4  C6  UNL     1      22.552   1.543  52.749  1.00  0.00     0.023 A 
HETATM    5  C7  UNL     1      23.708   2.211  52.407  1.00  0.00     0.048 A 
HETATM    6  C8  UNL     1      23.618   3.410  51.686  1.00  0.00     0.069 A 
HETATM    7  C15 UNL     1      22.581   0.408  53.430  1.00  0.00     0.070 A 
HETATM    8  C22 UNL     1      21.302  -0.219  53.742  1.00  0.00     0.073 A 
HETATM    9  N4  UNL     1      21.260  -1.322  54.402  1.00  0.00    -0.301 NA
HETATM   10  C23 UNL     1      19.985   0.327  53.349  1.00  0.00     0.210 A 
HETATM   11  N5  UNL     1      20.177   1.565  52.619  1.00  0.00    -0.283 NA
HETATM   12  H24 UNL     1      20.419  -1.847  54.675  1.00  0.00     0.186 HD
ENDROOT
BRANCH   6  13
HETATM   13  N1  UNL     1      24.931   3.949  51.428  1.00  0.00    -0.321 N 
HETATM   14  C9  UNL     1      25.409   3.485  50.183  1.00  0.00     0.245 C 
HETATM   15  O2  UNL     1      24.664   2.719  49.528  1.00  0.00    -0.268 OA
HETATM   16  H8  UNL     1      25.571   4.596  51.967  1.00  0.00     0.169 HD
BRANCH  14  17
HETATM   17  C10 UNL     1      26.721   3.869  49.659  1.00  0.00     0.072 C 
HETATM   18  C11 UNL     1      26.869   4.983  48.977  1.00  0.00     0.008 C 
BRANCH  18  19
HETATM   19  C12 UNL     1      28.101   5.511  48.388  1.00  0.00     0.299 C 
BRANCH  19  20
HETATM   20  N2  UNL     1      28.034   6.926  48.098  1.00  0.00     0.083 N 
HETATM   21  C13 UNL     1      27.028   7.520  48.958  1.00  0.00     0.309 C 
HETATM   22  C14 UNL     1      29.286   7.611  48.360  1.00  0.00     0.309 C 
ENDBRANCH  19  20
ENDBRANCH  18  19
ENDBRANCH  14  17
ENDBRANCH   6  13
BRANCH   1  23
HETATM   23  O1  UNL     1      22.624   5.122  50.614  1.00  0.00    -0.349 OA
BRANCH  23  24
HETATM   24  C2  UNL     1      22.200   5.261  49.280  1.00  0.00     0.171 C 
HETATM   25  C1  UNL     1      23.274   5.985  48.510  1.00  0.00     0.034 C 
ENDBRANCH  23  24
ENDBRANCH   1  23
BRANCH   7  26
HETATM   26  N3  UNL     1      23.835  -0.167  53.836  1.00  0.00    -0.363 N 
HETATM   27  H19 UNL     1      23.716  -0.098  54.890  1.00  0.00     0.165 HD
BRANCH  26  28
HETATM   28  C16 UNL     1      24.965  -0.702  53.142  1.00  0.00     0.100 C 
HETATM   29  C17 UNL     1      26.171  -0.470  53.594  1.00  0.00    -0.019 A 
HETATM   30  C18 UNL     1      26.589   0.292  54.764  1.00  0.00     0.014 A 
HETATM   31  C21 UNL     1      27.436  -0.929  53.026  1.00  0.00     0.036 A 
HETATM   32  C19 UNL     1      27.911   0.270  54.850  1.00  0.00     0.024 A 
HETATM   33  C20 UNL     1      28.470  -0.510  53.740  1.00  0.00     0.035 A 
HETATM   34 CL1  UNL     1      30.159  -0.860  53.371  1.00  0.00    -0.084 Cl
ENDBRANCH  26  28
ENDBRANCH   7  26
TORSDOF 8
ENDMDL
MODEL 2
REMARK VINA RESULT:      -8.3      2.983      5.641
REMARK  8 active torsions:
REMARK  status: ('A' for Active; 'I' for Inactive)
REMARK    1  A    between atoms: C2_2  and  O1_3 
REMARK    2  A    between atoms: O1_3  and  C3_4 
REMARK    3  A    between atoms: C8_9  and  N1_10 
REMARK       I    between atoms: N1_10  and  C9_11 
REMARK    4  A    between atoms: C9_11  and  C10_13 
REMARK    5  A    between atoms: C11_14  and  C12_15 
REMARK    6  A    between atoms: C12_15  and  N2_16 
REMARK    7  A    between atoms: C15_19  and  N3_20 
REMARK    8  A    between atoms: N3_20  and  C16_21 
ROOT
HETATM    1  C3  UNL     1      27.070   0.446  53.429  1.00  0.00     0.097 A 
HETATM    2  C4  UNL     1      26.509  -0.241  54.483  1.00  0.00     0.071 A 
HETATM    3  C5  UNL     1      25.163  -0.522  54.502  1.00  0.00     0.066 A 
HETATM    4  C6  UNL     1      24.317  -0.137  53.486  1.00  0.00     0.023 A 
HETATM    5  C7  UNL     1      24.843   0.553  52.414  1.00  0.00     0.048 A 
HETATM    6  C8  UNL     1      26.214   0.840  52.391  1.00  0.00     0.069 A 
HETATM    7  C15 UNL     1      23.029  -0.433  53.556  1.00  0.00     0.070 A 
HETATM    8  C22 UNL     1      22.574  -1.166  54.732  1.00  0.00     0.073 A 
HETATM    9  N4  UNL     1      21.336  -1.487  54.862  1.00  0.00    -0.301 NA
HETATM   10  C23 UNL     1      23.452  -1.595  55.843  1.00  0.00     0.210 A 
HETATM   11  N5  UNL     1      24.813  -1.173  55.568  1.00  0.00    -0.283 NA
HETATM   12  H24 UNL     1      20.909  -2.000  55.645  1.00  0.00     0.186 HD
ENDROOT
BRANCH   6  13
HETATM   13  N1  UNL     1      26.564   1.564  51.193  1.00  0.00    -0.321 N 
HETATM   14  C9  UNL     1      25.938   2.829  51.191  1.00  0.00     0.245 C 
HETATM   15  O2  UNL     1      25.215   3.117  52.174  1.00  0.00    -0.268 OA
HETATM   16  H8  UNL     1      27.171   1.337  50.357  1.00  0.00     0.169 HD
BRANCH  14  17
HETATM   17  C10 UNL     1      26.111   3.784  50.095  1.00  0.00     0.072 C 
HETATM   18  C11 UNL     1      25.266   4.779  49.935  1.00  0.00     0.008 C 
BRANCH  18  19
HETATM   19  C12 UNL     1      25.294   5.814  48.900  1.00  0.00     0.299 C 
BRANCH  19  20
HETATM   20  N2  UNL     1      25.200   7.156  49.432  1.00  0.00     0.083 N 
HETATM   21  C13 UNL     1      24.536   7.090  50.719  1.00  0.00     0.309 C 
HETATM   22  C14 UNL     1      26.499   7.766  49.645  1.00  0.00     0.309 C 
ENDBRANCH  19  20
ENDBRANCH  18  19
ENDBRANCH  14  17
ENDBRANCH   6  13
BRANCH   1  23
HETATM   23  O1  UNL     1      28.345   0.870  53.117  1.00  0.00    -0.349 OA
BRANCH  23  24
HETATM   24  C2  UNL     1      29.425   0.548  53.959  1.00  0.00     0.171 C 
HETATM   25  C1  UNL     1      29.980  -0.786  53.535  1.00  0.00     0.034 C 
ENDBRANCH  23  24
ENDBRANCH   1  23
BRANCH   7  26
HETATM   26  N3  UNL     1      22.131  -0.040  52.505  1.00  0.00    -0.363 N 
HETATM   27  H19 UNL     1      22.207  -0.903  51.889  1.00  0.00     0.165 HD
BRANCH  26  28
HETATM   28  C16 UNL     1      21.327   1.116  52.251  1.00  0.00     0.100 C 
HETATM   29  C17 UNL     1      21.530   1.820  51.168  1.00  0.00    -0.019 A 
HETATM   30  C18 UNL     1      22.501   1.614  50.101  1.00  0.00     0.014 A 
HETATM   31  C21 UNL     1      20.816   3.021  50.742  1.00  0.00     0.036 A 
HETATM   32  C19 UNL     1      22.360   2.568  49.191  1.00  0.00     0.024 A 
HETATM   33  C20 UNL     1      21.282   3.479  49.589  1.00  0.00     0.035 A 
HETATM   34 CL1  UNL     1      20.675   4.910  48.755  1.00  0.00    -0.084 Cl
ENDBRANCH  26  28
ENDBRANCH   7  26
TORSDOF 8
ENDMDL
MODEL 3
REMARK VINA RESULT:      -8.1      3.254      6.068
REMARK  8 active torsions:
REMARK  status: ('A' for Active; 'I' for Inactive)
REMARK    1  A    between atoms: C2_2  and  O1_3 
REMARK    2  A    between atoms: O1_3  and  C3_4 
REMARK    3  A    between atoms: C8_9  and  N1_10 
REMARK       I    between atoms: N1_10  and  C9_11 
REMARK    4  A    between atoms: C9_11  and  C10_13 
REMARK    5  A    between atoms: C11_14  and  C12_15 
REMARK    6  A    between atoms: C12_15  and  N2_16 
REMARK    7  A    between atoms: C15_19  and  N3_20 
REMARK    8  A    between atoms: N3_20  and  C16_21 
ROOT
HETATM    1  C3  UNL     1      26.916   0.538  53.363  1.00  0.00     0.097 A 
HETATM    2  C4  UNL     1      26.385  -0.178  54.414  1.00  0.00     0.071 A 
HETATM    3  C5  UNL     1      25.046  -0.488  54.447  1.00  0.00     0.066 A 
HETATM    4  C6  UNL     1      24.177  -0.105  53.449  1.00  0.00     0.023 A 
HETATM    5  C7  UNL     1      24.673   0.613  52.381  1.00  0.00     0.048 A 
HETATM    6  C8  UNL     1      26.037   0.930  52.344  1.00  0.00     0.069 A 
HETATM    7  C15 UNL     1      22.898  -0.431  53.532  1.00  0.00     0.070 A 
HETATM    8  C22 UNL     1      22.475  -1.193  54.702  1.00  0.00     0.073 A 
HETATM    9  N4  UNL     1      21.246  -1.543  54.844  1.00  0.00    -0.301 NA
HETATM   10  C23 UNL     1      23.378  -1.619  55.793  1.00  0.00     0.210 A 
HETATM   11  N5  UNL     1      24.725  -1.164  55.507  1.00  0.00    -0.283 NA
HETATM   12  H24 UNL     1      20.842  -2.077  55.623  1.00  0.00     0.186 HD
ENDROOT
BRANCH   6  13
HETATM   13  N1  UNL     1      26.354   1.681  51.153  1.00  0.00    -0.321 N 
HETATM   14  C9  UNL     1      25.705   2.934  51.182  1.00  0.00     0.245 C 
HETATM   15  O2  UNL     1      24.993   3.191  52.181  1.00  0.00    -0.268 OA
HETATM   16  H8  UNL     1      26.952   1.480  50.303  1.00  0.00     0.169 HD
BRANCH  14  17
HETATM   17  C10 UNL     1      25.842   3.910  50.100  1.00  0.00     0.072 C 
HETATM   18  C11 UNL     1      27.023   4.180  49.589  1.00  0.00     0.008 C 
BRANCH  18  19
HETATM   19  C12 UNL     1      27.333   5.121  48.511  1.00  0.00     0.299 C 
BRANCH  19  20
HETATM   20  N2  UNL     1      27.037   6.495  48.851  1.00  0.00     0.083 N 
HETATM   21  C13 UNL     1      28.161   7.316  48.446  1.00  0.00     0.309 C 
HETATM   22  C14 UNL     1      25.862   7.001  48.167  1.00  0.00     0.309 C 
ENDBRANCH  19  20
ENDBRANCH  18  19
ENDBRANCH  14  17
ENDBRANCH   6  13
BRANCH   1  23
HETATM   23  O1  UNL     1      28.177   0.996  53.041  1.00  0.00    -0.349 OA
BRANCH  23  24
HETATM   24  C2  UNL     1      29.265   0.739  53.895  1.00  0.00     0.171 C 
HETATM   25  C1  UNL     1      29.877  -0.581  53.505  1.00  0.00     0.034 C 
ENDBRANCH  23  24
ENDBRANCH   1  23
BRANCH   7  26
HETATM   26  N3  UNL     1      21.976  -0.041  52.500  1.00  0.00    -0.363 N 
HETATM   27  H19 UNL     1      22.021  -0.915  51.896  1.00  0.00     0.165 HD
BRANCH  26  28
HETATM   28  C16 UNL     1      21.184   1.123  52.249  1.00  0.00     0.100 C 
HETATM   29  C17 UNL     1      19.908   0.994  51.992  1.00  0.00    -0.019 A 
HETATM   30  C18 UNL     1      19.098  -0.215  51.912  1.00  0.00     0.014 A 
HETATM   31  C21 UNL     1      18.946   2.058  51.712  1.00  0.00     0.036 A 
HETATM   32  C19 UNL     1      17.847   0.115  51.627  1.00  0.00     0.024 A 
HETATM   33  C20 UNL     1      17.733   1.571  51.495  1.00  0.00     0.035 A 
HETATM   34 CL1  UNL     1      16.308   2.543  51.126  1.00  0.00    -0.084 Cl
ENDBRANCH  26  28
ENDBRANCH   7  26
TORSDOF 8
ENDMDL
MODEL 4
REMARK VINA RESULT:      -7.8      1.525      2.091
REMARK  8 active torsions:
REMARK  status: ('A' for Active; 'I' for Inactive)
REMARK    1  A    between atoms: C2_2  and  O1_3 
REMARK    2  A    between atoms: O1_3  and  C3_4 
REMARK    3  A    between atoms: C8_9  and  N1_10 
REMARK       I    between atoms: N1_10  and  C9_11 
REMARK    4  A    between atoms: C9_11  and  C10_13 
REMARK    5  A    between atoms: C11_14  and  C12_15 
REMARK    6  A    between atoms: C12_15  and  N2_16 
REMARK    7  A    between atoms: C15_19  and  N3_20 
REMARK    8  A    between atoms: N3_20  and  C16_21 
ROOT
HETATM    1  C3  UNL     1      20.656   2.612  51.009  1.00  0.00     0.097 A 
HETATM    2  C4  UNL     1      19.913   1.659  51.670  1.00  0.00     0.071 A 
HETATM    3  C5  UNL     1      20.516   0.761  52.519  1.00  0.00     0.066 A 
HETATM    4  C6  UNL     1      21.875   0.765  52.749  1.00  0.00     0.023 A 
HETATM    5  C7  UNL     1      22.651   1.705  52.104  1.00  0.00     0.048 A 
HETATM    6  C8  UNL     1      22.039   2.622  51.239  1.00  0.00     0.069 A 
HETATM    7  C15 UNL     1      22.403  -0.123  53.575  1.00  0.00     0.070 A 
HETATM    8  C22 UNL     1      21.495  -1.074  54.207  1.00  0.00     0.073 A 
HETATM    9  N4  UNL     1      21.943  -1.962  55.022  1.00  0.00    -0.301 NA
HETATM   10  C23 UNL     1      20.033  -1.109  53.983  1.00  0.00     0.210 A 
HETATM   11  N5  UNL     1      19.665  -0.060  53.051  1.00  0.00    -0.283 NA
HETATM   12  H24 UNL     1      21.395  -2.676  55.520  1.00  0.00     0.186 HD
ENDROOT
BRANCH   6  13
HETATM   13  N1  UNL     1      23.017   3.515  50.668  1.00  0.00    -0.321 N 
HETATM   14  C9  UNL     1      23.186   4.644  51.499  1.00  0.00     0.245 C 
HETATM   15  O2  UNL     1      22.501   4.696  52.547  1.00  0.00    -0.268 OA
HETATM   16  H8  UNL     1      23.603   3.487  49.788  1.00  0.00     0.169 HD
BRANCH  14  17
HETATM   17  C10 UNL     1      24.118   5.724  51.169  1.00  0.00     0.072 C 
HETATM   18  C11 UNL     1      24.959   5.598  50.167  1.00  0.00     0.008 C 
BRANCH  18  19
HETATM   19  C12 UNL     1      25.949   6.573  49.706  1.00  0.00     0.299 C 
BRANCH  19  20
HETATM   20  N2  UNL     1      26.551   6.221  48.439  1.00  0.00     0.083 N 
HETATM   21  C13 UNL     1      27.112   7.422  47.852  1.00  0.00     0.309 C 
HETATM   22  C14 UNL     1      27.631   5.262  48.579  1.00  0.00     0.309 C 
ENDBRANCH  19  20
ENDBRANCH  18  19
ENDBRANCH  14  17
ENDBRANCH   6  13
BRANCH   1  23
HETATM   23  O1  UNL     1      20.363   3.625  50.120  1.00  0.00    -0.349 OA
BRANCH  23  24
HETATM   24  C2  UNL     1      19.087   3.707  49.534  1.00  0.00     0.171 C 
HETATM   25  C1  UNL     1      18.725   5.161  49.377  1.00  0.00     0.034 C 
ENDBRANCH  23  24
ENDBRANCH   1  23
BRANCH   7  26
HETATM   26  N3  UNL     1      23.818  -0.134  53.829  1.00  0.00    -0.363 N 
HETATM   27  H19 UNL     1      23.833   0.446  54.719  1.00  0.00     0.165 HD
BRANCH  26  28
HETATM   28  C16 UNL     1      24.951  -0.707  53.170  1.00  0.00     0.100 C 
HETATM   29  C17 UNL     1      26.156  -0.438  53.604  1.00  0.00    -0.019 A 
HETATM   30  C18 UNL     1      26.570   0.402  54.720  1.00  0.00     0.014 A 
HETATM   31  C21 UNL     1      27.423  -0.925  53.065  1.00  0.00     0.036 A 
HETATM   32  C19 UNL     1      27.893   0.394  54.806  1.00  0.00     0.024 A 
HETATM   33  C20 UNL     1      28.455  -0.454  53.749  1.00  0.00     0.035 A 
HETATM   34 CL1  UNL     1      30.146  -0.817  53.401  1.00  0.00    -0.084 Cl
ENDBRANCH  26  28
ENDBRANCH   7  26
TORSDOF 8
ENDMDL
MODEL 5
REMARK VINA RESULT:      -7.7      3.549      6.381
REMARK  8 active torsions:
REMARK  status: ('A' for Active; 'I' for Inactive)
REMARK    1  A    between atoms: C2_2  and  O1_3 
REMARK    2  A    between atoms: O1_3  and  C3_4 
REMARK    3  A    between atoms: C8_9  and  N1_10 
REMARK       I    between atoms: N1_10  and  C9_11 
REMARK    4  A    between atoms: C9_11  and  C10_13 
REMARK    5  A    between atoms: C11_14  and  C12_15 
REMARK    6  A    between atoms: C12_15  and  N2_16 
REMARK    7  A    between atoms: C15_19  and  N3_20 
REMARK    8  A    between atoms: N3_20  and  C16_21 
ROOT
HETATM    1  C3  UNL     1      20.139  -0.579  53.626  1.00  0.00     0.097 A 
HETATM    2  C4  UNL     1      20.994  -1.069  54.588  1.00  0.00     0.071 A 
HETATM    3  C5  UNL     1      22.352  -0.881  54.483  1.00  0.00     0.066 A 
HETATM    4  C6  UNL     1      22.921  -0.205  53.426  1.00  0.00     0.023 A 
HETATM    5  C7  UNL     1      22.096   0.301  52.444  1.00  0.00     0.048 A 
HETATM    6  C8  UNL     1      20.711   0.111  52.549  1.00  0.00     0.069 A 
HETATM    7  C15 UNL     1      24.234  -0.053  53.375  1.00  0.00     0.070 A 
HETATM    8  C22 UNL     1      25.018  -0.625  54.464  1.00  0.00     0.073 A 
HETATM    9  N4  UNL     1      26.299  -0.512  54.476  1.00  0.00    -0.301 NA
HETATM   10  C23 UNL     1      24.443  -1.358  55.612  1.00  0.00     0.210 A 
HETATM   11  N5  UNL     1      23.000  -1.409  55.475  1.00  0.00    -0.283 NA
HETATM   12  H24 UNL     1      26.944  -0.874  55.190  1.00  0.00     0.186 HD
ENDROOT
BRANCH   6  13
HETATM   13  N1  UNL     1      20.028   0.711  51.428  1.00  0.00    -0.321 N 
HETATM   14  C9  UNL     1      19.725   2.061  51.712  1.00  0.00     0.245 C 
HETATM   15  O2  UNL     1      20.076   2.508  52.828  1.00  0.00    -0.268 OA
HETATM   16  H8  UNL     1      19.726   0.350  50.481  1.00  0.00     0.169 HD
BRANCH  14  17
HETATM   17  C10 UNL     1      19.029   2.922  50.754  1.00  0.00     0.072 C 
HETATM   18  C11 UNL     1      19.706   3.690  49.929  1.00  0.00     0.008 C 
BRANCH  18  19
HETATM   19  C12 UNL     1      19.170   4.603  48.919  1.00  0.00     0.299 C 
BRANCH  19  20
HETATM   20  N2  UNL     1      19.964   5.800  48.752  1.00  0.00     0.083 N 
HETATM   21  C13 UNL     1      20.755   5.992  49.952  1.00  0.00     0.309 C 
HETATM   22  C14 UNL     1      20.886   5.710  47.635  1.00  0.00     0.309 C 
ENDBRANCH  19  20
ENDBRANCH  18  19
ENDBRANCH  14  17
ENDBRANCH   6  13
BRANCH   1  23
HETATM   23  O1  UNL     1      18.771  -0.597  53.445  1.00  0.00    -0.349 OA
BRANCH  23  24
HETATM   24  C2  UNL     1      18.072  -1.817  53.445  1.00  0.00     0.171 C 
HETATM   25  C1  UNL     1      16.782  -1.630  52.690  1.00  0.00     0.034 C 
ENDBRANCH  23  24
ENDBRANCH   1  23
BRANCH   7  26
HETATM   26  N3  UNL     1      24.847   0.651  52.281  1.00  0.00    -0.363 N 
HETATM   27  H19 UNL     1      24.942  -0.156  51.595  1.00  0.00     0.165 HD
BRANCH  26  28
HETATM   28  C16 UNL     1      25.250   2.005  52.058  1.00  0.00     0.100 C 
HETATM   29  C17 UNL     1      24.697   2.695  51.094  1.00  0.00    -0.019 A 
HETATM   30  C18 UNL     1      23.670   2.294  50.142  1.00  0.00     0.014 A 
HETATM   31  C21 UNL     1      24.977   4.079  50.718  1.00  0.00     0.036 A 
HETATM   32  C19 UNL     1      23.401   3.309  49.334  1.00  0.00     0.024 A 
HETATM   33  C20 UNL     1      24.233   4.463  49.692  1.00  0.00     0.035 A 
HETATM   34 CL1  UNL     1      24.286   6.064  48.952  1.00  0.00    -0.084 Cl
ENDBRANCH  26  28
ENDBRANCH   7  26
TORSDOF 8
ENDMDL
MODEL 6
REMARK VINA RESULT:      -7.7      3.092      6.409
REMARK  8 active torsions:
REMARK  status: ('A' for Active; 'I' for Inactive)
REMARK    1  A    between atoms: C2_2  and  O1_3 
REMARK    2  A    between atoms: O1_3  and  C3_4 
REMARK    3  A    between atoms: C8_9  and  N1_10 
REMARK       I    between atoms: N1_10  and  C9_11 
REMARK    4  A    between atoms: C9_11  and  C10_13 
REMARK    5  A    between atoms: C11_14  and  C12_15 
REMARK    6  A    between atoms: C12_15  and  N2_16 
REMARK    7  A    between atoms: C15_19  and  N3_20 
REMARK    8  A    between atoms: N3_20  and  C16_21 
ROOT
HETATM    1  C3  UNL     1      25.213   3.087  50.328  1.00  0.00     0.097 A 
HETATM    2  C4  UNL     1      26.462   2.792  50.826  1.00  0.00     0.071 A 
HETATM    3  C5  UNL     1      26.605   2.006  51.946  1.00  0.00     0.066 A 
HETATM    4  C6  UNL     1      25.523   1.482  52.619  1.00  0.00     0.023 A 
HETATM    5  C7  UNL     1      24.257   1.756  52.149  1.00  0.00     0.048 A 
HETATM    6  C8  UNL     1      24.108   2.556  51.008  1.00  0.00     0.069 A 
HETATM    7  C15 UNL     1      25.718   0.732  53.691  1.00  0.00     0.070 A 
HETATM    8  C22 UNL     1      27.098   0.501  54.105  1.00  0.00     0.073 A 
HETATM    9  N4  UNL     1      27.357  -0.220  55.138  1.00  0.00    -0.301 NA
HETATM   10  C23 UNL     1      28.282   1.048  53.409  1.00  0.00     0.210 A 
HETATM   11  N5  UNL     1      27.849   1.834  52.270  1.00  0.00    -0.283 NA
HETATM   12  H24 UNL     1      28.286  -0.446  55.517  1.00  0.00     0.186 HD
ENDROOT
BRANCH   6  13
HETATM   13  N1  UNL     1      22.713   2.724  50.680  1.00  0.00    -0.321 N 
HETATM   14  C9  UNL     1      22.149   3.748  51.473  1.00  0.00     0.245 C 
HETATM   15  O2  UNL     1      22.903   4.323  52.292  1.00  0.00    -0.268 OA
HETATM   16  H8  UNL     1      22.064   2.249  49.994  1.00  0.00     0.169 HD
BRANCH  14  17
HETATM   17  C10 UNL     1      20.743   4.138  51.359  1.00  0.00     0.072 C 
HETATM   18  C11 UNL     1      19.786   3.261  51.571  1.00  0.00     0.008 C 
BRANCH  18  19
HETATM   19  C12 UNL     1      18.341   3.484  51.500  1.00  0.00     0.299 C 
BRANCH  19  20
HETATM   20  N2  UNL     1      17.704   2.755  50.426  1.00  0.00     0.083 N 
HETATM   21  C13 UNL     1      17.711   3.590  49.241  1.00  0.00     0.309 C 
HETATM   22  C14 UNL     1      18.400   1.525  50.093  1.00  0.00     0.309 C 
ENDBRANCH  19  20
ENDBRANCH  18  19
ENDBRANCH  14  17
ENDBRANCH   6  13
BRANCH   1  23
HETATM   23  O1  UNL     1      24.744   3.821  49.258  1.00  0.00    -0.349 OA
BRANCH  23  24
HETATM   24  C2  UNL     1      24.892   5.220  49.239  1.00  0.00     0.171 C 
HETATM   25  C1  UNL     1      23.625   5.827  48.695  1.00  0.00     0.034 C 
ENDBRANCH  23  24
ENDBRANCH   1  23
BRANCH   7  26
HETATM   26  N3  UNL     1      24.602   0.175  54.406  1.00  0.00    -0.363 N 
HETATM   27  H19 UNL     1      24.556   0.869  55.210  1.00  0.00     0.165 HD
BRANCH  26  28
HETATM   28  C16 UNL     1      23.741  -0.949  54.206  1.00  0.00     0.100 C 
HETATM   29  C17 UNL     1      22.448  -0.767  54.119  1.00  0.00    -0.019 A 
HETATM   30  C18 UNL     1      21.682   0.470  54.197  1.00  0.00     0.014 A 
HETATM   31  C21 UNL     1      21.420  -1.784  53.917  1.00  0.00     0.036 A 
HETATM   32  C19 UNL     1      20.393   0.195  54.058  1.00  0.00     0.024 A 
HETATM   33  C20 UNL     1      20.209  -1.249  53.878  1.00  0.00     0.035 A 
HETATM   34 CL1  UNL     1      18.712  -2.155  53.649  1.00  0.00    -0.084 Cl
ENDBRANCH  26  28
ENDBRANCH   7  26
TORSDOF 8
ENDMDL
MODEL 7
REMARK VINA RESULT:      -7.6      2.929      6.969
REMARK  8 active torsions:
REMARK  status: ('A' for Active; 'I' for Inactive)
REMARK    1  A    between atoms: C2_2  and  O1_3 
REMARK    2  A    between atoms: O1_3  and  C3_4 
REMARK    3  A    between atoms: C8_9  and  N1_10 
REMARK       I    between atoms: N1_10  and  C9_11 
REMARK    4  A    between atoms: C9_11  and  C10_13 
REMARK    5  A    between atoms: C11_14  and  C12_15 
REMARK    6  A    between atoms: C12_15  and  N2_16 
REMARK    7  A    between atoms: C15_19  and  N3_20 
REMARK    8  A    between atoms: N3_20  and  C16_21 
ROOT
HETATM    1  C3  UNL     1      22.329   1.238  51.495  1.00  0.00     0.097 A 
HETATM    2  C4  UNL     1      21.427   1.908  50.698  1.00  0.00     0.071 A 
HETATM    3  C5  UNL     1      21.839   2.934  49.880  1.00  0.00     0.066 A 
HETATM    4  C6  UNL     1      23.153   3.341  49.815  1.00  0.00     0.023 A 
HETATM    5  C7  UNL     1      24.085   2.693  50.598  1.00  0.00     0.048 A 
HETATM    6  C8  UNL     1      23.669   1.647  51.433  1.00  0.00     0.069 A 
HETATM    7  C15 UNL     1      23.494   4.334  49.010  1.00  0.00     0.070 A 
HETATM    8  C22 UNL     1      22.432   4.952  48.223  1.00  0.00     0.073 A 
HETATM    9  N4  UNL     1      22.695   5.922  47.420  1.00  0.00    -0.301 NA
HETATM   10  C23 UNL     1      21.012   4.544  48.268  1.00  0.00     0.210 A 
HETATM   11  N5  UNL     1      20.857   3.447  49.205  1.00  0.00    -0.283 NA
HETATM   12  H24 UNL     1      22.029   6.427  46.822  1.00  0.00     0.186 HD
ENDROOT
BRANCH   6  13
HETATM   13  N1  UNL     1      24.787   1.104  52.166  1.00  0.00    -0.321 N 
HETATM   14  C9  UNL     1      25.097   1.937  53.263  1.00  0.00     0.245 C 
HETATM   15  O2  UNL     1      24.395   2.962  53.426  1.00  0.00    -0.268 OA
HETATM   16  H8  UNL     1      25.389   0.243  52.043  1.00  0.00     0.169 HD
BRANCH  14  17
HETATM   17  C10 UNL     1      26.192   1.635  54.187  1.00  0.00     0.072 C 
HETATM   18  C11 UNL     1      26.786   0.462  54.159  1.00  0.00     0.008 C 
BRANCH  18  19
HETATM   19  C12 UNL     1      27.888   0.001  55.006  1.00  0.00     0.299 C 
BRANCH  19  20
HETATM   20  N2  UNL     1      29.014  -0.504  54.253  1.00  0.00     0.083 N 
HETATM   21  C13 UNL     1      28.508  -1.357  53.195  1.00  0.00     0.309 C 
HETATM   22  C14 UNL     1      29.787   0.551  53.626  1.00  0.00     0.309 C 
ENDBRANCH  19  20
ENDBRANCH  18  19
ENDBRANCH  14  17
ENDBRANCH   6  13
BRANCH   1  23
HETATM   23  O1  UNL     1      22.241   0.198  52.397  1.00  0.00    -0.349 OA
BRANCH  23  24
HETATM   24  C2  UNL     1      21.545   0.366  53.607  1.00  0.00     0.171 C 
HETATM   25  C1  UNL     1      22.064  -0.640  54.601  1.00  0.00     0.034 C 
ENDBRANCH  23  24
ENDBRANCH   1  23
BRANCH   7  26
HETATM   26  N3  UNL     1      24.860   4.773  48.928  1.00  0.00    -0.363 N 
HETATM   27  H19 UNL     1      25.345   3.841  49.095  1.00  0.00     0.165 HD
BRANCH  26  28
HETATM   28  C16 UNL     1      25.498   6.033  48.699  1.00  0.00     0.100 C 
HETATM   29  C17 UNL     1      26.795   6.080  48.532  1.00  0.00    -0.019 A 
HETATM   30  C18 UNL     1      27.768   4.996  48.538  1.00  0.00     0.014 A 
HETATM   31  C21 UNL     1      27.616   7.264  48.290  1.00  0.00     0.036 A 
HETATM   32  C19 UNL     1      28.979   5.493  48.328  1.00  0.00     0.024 A 
HETATM   33  C20 UNL     1      28.897   6.949  48.167  1.00  0.00     0.035 A 
HETATM   34 CL1  UNL     1      30.196   8.105  47.868  1.00  0.00    -0.084 Cl
ENDBRANCH  26  28
ENDBRANCH   7  26
TORSDOF 8
ENDMDL
MODEL 8
REMARK VINA RESULT:      -7.6      2.967      5.592
REMARK  8 active torsions:
REMARK  status: ('A' for Active; 'I' for Inactive)
REMARK    1  A    between atoms: C2_2  and  O1_3 
REMARK    2  A    between atoms: O1_3  and  C3_4 
REMARK    3  A    between atoms: C8_9  and  N1_10 
REMARK       I    between atoms: N1_10  and  C9_11 
REMARK    4  A    between atoms: C9_11  and  C10_13 
REMARK    5  A    between atoms: C11_14  and  C12_15 
REMARK    6  A    between atoms: C12_15  and  N2_16 
REMARK    7  A    between atoms: C15_19  and  N3_20 
REMARK    8  A    between atoms: N3_20  and  C16_21 
ROOT
HETATM    1  C3  UNL     1      25.478   0.891  52.785  1.00  0.00     0.097 A 
HETATM    2  C4  UNL     1      24.808  -0.227  53.230  1.00  0.00     0.071 A 
HETATM    3  C5  UNL     1      23.446  -0.203  53.415  1.00  0.00     0.066 A 
HETATM    4  C6  UNL     1      22.690   0.923  53.172  1.00  0.00     0.023 A 
HETATM    5  C7  UNL     1      23.326   2.061  52.725  1.00  0.00     0.048 A 
HETATM    6  C8  UNL     1      24.714   2.040  52.534  1.00  0.00     0.069 A 
HETATM    7  C15 UNL     1      21.382   0.890  53.367  1.00  0.00     0.070 A 
HETATM    8  C22 UNL     1      20.807  -0.364  53.841  1.00  0.00     0.073 A 
HETATM    9  N4  UNL     1      19.541  -0.464  54.050  1.00  0.00    -0.301 NA
HETATM   10  C23 UNL     1      21.586  -1.591  54.115  1.00  0.00     0.210 A 
HETATM   11  N5  UNL     1      22.987  -1.341  53.837  1.00  0.00    -0.283 NA
HETATM   12  H24 UNL     1      19.034  -1.295  54.381  1.00  0.00     0.186 HD
ENDROOT
BRANCH   6  13
HETATM   13  N1  UNL     1      25.185   3.321  52.067  1.00  0.00    -0.321 N 
HETATM   14  C9  UNL     1      24.867   3.485  50.701  1.00  0.00     0.245 C 
HETATM   15  O2  UNL     1      24.259   2.547  50.134  1.00  0.00    -0.268 OA
HETATM   16  H8  UNL     1      25.698   4.122  52.530  1.00  0.00     0.169 HD
BRANCH  14  17
HETATM   17  C10 UNL     1      25.225   4.693  49.956  1.00  0.00     0.072 C 
HETATM   18  C11 UNL     1      24.879   5.881  50.402  1.00  0.00     0.008 C 
BRANCH  18  19
HETATM   19  C12 UNL     1      25.155   7.179  49.785  1.00  0.00     0.299 C 
BRANCH  19  20
HETATM   20  N2  UNL     1      26.567   7.469  49.673  1.00  0.00     0.083 N 
HETATM   21  C13 UNL     1      26.936   7.402  48.272  1.00  0.00     0.309 C 
HETATM   22  C14 UNL     1      26.906   8.798  50.146  1.00  0.00     0.309 C 
ENDBRANCH  19  20
ENDBRANCH  18  19
ENDBRANCH  14  17
ENDBRANCH   6  13
BRANCH   1  23
HETATM   23  O1  UNL     1      26.797   1.184  52.505  1.00  0.00    -0.349 OA
BRANCH  23  24
HETATM   24  C2  UNL     1      27.770   1.106  53.517  1.00  0.00     0.171 C 
HETATM   25  C1  UNL     1      28.498   2.423  53.583  1.00  0.00     0.034 C 
ENDBRANCH  23  24
ENDBRANCH   1  23
BRANCH   7  26
HETATM   26  N3  UNL     1      20.576   2.054  53.117  1.00  0.00    -0.363 N 
HETATM   27  H19 UNL     1      20.716   2.556  54.044  1.00  0.00     0.165 HD
BRANCH  26  28
HETATM   28  C16 UNL     1      19.789   2.512  52.015  1.00  0.00     0.100 C 
HETATM   29  C17 UNL     1      20.117   3.619  51.400  1.00  0.00    -0.019 A 
HETATM   30  C18 UNL     1      21.225   4.529  51.664  1.00  0.00     0.014 A 
HETATM   31  C21 UNL     1      19.439   4.240  50.265  1.00  0.00     0.036 A 
HETATM   32  C19 UNL     1      21.184   5.531  50.797  1.00  0.00     0.024 A 
HETATM   33  C20 UNL     1      20.042   5.359  49.892  1.00  0.00     0.035 A 
HETATM   34 CL1  UNL     1      19.519   6.390  48.559  1.00  0.00    -0.084 Cl
ENDBRANCH  26  28
ENDBRANCH   7  26
TORSDOF 8
ENDMDL
MODEL 9
REMARK VINA RESULT:      -7.5      3.495      7.653
REMARK  8 active torsions:
REMARK  status: ('A' for Active; 'I' for Inactive)
REMARK    1  A    between atoms: C2_2  and  O1_3 
REMARK    2  A    between atoms: O1_3  and  C3_4 
REMARK    3  A    between atoms: C8_9  and  N1_10 
REMARK       I    between atoms: N1_10  and  C9_11 
REMARK    4  A    between atoms: C9_11  and  C10_13 
REMARK    5  A    between atoms: C11_14  and  C12_15 
REMARK    6  A    between atoms: C12_15  and  N2_16 
REMARK    7  A    between atoms: C15_19  and  N3_20 
REMARK    8  A    between atoms: N3_20  and  C16_21 
ROOT
HETATM    1  C3  UNL     1      20.643  -0.173  53.348  1.00  0.00     0.097 A 
HETATM    2  C4  UNL     1      21.760  -0.639  54.004  1.00  0.00     0.071 A 
HETATM    3  C5  UNL     1      23.020  -0.251  53.610  1.00  0.00     0.066 A 
HETATM    4  C6  UNL     1      23.228   0.609  52.555  1.00  0.00     0.023 A 
HETATM    5  C7  UNL     1      22.132   1.096  51.874  1.00  0.00     0.048 A 
HETATM    6  C8  UNL     1      20.848   0.704  52.273  1.00  0.00     0.069 A 
HETATM    7  C15 UNL     1      24.461   0.948  52.218  1.00  0.00     0.070 A 
HETATM    8  C22 UNL     1      25.551   0.378  53.003  1.00  0.00     0.073 A 
HETATM    9  N4  UNL     1      26.774   0.668  52.730  1.00  0.00    -0.301 NA
HETATM   10  C23 UNL     1      25.366  -0.549  54.140  1.00  0.00     0.210 A 
HETATM   11  N5  UNL     1      23.949  -0.787  54.340  1.00  0.00    -0.283 NA
HETATM   12  H24 UNL     1      27.613   0.325  53.215  1.00  0.00     0.186 HD
ENDROOT
BRANCH   6  13
HETATM   13  N1  UNL     1      19.844   1.319  51.439  1.00  0.00    -0.321 N 
HETATM   14  C9  UNL     1      19.549   2.616  51.913  1.00  0.00     0.245 C 
HETATM   15  O2  UNL     1      20.169   3.014  52.927  1.00  0.00    -0.268 OA
HETATM   16  H8  UNL     1      19.313   0.999  50.582  1.00  0.00     0.169 HD
BRANCH  14  17
HETATM   17  C10 UNL     1      18.562   3.479  51.262  1.00  0.00     0.072 C 
HETATM   18  C11 UNL     1      17.300   3.446  51.628  1.00  0.00     0.008 C 
BRANCH  18  19
HETATM   19  C12 UNL     1      16.193   4.236  51.085  1.00  0.00     0.299 C 
BRANCH  19  20
HETATM   20  N2  UNL     1      15.088   3.427  50.622  1.00  0.00     0.083 N 
HETATM   21  C13 UNL     1      15.310   3.111  49.224  1.00  0.00     0.309 C 
HETATM   22  C14 UNL     1      14.974   2.170  51.338  1.00  0.00     0.309 C 
ENDBRANCH  19  20
ENDBRANCH  18  19
ENDBRANCH  14  17
ENDBRANCH   6  13
BRANCH   1  23
HETATM   23  O1  UNL     1      19.284  -0.363  53.492  1.00  0.00    -0.349 OA
BRANCH  23  24
HETATM   24  C2  UNL     1      18.746  -1.662  53.491  1.00  0.00     0.171 C 
HETATM   25  C1  UNL     1      17.316  -1.588  53.022  1.00  0.00     0.034 C 
ENDBRANCH  23  24
ENDBRANCH   1  23
BRANCH   7  26
HETATM   26  N3  UNL     1      24.699   1.846  51.120  1.00  0.00    -0.363 N 
HETATM   27  H19 UNL     1      25.092   1.150  50.419  1.00  0.00     0.165 HD
BRANCH  26  28
HETATM   28  C16 UNL     1      24.509   3.248  50.910  1.00  0.00     0.100 C 
HETATM   29  C17 UNL     1      25.374   3.918  50.194  1.00  0.00    -0.019 A 
HETATM   30  C18 UNL     1      26.582   3.449  49.526  1.00  0.00     0.014 A 
HETATM   31  C21 UNL     1      25.348   5.343  49.874  1.00  0.00     0.036 A 
HETATM   32  C19 UNL     1      27.164   4.467  48.909  1.00  0.00     0.024 A 
HETATM   33  C20 UNL     1      26.383   5.691  49.124  1.00  0.00     0.035 A 
HETATM   34 CL1  UNL     1      26.697   7.324  48.534  1.00  0.00    -0.084 Cl
ENDBRANCH  26  28
ENDBRANCH   7  26
TORSDOF 8
ENDMDL
