MODEL 1
REMARK VINA RESULT:      -9.1      0.000      0.000
REMARK  4 active torsions:
REMARK  status: ('A' for Active; 'I' for Inactive)
REMARK    1  A    between atoms: O1_2  and  C2_3 
REMARK    2  A    between atoms: C5_6  and  C6_7 
REMARK    3  A    between atoms: N2_11  and  C9_12 
REMARK    4  A    between atoms: C10_14  and  O2_15 
ROOT
HETATM    1  C2  UNL     1      21.375  -0.215  53.438  1.00  0.00     0.069 A 
HETATM    2  C3  UNL     1      22.499  -0.822  54.014  1.00  0.00     0.037 A 
HETATM    3  C4  UNL     1      23.782  -0.433  53.623  1.00  0.00     0.013 A 
HETATM    4  C5  UNL     1      23.959   0.552  52.671  1.00  0.00    -0.022 A 
HETATM    5  C12 UNL     1      22.857   1.151  52.101  1.00  0.00    -0.015 A 
HETATM    6  C13 UNL     1      22.799   2.147  51.076  1.00  0.00    -0.025 A 
HETATM    7  C14 UNL     1      23.343   2.086  49.809  1.00  0.00     0.013 A 
HETATM    8  C15 UNL     1      23.282   3.089  48.852  1.00  0.00     0.020 A 
HETATM    9  C16 UNL     1      22.618   4.252  49.195  1.00  0.00     0.011 A 
HETATM   10 BR1  UNL     1      22.546   5.653  47.887  1.00  0.00    -0.051 Br
HETATM   11  C17 UNL     1      22.057   4.362  50.446  1.00  0.00     0.020 A 
HETATM   12  C18 UNL     1      22.134   3.345  51.381  1.00  0.00     0.013 A 
HETATM   13  C19 UNL     1      21.584   0.764  52.490  1.00  0.00     0.049 A 
ENDROOT
BRANCH   4  14
HETATM   14  C6  UNL     1      25.252   1.043  52.203  1.00  0.00     0.151 C 
HETATM   15  C7  UNL     1      25.397   2.551  52.443  1.00  0.00     0.080 C 
HETATM   16  C8  UNL     1      25.539   2.573  53.951  1.00  0.00     0.114 C 
HETATM   17  N1  UNL     1      26.063   1.443  54.273  1.00  0.00    -0.186 NA
HETATM   18  N2  UNL     1      26.306   0.624  53.142  1.00  0.00    -0.237 N 
BRANCH  18  19
HETATM   19  C9  UNL     1      27.448  -0.253  53.298  1.00  0.00     0.192 A 
HETATM   20  N3  UNL     1      27.529  -1.506  53.210  1.00  0.00    -0.198 NA
HETATM   21  C10 UNL     1      28.707  -2.085  53.354  1.00  0.00     0.171 A 
HETATM   22  C11 UNL     1      29.931  -1.350  53.609  1.00  0.00     0.111 A 
HETATM   23  S1  UNL     1      29.151   0.401  53.626  1.00  0.00    -0.058 SA
BRANCH  21  24
HETATM   24  O2  UNL     1      28.686  -3.485  53.244  1.00  0.00    -0.344 OA
HETATM   25  H10 UNL     1      28.766  -4.101  54.044  1.00  0.00     0.219 HD
ENDBRANCH  21  24
ENDBRANCH  18  19
ENDBRANCH   4  14
BRANCH   1  26
HETATM   26  O1  UNL     1      20.242  -0.776  53.997  1.00  0.00    -0.356 OA
HETATM   27  C1  UNL     1      18.997  -0.907  53.322  1.00  0.00     0.210 C 
ENDBRANCH   1  26
TORSDOF 4
ENDMDL
MODEL 2
REMARK VINA RESULT:      -8.5      1.978      2.080
REMARK  4 active torsions:
REMARK  status: ('A' for Active; 'I' for Inactive)
REMARK    1  A    between atoms: O1_2  and  C2_3 
REMARK    2  A    between atoms: C5_6  and  C6_7 
REMARK    3  A    between atoms: N2_11  and  C9_12 
REMARK    4  A    between atoms: C10_14  and  O2_15 
ROOT
HETATM    1  C2  UNL     1      21.202  -0.464  53.150  1.00  0.00     0.069 A 
HETATM    2  C3  UNL     1      22.402  -0.569  53.866  1.00  0.00     0.037 A 
HETATM    3  C4  UNL     1      23.527   0.149  53.456  1.00  0.00     0.013 A 
HETATM    4  C5  UNL     1      23.472   0.969  52.347  1.00  0.00    -0.022 A 
HETATM    5  C12 UNL     1      22.295   1.075  51.637  1.00  0.00    -0.015 A 
HETATM    6  C13 UNL     1      22.021   1.818  50.447  1.00  0.00    -0.025 A 
HETATM    7  C14 UNL     1      22.672   1.732  49.232  1.00  0.00     0.013 A 
HETATM    8  C15 UNL     1      22.387   2.492  48.106  1.00  0.00     0.020 A 
HETATM    9  C16 UNL     1      21.362   3.414  48.207  1.00  0.00     0.011 A 
HETATM   10 BR1  UNL     1      20.973   4.483  46.662  1.00  0.00    -0.051 Br
HETATM   11  C17 UNL     1      20.682   3.536  49.396  1.00  0.00     0.020 A 
HETATM   12  C18 UNL     1      20.989   2.765  50.504  1.00  0.00     0.013 A 
HETATM   13  C19 UNL     1      21.179   0.362  52.047  1.00  0.00     0.049 A 
ENDROOT
BRANCH   4  14
HETATM   14  C6  UNL     1      24.582   1.772  51.842  1.00  0.00     0.151 C 
HETATM   15  C7  UNL     1      24.198   3.253  51.738  1.00  0.00     0.080 C 
HETATM   16  C8  UNL     1      24.139   3.622  53.207  1.00  0.00     0.114 C 
HETATM   17  N1  UNL     1      24.958   2.829  53.803  1.00  0.00    -0.186 NA
HETATM   18  N2  UNL     1      25.592   1.937  52.901  1.00  0.00    -0.237 N 
BRANCH  18  19
HETATM   19  C9  UNL     1      26.929   1.557  53.308  1.00  0.00     0.192 A 
HETATM   20  N3  UNL     1      27.827   2.230  53.878  1.00  0.00    -0.198 NA
HETATM   21  C10 UNL     1      28.969   1.643  54.189  1.00  0.00     0.171 A 
HETATM   22  C11 UNL     1      29.250   0.248  53.910  1.00  0.00     0.111 A 
HETATM   23  S1  UNL     1      27.571  -0.166  53.083  1.00  0.00    -0.058 SA
BRANCH  21  24
HETATM   24  O2  UNL     1      29.904   2.482  54.817  1.00  0.00    -0.344 OA
HETATM   25  H10 UNL     1      30.608   2.139  55.458  1.00  0.00     0.219 HD
ENDBRANCH  21  24
ENDBRANCH  18  19
ENDBRANCH   4  14
BRANCH   1  26
HETATM   26  O1  UNL     1      20.257  -1.265  53.762  1.00  0.00    -0.356 OA
HETATM   27  C1  UNL     1      18.868  -1.242  53.458  1.00  0.00     0.210 C 
ENDBRANCH   1  26
TORSDOF 4
ENDMDL
MODEL 3
REMARK VINA RESULT:      -8.3      4.381      6.728
REMARK  4 active torsions:
REMARK  status: ('A' for Active; 'I' for Inactive)
REMARK    1  A    between atoms: O1_2  and  C2_3 
REMARK    2  A    between atoms: C5_6  and  C6_7 
REMARK    3  A    between atoms: N2_11  and  C9_12 
REMARK    4  A    between atoms: C10_14  and  O2_15 
ROOT
HETATM    1  C2  UNL     1      21.777   0.443  53.392  1.00  0.00     0.069 A 
HETATM    2  C3  UNL     1      21.329   1.610  52.759  1.00  0.00     0.037 A 
HETATM    3  C4  UNL     1      22.250   2.522  52.238  1.00  0.00     0.013 A 
HETATM    4  C5  UNL     1      23.607   2.284  52.336  1.00  0.00    -0.022 A 
HETATM    5  C12 UNL     1      24.053   1.139  52.958  1.00  0.00    -0.015 A 
HETATM    6  C13 UNL     1      25.394   0.713  53.213  1.00  0.00    -0.025 A 
HETATM    7  C14 UNL     1      26.379   1.394  53.900  1.00  0.00     0.013 A 
HETATM    8  C15 UNL     1      27.678   0.951  54.103  1.00  0.00     0.020 A 
HETATM    9  C16 UNL     1      28.018  -0.280  53.574  1.00  0.00     0.011 A 
HETATM   10 BR1  UNL     1      29.817  -0.893  53.832  1.00  0.00    -0.051 Br
HETATM   11  C17 UNL     1      27.071  -0.999  52.883  1.00  0.00     0.020 A 
HETATM   12  C18 UNL     1      25.782  -0.531  52.694  1.00  0.00     0.013 A 
HETATM   13  C19 UNL     1      23.137   0.235  53.475  1.00  0.00     0.049 A 
ENDROOT
BRANCH   4  14
HETATM   14  C6  UNL     1      24.651   3.161  51.813  1.00  0.00     0.151 C 
HETATM   15  C7  UNL     1      25.449   2.476  50.698  1.00  0.00     0.080 C 
HETATM   16  C8  UNL     1      24.415   2.465  49.591  1.00  0.00     0.114 C 
HETATM   17  N1  UNL     1      23.650   3.476  49.813  1.00  0.00    -0.186 NA
HETATM   18  N2  UNL     1      24.042   4.200  50.966  1.00  0.00    -0.237 N 
BRANCH  18  19
HETATM   19  C9  UNL     1      23.746   5.616  50.888  1.00  0.00     0.192 A 
HETATM   20  N3  UNL     1      24.520   6.610  50.897  1.00  0.00    -0.198 NA
HETATM   21  C10 UNL     1      24.009   7.821  50.770  1.00  0.00     0.171 A 
HETATM   22  C11 UNL     1      22.590   8.076  50.616  1.00  0.00     0.111 A 
HETATM   23  S1  UNL     1      22.017   6.248  50.682  1.00  0.00    -0.058 SA
BRANCH  21  24
HETATM   24  O2  UNL     1      24.956   8.859  50.799  1.00  0.00    -0.344 OA
HETATM   25  H10 UNL     1      24.993   9.550  51.539  1.00  0.00     0.219 HD
ENDBRANCH  21  24
ENDBRANCH  18  19
ENDBRANCH   4  14
BRANCH   1  26
HETATM   26  O1  UNL     1      20.675  -0.277  53.809  1.00  0.00    -0.356 OA
HETATM   27  C1  UNL     1      20.713  -1.642  54.207  1.00  0.00     0.210 C 
ENDBRANCH   1  26
TORSDOF 4
ENDMDL
MODEL 4
REMARK VINA RESULT:      -8.2      4.223      6.170
REMARK  4 active torsions:
REMARK  status: ('A' for Active; 'I' for Inactive)
REMARK    1  A    between atoms: O1_2  and  C2_3 
REMARK    2  A    between atoms: C5_6  and  C6_7 
REMARK    3  A    between atoms: N2_11  and  C9_12 
REMARK    4  A    between atoms: C10_14  and  O2_15 
ROOT
HETATM    1  C2  UNL     1      19.327  -0.261  52.810  1.00  0.00     0.069 A 
HETATM    2  C3  UNL     1      18.858   0.157  51.557  1.00  0.00     0.037 A 
HETATM    3  C4  UNL     1      19.743   0.701  50.624  1.00  0.00     0.013 A 
HETATM    4  C5  UNL     1      21.085   0.831  50.921  1.00  0.00    -0.022 A 
HETATM    5  C12 UNL     1      21.552   0.423  52.152  1.00  0.00    -0.015 A 
HETATM    6  C13 UNL     1      22.875   0.503  52.688  1.00  0.00    -0.025 A 
HETATM    7  C14 UNL     1      23.658   1.630  52.835  1.00  0.00     0.013 A 
HETATM    8  C15 UNL     1      24.950   1.658  53.341  1.00  0.00     0.020 A 
HETATM    9  C16 UNL     1      25.502   0.453  53.734  1.00  0.00     0.011 A 
HETATM   10 BR1  UNL     1      27.295   0.477  54.416  1.00  0.00    -0.051 Br
HETATM   11  C17 UNL     1      24.761  -0.699  53.609  1.00  0.00     0.020 A 
HETATM   12  C18 UNL     1      23.475  -0.696  53.100  1.00  0.00     0.013 A 
HETATM   13  C19 UNL     1      20.672  -0.117  53.077  1.00  0.00     0.049 A 
ENDROOT
BRANCH   4  14
HETATM   14  C6  UNL     1      22.095   1.371  50.015  1.00  0.00     0.151 C 
HETATM   15  C7  UNL     1      21.697   1.165  48.548  1.00  0.00     0.080 C 
HETATM   16  C8  UNL     1      20.558   2.159  48.435  1.00  0.00     0.114 C 
HETATM   17  N1  UNL     1      20.808   3.082  49.295  1.00  0.00    -0.186 NA
HETATM   18  N2  UNL     1      22.012   2.841  50.004  1.00  0.00    -0.237 N 
BRANCH  18  19
HETATM   19  C9  UNL     1      22.695   4.051  50.412  1.00  0.00     0.192 A 
HETATM   20  N3  UNL     1      23.030   4.448  51.559  1.00  0.00    -0.198 NA
HETATM   21  C10 UNL     1      23.692   5.585  51.676  1.00  0.00     0.171 A 
HETATM   22  C11 UNL     1      24.061   6.413  50.544  1.00  0.00     0.111 A 
HETATM   23  S1  UNL     1      23.294   5.302  49.183  1.00  0.00    -0.058 SA
BRANCH  21  24
HETATM   24  O2  UNL     1      24.013   5.940  52.997  1.00  0.00    -0.344 OA
HETATM   25  H10 UNL     1      23.468   6.602  53.536  1.00  0.00     0.219 HD
ENDBRANCH  21  24
ENDBRANCH  18  19
ENDBRANCH   4  14
BRANCH   1  26
HETATM   26  O1  UNL     1      18.259  -0.757  53.532  1.00  0.00    -0.356 OA
HETATM   27  C1  UNL     1      17.864  -2.123  53.544  1.00  0.00     0.210 C 
ENDBRANCH   1  26
TORSDOF 4
ENDMDL
MODEL 5
REMARK VINA RESULT:      -8.1      4.549      7.234
REMARK  4 active torsions:
REMARK  status: ('A' for Active; 'I' for Inactive)
REMARK    1  A    between atoms: O1_2  and  C2_3 
REMARK    2  A    between atoms: C5_6  and  C6_7 
REMARK    3  A    between atoms: N2_11  and  C9_12 
REMARK    4  A    between atoms: C10_14  and  O2_15 
ROOT
HETATM    1  C2  UNL     1      24.516   0.996  52.559  1.00  0.00     0.069 A 
HETATM    2  C3  UNL     1      23.163   0.698  52.346  1.00  0.00     0.037 A 
HETATM    3  C4  UNL     1      22.430   1.412  51.396  1.00  0.00     0.013 A 
HETATM    4  C5  UNL     1      23.026   2.414  50.655  1.00  0.00    -0.022 A 
HETATM    5  C12 UNL     1      24.355   2.712  50.861  1.00  0.00    -0.015 A 
HETATM    6  C13 UNL     1      25.159   3.725  50.251  1.00  0.00    -0.025 A 
HETATM    7  C14 UNL     1      24.923   5.085  50.225  1.00  0.00     0.013 A 
HETATM    8  C15 UNL     1      25.721   6.033  49.599  1.00  0.00     0.020 A 
HETATM    9  C16 UNL     1      26.851   5.578  48.946  1.00  0.00     0.011 A 
HETATM   10 BR1  UNL     1      27.950   6.877  48.060  1.00  0.00    -0.051 Br
HETATM   11  C17 UNL     1      27.131   4.231  48.945  1.00  0.00     0.020 A 
HETATM   12  C18 UNL     1      26.316   3.308  49.577  1.00  0.00     0.013 A 
HETATM   13  C19 UNL     1      25.081   2.001  51.805  1.00  0.00     0.049 A 
ENDROOT
BRANCH   4  14
HETATM   14  C6  UNL     1      22.356   3.209  49.630  1.00  0.00     0.151 C 
HETATM   15  C7  UNL     1      22.736   2.736  48.221  1.00  0.00     0.080 C 
HETATM   16  C8  UNL     1      22.002   1.412  48.172  1.00  0.00     0.114 C 
HETATM   17  N1  UNL     1      20.991   1.539  48.958  1.00  0.00    -0.186 NA
HETATM   18  N2  UNL     1      20.937   2.823  49.556  1.00  0.00    -0.237 N 
BRANCH  18  19
HETATM   19  C9  UNL     1      19.590   3.275  49.836  1.00  0.00     0.192 A 
HETATM   20  N3  UNL     1      18.982   3.389  50.933  1.00  0.00    -0.198 NA
HETATM   21  C10 UNL     1      17.752   3.870  50.937  1.00  0.00     0.171 A 
HETATM   22  C11 UNL     1      17.053   4.283  49.736  1.00  0.00     0.111 A 
HETATM   23  S1  UNL     1      18.457   3.872  48.497  1.00  0.00    -0.058 SA
BRANCH  21  24
HETATM   24  O2  UNL     1      17.162   3.950  52.210  1.00  0.00    -0.344 OA
HETATM   25  H10 UNL     1      16.162   4.030  52.348  1.00  0.00     0.219 HD
ENDBRANCH  21  24
ENDBRANCH  18  19
ENDBRANCH   4  14
BRANCH   1  26
HETATM   26  O1  UNL     1      24.999   0.151  53.539  1.00  0.00    -0.356 OA
HETATM   27  C1  UNL     1      25.977  -0.858  53.317  1.00  0.00     0.210 C 
ENDBRANCH   1  26
TORSDOF 4
ENDMDL
MODEL 6
REMARK VINA RESULT:      -8.0      4.170      6.153
REMARK  4 active torsions:
REMARK  status: ('A' for Active; 'I' for Inactive)
REMARK    1  A    between atoms: O1_2  and  C2_3 
REMARK    2  A    between atoms: C5_6  and  C6_7 
REMARK    3  A    between atoms: N2_11  and  C9_12 
REMARK    4  A    between atoms: C10_14  and  O2_15 
ROOT
HETATM    1  C2  UNL     1      25.509   0.345  53.454  1.00  0.00     0.069 A 
HETATM    2  C3  UNL     1      26.186   1.457  52.936  1.00  0.00     0.037 A 
HETATM    3  C4  UNL     1      25.502   2.394  52.159  1.00  0.00     0.013 A 
HETATM    4  C5  UNL     1      24.156   2.240  51.894  1.00  0.00    -0.022 A 
HETATM    5  C12 UNL     1      23.485   1.147  52.400  1.00  0.00    -0.015 A 
HETATM    6  C13 UNL     1      22.120   0.762  52.219  1.00  0.00    -0.025 A 
HETATM    7  C14 UNL     1      21.458   0.539  51.028  1.00  0.00     0.013 A 
HETATM    8  C15 UNL     1      20.121   0.189  50.899  1.00  0.00     0.020 A 
HETATM    9  C16 UNL     1      19.387   0.049  52.062  1.00  0.00     0.011 A 
HETATM   10 BR1  UNL     1      17.534  -0.415  51.893  1.00  0.00    -0.051 Br
HETATM   11  C17 UNL     1      20.002   0.258  53.274  1.00  0.00     0.020 A 
HETATM   12  C18 UNL     1      21.337   0.609  53.373  1.00  0.00     0.013 A 
HETATM   13  C19 UNL     1      24.166   0.218  53.171  1.00  0.00     0.049 A 
ENDROOT
BRANCH   4  14
HETATM   14  C6  UNL     1      23.345   3.165  51.109  1.00  0.00     0.151 C 
HETATM   15  C7  UNL     1      22.158   3.696  51.922  1.00  0.00     0.080 C 
HETATM   16  C8  UNL     1      22.881   4.605  52.896  1.00  0.00     0.114 C 
HETATM   17  N1  UNL     1      23.947   4.994  52.290  1.00  0.00    -0.186 NA
HETATM   18  N2  UNL     1      24.049   4.452  50.984  1.00  0.00    -0.237 N 
BRANCH  18  19
HETATM   19  C9  UNL     1      24.740   5.318  50.051  1.00  0.00     0.192 A 
HETATM   20  N3  UNL     1      25.958   5.631  49.981  1.00  0.00    -0.198 NA
HETATM   21  C10 UNL     1      26.362   6.418  49.000  1.00  0.00     0.171 A 
HETATM   22  C11 UNL     1      25.474   6.947  47.984  1.00  0.00     0.111 A 
HETATM   23  S1  UNL     1      23.865   6.136  48.637  1.00  0.00    -0.058 SA
BRANCH  21  24
HETATM   24  O2  UNL     1      27.736   6.711  49.017  1.00  0.00    -0.344 OA
HETATM   25  H10 UNL     1      28.451   5.993  49.031  1.00  0.00     0.219 HD
ENDBRANCH  21  24
ENDBRANCH  18  19
ENDBRANCH   4  14
BRANCH   1  26
HETATM   26  O1  UNL     1      26.407  -0.414  54.180  1.00  0.00    -0.356 OA
HETATM   27  C1  UNL     1      27.643   0.074  54.686  1.00  0.00     0.210 C 
ENDBRANCH   1  26
TORSDOF 4
ENDMDL
MODEL 7
REMARK VINA RESULT:      -7.9      9.413     11.423
REMARK  4 active torsions:
REMARK  status: ('A' for Active; 'I' for Inactive)
REMARK    1  A    between atoms: O1_2  and  C2_3 
REMARK    2  A    between atoms: C5_6  and  C6_7 
REMARK    3  A    between atoms: N2_11  and  C9_12 
REMARK    4  A    between atoms: C10_14  and  O2_15 
ROOT
HETATM    1  C2  UNL     1      27.032   5.371  48.675  1.00  0.00     0.069 A 
HETATM    2  C3  UNL     1      26.587   6.663  48.362  1.00  0.00     0.037 A 
HETATM    3  C4  UNL     1      27.490   7.623  47.903  1.00  0.00     0.013 A 
HETATM    4  C5  UNL     1      28.827   7.314  47.748  1.00  0.00    -0.022 A 
HETATM    5  C12 UNL     1      29.271   6.047  48.055  1.00  0.00    -0.015 A 
HETATM    6  C13 UNL     1      30.601   5.522  48.017  1.00  0.00    -0.025 A 
HETATM    7  C14 UNL     1      31.716   6.003  48.672  1.00  0.00     0.013 A 
HETATM    8  C15 UNL     1      32.996   5.474  48.587  1.00  0.00     0.020 A 
HETATM    9  C16 UNL     1      33.172   4.367  47.779  1.00  0.00     0.011 A 
HETATM   10 BR1  UNL     1      34.941   3.640  47.638  1.00  0.00    -0.051 Br
HETATM   11  C17 UNL     1      32.090   3.848  47.106  1.00  0.00     0.020 A 
HETATM   12  C18 UNL     1      30.824   4.398  47.208  1.00  0.00     0.013 A 
HETATM   13  C19 UNL     1      28.373   5.094  48.511  1.00  0.00     0.049 A 
ENDROOT
BRANCH   4  14
HETATM   14  C6  UNL     1      29.849   8.237  47.262  1.00  0.00     0.151 C 
HETATM   15  C7  UNL     1      30.270   7.898  45.826  1.00  0.00     0.080 C 
HETATM   16  C8  UNL     1      29.026   8.324  45.071  1.00  0.00     0.114 C 
HETATM   17  N1  UNL     1      28.490   9.259  45.774  1.00  0.00    -0.186 NA
HETATM   18  N2  UNL     1      29.231   9.536  46.950  1.00  0.00    -0.237 N 
BRANCH  18  19
HETATM   19  C9  UNL     1      29.141  10.917  47.378  1.00  0.00     0.192 A 
HETATM   20  N3  UNL     1      28.715  11.409  48.456  1.00  0.00    -0.198 NA
HETATM   21  C10 UNL     1      28.773  12.716  48.632  1.00  0.00     0.171 A 
HETATM   22  C11 UNL     1      29.309  13.631  47.643  1.00  0.00     0.111 A 
HETATM   23  S1  UNL     1      29.754  12.313  46.324  1.00  0.00    -0.058 SA
BRANCH  21  24
HETATM   24  O2  UNL     1      28.267  13.162  49.865  1.00  0.00    -0.344 OA
HETATM   25  H10 UNL     1      27.392  12.830  50.252  1.00  0.00     0.219 HD
ENDBRANCH  21  24
ENDBRANCH  18  19
ENDBRANCH   4  14
BRANCH   1  26
HETATM   26  O1  UNL     1      25.949   4.626  49.099  1.00  0.00    -0.356 OA
HETATM   27  C1  UNL     1      26.048   3.354  49.726  1.00  0.00     0.210 C 
ENDBRANCH   1  26
TORSDOF 4
ENDMDL
MODEL 8
REMARK VINA RESULT:      -7.7      4.692      7.841
REMARK  4 active torsions:
REMARK  status: ('A' for Active; 'I' for Inactive)
REMARK    1  A    between atoms: O1_2  and  C2_3 
REMARK    2  A    between atoms: C5_6  and  C6_7 
REMARK    3  A    between atoms: N2_11  and  C9_12 
REMARK    4  A    between atoms: C10_14  and  O2_15 
ROOT
HETATM    1  C2  UNL     1      26.342   4.766  49.153  1.00  0.00     0.069 A 
HETATM    2  C3  UNL     1      24.976   5.077  49.178  1.00  0.00     0.037 A 
HETATM    3  C4  UNL     1      24.115   4.381  50.030  1.00  0.00     0.013 A 
HETATM    4  C5  UNL     1      24.596   3.385  50.855  1.00  0.00    -0.022 A 
HETATM    5  C12 UNL     1      25.939   3.073  50.833  1.00  0.00    -0.015 A 
HETATM    6  C13 UNL     1      26.643   2.061  51.557  1.00  0.00    -0.025 A 
HETATM    7  C14 UNL     1      26.393   0.704  51.568  1.00  0.00     0.013 A 
HETATM    8  C15 UNL     1      27.090  -0.242  52.306  1.00  0.00     0.020 A 
HETATM    9  C16 UNL     1      28.126   0.212  53.100  1.00  0.00     0.011 A 
HETATM   10 BR1  UNL     1      29.083  -1.085  54.140  1.00  0.00    -0.051 Br
HETATM   11  C17 UNL     1      28.417   1.556  53.122  1.00  0.00     0.020 A 
HETATM   12  C18 UNL     1      27.703   2.477  52.376  1.00  0.00     0.013 A 
HETATM   13  C19 UNL     1      26.792   3.765  49.988  1.00  0.00     0.049 A 
ENDROOT
BRANCH   4  14
HETATM   14  C6  UNL     1      23.787   2.609  51.791  1.00  0.00     0.151 C 
HETATM   15  C7  UNL     1      24.198   2.881  53.243  1.00  0.00     0.080 C 
HETATM   16  C8  UNL     1      23.672   4.292  53.414  1.00  0.00     0.114 C 
HETATM   17  N1  UNL     1      22.674   4.396  52.608  1.00  0.00    -0.186 NA
HETATM   18  N2  UNL     1      22.442   3.199  51.886  1.00  0.00    -0.237 N 
BRANCH  18  19
HETATM   19  C9  UNL     1      21.049   2.988  51.548  1.00  0.00     0.192 A 
HETATM   20  N3  UNL     1      20.009   3.519  52.019  1.00  0.00    -0.198 NA
HETATM   21  C10 UNL     1      18.835   3.189  51.513  1.00  0.00     0.171 A 
HETATM   22  C11 UNL     1      18.672   2.238  50.430  1.00  0.00     0.111 A 
HETATM   23  S1  UNL     1      20.531   1.831  50.197  1.00  0.00    -0.058 SA
BRANCH  21  24
HETATM   24  O2  UNL     1      17.740   3.834  52.112  1.00  0.00    -0.344 OA
HETATM   25  H10 UNL     1      17.601   4.837  52.069  1.00  0.00     0.219 HD
ENDBRANCH  21  24
ENDBRANCH  18  19
ENDBRANCH   4  14
BRANCH   1  26
HETATM   26  O1  UNL     1      26.961   5.594  48.237  1.00  0.00    -0.356 OA
HETATM   27  C1  UNL     1      28.352   5.891  48.237  1.00  0.00     0.210 C 
ENDBRANCH   1  26
TORSDOF 4
ENDMDL
MODEL 9
REMARK VINA RESULT:      -7.7      3.736      6.420
REMARK  4 active torsions:
REMARK  status: ('A' for Active; 'I' for Inactive)
REMARK    1  A    between atoms: O1_2  and  C2_3 
REMARK    2  A    between atoms: C5_6  and  C6_7 
REMARK    3  A    between atoms: N2_11  and  C9_12 
REMARK    4  A    between atoms: C10_14  and  O2_15 
ROOT
HETATM    1  C2  UNL     1      25.188   0.630  53.401  1.00  0.00     0.069 A 
HETATM    2  C3  UNL     1      24.055  -0.195  53.423  1.00  0.00     0.037 A 
HETATM    3  C4  UNL     1      22.850   0.256  52.880  1.00  0.00     0.013 A 
HETATM    4  C5  UNL     1      22.760   1.513  52.315  1.00  0.00    -0.022 A 
HETATM    5  C12 UNL     1      23.870   2.329  52.293  1.00  0.00    -0.015 A 
HETATM    6  C13 UNL     1      23.997   3.668  51.809  1.00  0.00    -0.025 A 
HETATM    7  C14 UNL     1      23.268   4.776  52.193  1.00  0.00     0.013 A 
HETATM    8  C15 UNL     1      23.410   6.057  51.677  1.00  0.00     0.020 A 
HETATM    9  C16 UNL     1      24.364   6.242  50.695  1.00  0.00     0.011 A 
HETATM   10 BR1  UNL     1      24.554   8.004  49.961  1.00  0.00    -0.051 Br
HETATM   11  C17 UNL     1      25.118   5.170  50.279  1.00  0.00     0.020 A 
HETATM   12  C18 UNL     1      24.954   3.902  50.810  1.00  0.00     0.013 A 
HETATM   13  C19 UNL     1      25.065   1.879  52.832  1.00  0.00     0.049 A 
ENDROOT
BRANCH   4  14
HETATM   14  C6  UNL     1      21.556   2.074  51.709  1.00  0.00     0.151 C 
HETATM   15  C7  UNL     1      21.805   2.487  50.253  1.00  0.00     0.080 C 
HETATM   16  C8  UNL     1      21.922   1.123  49.601  1.00  0.00     0.114 C 
HETATM   17  N1  UNL     1      21.212   0.327  50.319  1.00  0.00    -0.186 NA
HETATM   18  N2  UNL     1      20.603   0.992  51.413  1.00  0.00    -0.237 N 
BRANCH  18  19
HETATM   19  C9  UNL     1      19.331   0.419  51.802  1.00  0.00     0.192 A 
HETATM   20  N3  UNL     1      19.035  -0.317  52.780  1.00  0.00    -0.198 NA
HETATM   21  C10 UNL     1      17.778  -0.684  52.950  1.00  0.00     0.171 A 
HETATM   22  C11 UNL     1      16.703  -0.281  52.065  1.00  0.00     0.111 A 
HETATM   23  S1  UNL     1      17.771   0.762  50.862  1.00  0.00    -0.058 SA
BRANCH  21  24
HETATM   24  O2  UNL     1      17.557  -1.508  54.066  1.00  0.00    -0.344 OA
HETATM   25  H10 UNL     1      18.292  -1.765  54.714  1.00  0.00     0.219 HD
ENDBRANCH  21  24
ENDBRANCH  18  19
ENDBRANCH   4  14
BRANCH   1  26
HETATM   26  O1  UNL     1      26.235  -0.051  53.993  1.00  0.00    -0.356 OA
HETATM   27  C1  UNL     1      27.342  -0.591  53.283  1.00  0.00     0.210 C 
ENDBRANCH   1  26
TORSDOF 4
ENDMDL
