MODEL 1
REMARK VINA RESULT:      -9.1      0.000      0.000
REMARK  0 active torsions:
REMARK  status: ('A' for Active; 'I' for Inactive)
ROOT
HETATM    1  C1  UNL     1      27.643   1.314  53.832  1.00  0.00     0.032 C 
HETATM    2  C2  UNL     1      27.082   1.188  52.367  1.00  0.00     0.075 C 
HETATM    3  C3  UNL     1      26.793  -0.336  52.317  1.00  0.00     0.036 C 
HETATM    4  C4  UNL     1      25.518  -0.517  53.153  1.00  0.00    -0.011 A 
HETATM    5  O1  UNL     1      24.308  -0.403  53.455  1.00  0.00     0.000 OA
HETATM    6  O2  UNL     1      24.132  -0.386  53.500  1.00  0.00     0.000 OA
HETATM    7  C5  UNL     1      23.290   0.241  52.599  1.00  0.00     0.031 A 
HETATM    8  C6  UNL     1      22.174   0.934  53.203  1.00  0.00    -0.026 C 
HETATM    9  C7  UNL     1      22.688   2.042  52.707  1.00  0.00     0.011 C 
HETATM   10  C8  UNL     1      23.707   2.768  51.961  1.00  0.00     0.030 C 
HETATM   11  C9  UNL     1      23.442   4.091  51.899  1.00  0.00     0.135 C 
HETATM   12  N1  UNL     1      23.629   5.434  51.563  1.00  0.00    -0.224 NA
HETATM   13  C10 UNL     1      24.401   6.097  50.804  1.00  0.00     0.076 C 
HETATM   14  C11 UNL     1      24.144   7.607  50.832  1.00  0.00     0.083 C 
HETATM   15  C12 UNL     1      22.847   7.693  49.848  1.00  0.00     0.101 C 
HETATM   16  C13 UNL     1      22.135   6.586  50.436  1.00  0.00    -0.104 C 
HETATM   17  C14 UNL     1      21.618   5.750  50.885  1.00  0.00    -0.087 C 
HETATM   18  C15 UNL     1      20.964   4.639  51.489  1.00  0.00     0.215 C 
HETATM   19  N2  UNL     1      22.129   4.411  52.542  1.00  0.00    -0.364 N 
HETATM   20  N3  UNL     1      25.497   6.092  49.834  1.00  0.00    -0.296 NA
HETATM   21  C16 UNL     1      26.080   4.922  49.665  1.00  0.00     0.223 C 
HETATM   22  C17 UNL     1      26.418   3.474  49.796  1.00  0.00     0.196 C 
HETATM   23  N4  UNL     1      25.480   3.403  50.632  1.00  0.00    -0.291 NA
HETATM   24  C18 UNL     1      25.020   2.205  51.375  1.00  0.00     0.234 C 
HETATM   25  N5  UNL     1      25.882   1.932  52.435  1.00  0.00    -0.393 N 
HETATM   26  H17 UNL     1      22.344   4.387  53.557  1.00  0.00     0.162 HD
HETATM   27  H21 UNL     1      25.981   2.752  53.110  1.00  0.00     0.156 HD
ENDROOT
TORSDOF 0
ENDMDL
MODEL 2
REMARK VINA RESULT:      -9.1      2.834      5.802
REMARK  0 active torsions:
REMARK  status: ('A' for Active; 'I' for Inactive)
ROOT
HETATM    1  C1  UNL     1      21.532   0.970  48.877  1.00  0.00     0.032 C 
HETATM    2  C2  UNL     1      21.889   2.086  49.928  1.00  0.00     0.075 C 
HETATM    3  C3  UNL     1      20.461   2.536  50.340  1.00  0.00     0.036 C 
HETATM    4  C4  UNL     1      19.945   1.410  51.247  1.00  0.00    -0.011 A 
HETATM    5  O1  UNL     1      19.893   0.673  52.258  1.00  0.00     0.000 OA
HETATM    6  O2  UNL     1      19.885   0.566  52.405  1.00  0.00     0.000 OA
HETATM    7  C5  UNL     1      20.742   0.837  53.457  1.00  0.00     0.031 A 
HETATM    8  C6  UNL     1      21.134  -0.323  54.226  1.00  0.00    -0.026 C 
HETATM    9  C7  UNL     1      22.367  -0.077  53.832  1.00  0.00     0.011 C 
HETATM   10  C8  UNL     1      23.351   0.697  53.087  1.00  0.00     0.030 C 
HETATM   11  C9  UNL     1      24.602   0.212  53.248  1.00  0.00     0.135 C 
HETATM   12  N1  UNL     1      25.986   0.122  53.083  1.00  0.00    -0.224 NA
HETATM   13  C10 UNL     1      26.904   0.840  52.577  1.00  0.00     0.076 C 
HETATM   14  C11 UNL     1      28.300   0.216  52.683  1.00  0.00     0.083 C 
HETATM   15  C12 UNL     1      28.655   0.579  54.232  1.00  0.00     0.101 C 
HETATM   16  C13 UNL     1      27.382   0.181  54.779  1.00  0.00    -0.104 C 
HETATM   17  C14 UNL     1      26.420  -0.116  55.170  1.00  0.00    -0.087 C 
HETATM   18  C15 UNL     1      25.139  -0.505  55.657  1.00  0.00     0.215 C 
HETATM   19  N2  UNL     1      24.621  -0.927  54.218  1.00  0.00    -0.364 N 
HETATM   20  N3  UNL     1      27.282   2.080  51.899  1.00  0.00    -0.296 NA
HETATM   21  C16 UNL     1      26.269   2.829  51.511  1.00  0.00     0.223 C 
HETATM   22  C17 UNL     1      24.881   3.321  51.269  1.00  0.00     0.196 C 
HETATM   23  N4  UNL     1      24.484   2.280  51.853  1.00  0.00    -0.291 NA
HETATM   24  C18 UNL     1      23.085   1.868  52.116  1.00  0.00     0.234 C 
HETATM   25  N5  UNL     1      22.507   1.346  50.961  1.00  0.00    -0.393 N 
HETATM   26  H17 UNL     1      24.262  -1.726  53.660  1.00  0.00     0.162 HD
HETATM   27  H21 UNL     1      23.051   0.519  50.563  1.00  0.00     0.156 HD
ENDROOT
TORSDOF 0
ENDMDL
MODEL 3
REMARK VINA RESULT:      -8.9      2.645      6.257
REMARK  0 active torsions:
REMARK  status: ('A' for Active; 'I' for Inactive)
ROOT
HETATM    1  C1  UNL     1      22.932   6.691  50.660  1.00  0.00     0.032 C 
HETATM    2  C2  UNL     1      22.722   5.389  49.801  1.00  0.00     0.075 C 
HETATM    3  C3  UNL     1      23.713   5.669  48.639  1.00  0.00     0.036 C 
HETATM    4  C4  UNL     1      25.102   5.420  49.244  1.00  0.00    -0.011 A 
HETATM    5  O1  UNL     1      26.041   4.765  49.750  1.00  0.00     0.000 OA
HETATM    6  O2  UNL     1      26.178   4.671  49.823  1.00  0.00     0.000 OA
HETATM    7  C5  UNL     1      26.030   3.300  49.941  1.00  0.00     0.031 A 
HETATM    8  C6  UNL     1      26.736   2.714  51.060  1.00  0.00    -0.026 C 
HETATM    9  C7  UNL     1      25.554   2.366  51.528  1.00  0.00     0.011 C 
HETATM   10  C8  UNL     1      24.100   2.319  51.450  1.00  0.00     0.030 C 
HETATM   11  C9  UNL     1      23.559   1.658  52.498  1.00  0.00     0.135 C 
HETATM   12  N1  UNL     1      22.560   1.115  53.308  1.00  0.00    -0.224 NA
HETATM   13  C10 UNL     1      21.309   0.915  53.222  1.00  0.00     0.076 C 
HETATM   14  C11 UNL     1      20.705   0.257  54.468  1.00  0.00     0.083 C 
HETATM   15  C12 UNL     1      21.129  -1.295  54.202  1.00  0.00     0.101 C 
HETATM   16  C13 UNL     1      22.493  -1.019  53.828  1.00  0.00    -0.104 C 
HETATM   17  C14 UNL     1      23.511  -0.793  53.544  1.00  0.00    -0.087 C 
HETATM   18  C15 UNL     1      24.844  -0.466  53.165  1.00  0.00     0.215 C 
HETATM   19  N2  UNL     1      24.621   1.089  53.386  1.00  0.00    -0.364 N 
HETATM   20  N3  UNL     1      20.085   1.017  52.427  1.00  0.00    -0.296 NA
HETATM   21  C16 UNL     1      20.211   1.689  51.301  1.00  0.00     0.223 C 
HETATM   22  C17 UNL     1      20.799   2.486  50.184  1.00  0.00     0.196 C 
HETATM   23  N4  UNL     1      21.889   2.428  50.808  1.00  0.00    -0.291 NA
HETATM   24  C18 UNL     1      23.194   3.006  50.407  1.00  0.00     0.234 C 
HETATM   25  N5  UNL     1      23.214   4.377  50.655  1.00  0.00    -0.393 N 
HETATM   26  H17 UNL     1      24.948   1.911  53.929  1.00  0.00     0.162 HD
HETATM   27  H21 UNL     1      23.020   4.615  51.677  1.00  0.00     0.156 HD
ENDROOT
TORSDOF 0
ENDMDL
MODEL 4
REMARK VINA RESULT:      -8.5      2.947      5.280
REMARK  0 active torsions:
REMARK  status: ('A' for Active; 'I' for Inactive)
ROOT
HETATM    1  C1  UNL     1      24.867   5.138  50.404  1.00  0.00     0.032 C 
HETATM    2  C2  UNL     1      24.675   3.733  49.720  1.00  0.00     0.075 C 
HETATM    3  C3  UNL     1      26.152   3.260  49.655  1.00  0.00     0.036 C 
HETATM    4  C4  UNL     1      26.495   2.857  51.096  1.00  0.00    -0.011 A 
HETATM    5  O1  UNL     1      26.437   2.192  52.155  1.00  0.00     0.000 OA
HETATM    6  O2  UNL     1      26.429   2.096  52.309  1.00  0.00     0.000 OA
HETATM    7  C5  UNL     1      25.619   0.974  52.333  1.00  0.00     0.031 A 
HETATM    8  C6  UNL     1      25.059   0.665  53.630  1.00  0.00    -0.026 C 
HETATM    9  C7  UNL     1      23.876   0.877  53.089  1.00  0.00     0.011 C 
HETATM   10  C8  UNL     1      23.018   1.234  51.967  1.00  0.00     0.030 C 
HETATM   11  C9  UNL     1      21.709   1.197  52.301  1.00  0.00     0.135 C 
HETATM   12  N1  UNL     1      20.327   1.312  52.134  1.00  0.00    -0.224 NA
HETATM   13  C10 UNL     1      19.525   1.470  51.161  1.00  0.00     0.076 C 
HETATM   14  C11 UNL     1      18.053   1.528  51.583  1.00  0.00     0.083 C 
HETATM   15  C12 UNL     1      17.750  -0.062  51.775  1.00  0.00     0.101 C 
HETATM   16  C13 UNL     1      18.950  -0.358  52.518  1.00  0.00    -0.104 C 
HETATM   17  C14 UNL     1      19.858  -0.562  53.067  1.00  0.00    -0.087 C 
HETATM   18  C15 UNL     1      21.067  -0.805  53.781  1.00  0.00     0.215 C 
HETATM   19  N2  UNL     1      21.521   0.714  53.705  1.00  0.00    -0.364 N 
HETATM   20  N3  UNL     1      19.334   1.624  49.719  1.00  0.00    -0.296 NA
HETATM   21  C16 UNL     1      20.447   1.763  49.026  1.00  0.00     0.223 C 
HETATM   22  C17 UNL     1      21.892   1.879  48.674  1.00  0.00     0.196 C 
HETATM   23  N4  UNL     1      22.131   1.740  49.901  1.00  0.00    -0.291 NA
HETATM   24  C18 UNL     1      23.455   1.719  50.568  1.00  0.00     0.234 C 
HETATM   25  N5  UNL     1      23.953   3.013  50.698  1.00  0.00    -0.393 N 
HETATM   26  H17 UNL     1      21.760   1.543  54.281  1.00  0.00     0.162 HD
HETATM   27  H21 UNL     1      23.295   3.658  51.236  1.00  0.00     0.156 HD
ENDROOT
TORSDOF 0
ENDMDL
MODEL 5
REMARK VINA RESULT:      -8.5      3.310      6.326
REMARK  0 active torsions:
REMARK  status: ('A' for Active; 'I' for Inactive)
ROOT
HETATM    1  C1  UNL     1      22.569   2.501  47.883  1.00  0.00     0.032 C 
HETATM    2  C2  UNL     1      22.320   3.217  49.262  1.00  0.00     0.075 C 
HETATM    3  C3  UNL     1      20.965   3.914  48.965  1.00  0.00     0.036 C 
HETATM    4  C4  UNL     1      19.928   2.783  49.012  1.00  0.00    -0.011 A 
HETATM    5  O1  UNL     1      19.231   1.874  49.518  1.00  0.00     0.000 OA
HETATM    6  O2  UNL     1      19.130   1.742  49.591  1.00  0.00     0.000 OA
HETATM    7  C5  UNL     1      19.216   1.536  50.957  1.00  0.00     0.031 A 
HETATM    8  C6  UNL     1      18.987   0.171  51.374  1.00  0.00    -0.026 C 
HETATM    9  C7  UNL     1      20.229   0.173  51.814  1.00  0.00     0.011 C 
HETATM   10  C8  UNL     1      21.519   0.816  52.026  1.00  0.00     0.030 C 
HETATM   11  C9  UNL     1      22.391   0.001  52.660  1.00  0.00     0.135 C 
HETATM   12  N1  UNL     1      23.593  -0.403  53.246  1.00  0.00    -0.224 NA
HETATM   13  C10 UNL     1      24.684   0.149  53.589  1.00  0.00     0.076 C 
HETATM   14  C11 UNL     1      25.694  -0.821  54.213  1.00  0.00     0.083 C 
HETATM   15  C12 UNL     1      25.091  -0.925  55.723  1.00  0.00     0.101 C 
HETATM   16  C13 UNL     1      23.715  -1.095  55.329  1.00  0.00    -0.104 C 
HETATM   17  C14 UNL     1      22.688  -1.214  55.014  1.00  0.00    -0.087 C 
HETATM   18  C15 UNL     1      21.342  -1.361  54.572  1.00  0.00     0.215 C 
HETATM   19  N2  UNL     1      21.745  -1.295  53.039  1.00  0.00    -0.364 N 
HETATM   20  N3  UNL     1      25.484   1.371  53.684  1.00  0.00    -0.296 NA
HETATM   21  C16 UNL     1      24.958   2.424  53.090  1.00  0.00     0.223 C 
HETATM   22  C17 UNL     1      24.025   3.299  52.323  1.00  0.00     0.196 C 
HETATM   23  N4  UNL     1      23.281   2.290  52.212  1.00  0.00    -0.291 NA
HETATM   24  C18 UNL     1      21.969   2.205  51.525  1.00  0.00     0.234 C 
HETATM   25  N5  UNL     1      22.148   2.128  50.146  1.00  0.00    -0.393 N 
HETATM   26  H17 UNL     1      21.725  -1.825  52.146  1.00  0.00     0.162 HD
HETATM   27  H21 UNL     1      22.756   1.301  49.853  1.00  0.00     0.156 HD
ENDROOT
TORSDOF 0
ENDMDL
MODEL 6
REMARK VINA RESULT:      -8.1      7.471      9.495
REMARK  0 active torsions:
REMARK  status: ('A' for Active; 'I' for Inactive)
ROOT
HETATM    1  C1  UNL     1      35.050   6.167  48.864  1.00  0.00     0.032 C 
HETATM    2  C2  UNL     1      34.327   6.633  47.545  1.00  0.00     0.075 C 
HETATM    3  C3  UNL     1      34.184   5.270  46.818  1.00  0.00     0.036 C 
HETATM    4  C4  UNL     1      33.046   4.552  47.558  1.00  0.00    -0.011 A 
HETATM    5  O1  UNL     1      31.878   4.344  47.957  1.00  0.00     0.000 OA
HETATM    6  O2  UNL     1      31.709   4.313  48.016  1.00  0.00     0.000 OA
HETATM    7  C5  UNL     1      30.704   5.150  47.562  1.00  0.00     0.031 A 
HETATM    8  C6  UNL     1      29.609   5.331  48.489  1.00  0.00    -0.026 C 
HETATM    9  C7  UNL     1      29.948   6.603  48.527  1.00  0.00     0.011 C 
HETATM   10  C8  UNL     1      30.790   7.725  48.133  1.00  0.00     0.030 C 
HETATM   11  C9  UNL     1      30.391   8.882  48.706  1.00  0.00     0.135 C 
HETATM   12  N1  UNL     1      30.403  10.244  49.015  1.00  0.00    -0.224 NA
HETATM   13  C10 UNL     1      31.007  11.281  48.597  1.00  0.00     0.076 C 
HETATM   14  C11 UNL     1      30.609  12.563  49.335  1.00  0.00     0.083 C 
HETATM   15  C12 UNL     1      29.199  12.894  48.588  1.00  0.00     0.101 C 
HETATM   16  C13 UNL     1      28.676  11.552  48.645  1.00  0.00    -0.104 C 
HETATM   17  C14 UNL     1      28.303  10.539  48.691  1.00  0.00    -0.087 C 
HETATM   18  C15 UNL     1      27.840   9.194  48.756  1.00  0.00     0.215 C 
HETATM   19  N2  UNL     1      29.143   8.688  49.508  1.00  0.00    -0.364 N 
HETATM   20  N3  UNL     1      31.970  11.868  47.665  1.00  0.00    -0.296 NA
HETATM   21  C16 UNL     1      32.640  10.995  46.939  1.00  0.00     0.223 C 
HETATM   22  C17 UNL     1      33.130   9.708  46.366  1.00  0.00     0.196 C 
HETATM   23  N4  UNL     1      32.315   9.135  47.134  1.00  0.00    -0.291 NA
HETATM   24  C18 UNL     1      32.070   7.680  47.270  1.00  0.00     0.234 C 
HETATM   25  N5  UNL     1      33.078   7.086  48.027  1.00  0.00    -0.393 N 
HETATM   26  H17 UNL     1      29.484   8.242  50.381  1.00  0.00     0.162 HD
HETATM   27  H21 UNL     1      33.179   7.521  48.996  1.00  0.00     0.156 HD
ENDROOT
TORSDOF 0
ENDMDL
MODEL 7
REMARK VINA RESULT:      -7.8      3.371      4.985
REMARK  0 active torsions:
REMARK  status: ('A' for Active; 'I' for Inactive)
ROOT
HETATM    1  C1  UNL     1      24.714   2.856  53.396  1.00  0.00     0.032 C 
HETATM    2  C2  UNL     1      24.468   1.833  52.225  1.00  0.00     0.075 C 
HETATM    3  C3  UNL     1      25.469   0.717  52.626  1.00  0.00     0.036 C 
HETATM    4  C4  UNL     1      24.800   0.001  53.808  1.00  0.00    -0.011 A 
HETATM    5  O1  UNL     1      23.946  -0.694  54.405  1.00  0.00     0.000 OA
HETATM    6  O2  UNL     1      23.822  -0.794  54.492  1.00  0.00     0.000 OA
HETATM    7  C5  UNL     1      22.811  -1.372  53.745  1.00  0.00     0.031 A 
HETATM    8  C6  UNL     1      21.565  -1.549  54.458  1.00  0.00    -0.026 C 
HETATM    9  C7  UNL     1      21.033  -0.716  53.586  1.00  0.00     0.011 C 
HETATM   10  C8  UNL     1      21.117   0.166  52.430  1.00  0.00     0.030 C 
HETATM   11  C9  UNL     1      19.923   0.724  52.131  1.00  0.00     0.135 C 
HETATM   12  N1  UNL     1      19.001   1.517  51.445  1.00  0.00    -0.224 NA
HETATM   13  C10 UNL     1      18.979   2.179  50.361  1.00  0.00     0.076 C 
HETATM   14  C11 UNL     1      17.644   2.885  50.100  1.00  0.00     0.083 C 
HETATM   15  C12 UNL     1      16.767   1.633  49.534  1.00  0.00     0.101 C 
HETATM   16  C13 UNL     1      17.172   0.691  50.547  1.00  0.00    -0.104 C 
HETATM   17  C14 UNL     1      17.493  -0.003  51.311  1.00  0.00    -0.087 C 
HETATM   18  C15 UNL     1      17.939  -0.899  52.324  1.00  0.00     0.215 C 
HETATM   19  N2  UNL     1      18.842   0.201  53.024  1.00  0.00    -0.364 N 
HETATM   20  N3  UNL     1      19.680   2.607  49.151  1.00  0.00    -0.296 NA
HETATM   21  C16 UNL     1      20.957   2.284  49.108  1.00  0.00     0.223 C 
HETATM   22  C17 UNL     1      22.293   1.732  49.480  1.00  0.00     0.196 C 
HETATM   23  N4  UNL     1      21.751   1.323  50.540  1.00  0.00    -0.291 NA
HETATM   24  C18 UNL     1      22.386   0.569  51.647  1.00  0.00     0.234 C 
HETATM   25  N5  UNL     1      23.134   1.426  52.452  1.00  0.00    -0.393 N 
HETATM   26  H17 UNL     1      18.990   0.720  53.911  1.00  0.00     0.162 HD
HETATM   27  H21 UNL     1      22.555   2.226  52.854  1.00  0.00     0.156 HD
ENDROOT
TORSDOF 0
ENDMDL
MODEL 8
REMARK VINA RESULT:      -7.7      3.349      6.698
REMARK  0 active torsions:
REMARK  status: ('A' for Active; 'I' for Inactive)
ROOT
HETATM    1  C1  UNL     1      19.968   5.983  49.194  1.00  0.00     0.032 C 
HETATM    2  C2  UNL     1      20.726   4.797  48.489  1.00  0.00     0.075 C 
HETATM    3  C3  UNL     1      21.337   5.549  47.276  1.00  0.00     0.036 C 
HETATM    4  C4  UNL     1      22.503   6.355  47.866  1.00  0.00    -0.011 A 
HETATM    5  O1  UNL     1      23.612   6.551  48.414  1.00  0.00     0.000 OA
HETATM    6  O2  UNL     1      23.773   6.580  48.494  1.00  0.00     0.000 OA
HETATM    7  C5  UNL     1      24.571   5.483  48.765  1.00  0.00     0.031 A 
HETATM    8  C6  UNL     1      25.427   5.635  49.921  1.00  0.00    -0.026 C 
HETATM    9  C7  UNL     1      24.757   4.636  50.458  1.00  0.00     0.011 C 
HETATM   10  C8  UNL     1      23.711   3.621  50.427  1.00  0.00     0.030 C 
HETATM   11  C9  UNL     1      23.695   2.878  51.555  1.00  0.00     0.135 C 
HETATM   12  N1  UNL     1      23.272   1.891  52.448  1.00  0.00    -0.224 NA
HETATM   13  C10 UNL     1      22.480   0.898  52.420  1.00  0.00     0.076 C 
HETATM   14  C11 UNL     1      22.404   0.134  53.746  1.00  0.00     0.083 C 
HETATM   15  C12 UNL     1      23.768  -0.752  53.641  1.00  0.00     0.101 C 
HETATM   16  C13 UNL     1      24.618   0.326  53.201  1.00  0.00    -0.104 C 
HETATM   17  C14 UNL     1      25.239   1.144  52.865  1.00  0.00    -0.087 C 
HETATM   18  C15 UNL     1      26.031   2.238  52.415  1.00  0.00     0.215 C 
HETATM   19  N2  UNL     1      24.816   3.257  52.470  1.00  0.00    -0.364 N 
HETATM   20  N3  UNL     1      21.544   0.075  51.653  1.00  0.00    -0.296 NA
HETATM   21  C16 UNL     1      21.249   0.543  50.456  1.00  0.00     0.223 C 
HETATM   22  C17 UNL     1      21.214   1.410  49.242  1.00  0.00     0.196 C 
HETATM   23  N4  UNL     1      22.030   2.159  49.839  1.00  0.00    -0.291 NA
HETATM   24  C18 UNL     1      22.634   3.417  49.340  1.00  0.00     0.234 C 
HETATM   25  N5  UNL     1      21.722   4.466  49.436  1.00  0.00    -0.393 N 
HETATM   26  H17 UNL     1      24.482   4.136  52.911  1.00  0.00     0.162 HD
HETATM   27  H21 UNL     1      21.365   4.614  50.430  1.00  0.00     0.156 HD
ENDROOT
TORSDOF 0
ENDMDL
MODEL 9
REMARK VINA RESULT:      -7.4      3.967      6.625
REMARK  0 active torsions:
REMARK  status: ('A' for Active; 'I' for Inactive)
ROOT
HETATM    1  C1  UNL     1      26.106   7.176  47.931  1.00  0.00     0.032 C 
HETATM    2  C2  UNL     1      24.752   7.312  48.723  1.00  0.00     0.075 C 
HETATM    3  C3  UNL     1      24.013   8.336  47.822  1.00  0.00     0.036 C 
HETATM    4  C4  UNL     1      23.573   7.527  46.593  1.00  0.00    -0.011 A 
HETATM    5  O1  UNL     1      22.943   6.660  45.946  1.00  0.00     0.000 OA
HETATM    6  O2  UNL     1      22.852   6.534  45.852  1.00  0.00     0.000 OA
HETATM    7  C5  UNL     1      21.900   5.783  46.519  1.00  0.00     0.031 A 
HETATM    8  C6  UNL     1      21.718   4.446  45.998  1.00  0.00    -0.026 C 
HETATM    9  C7  UNL     1      22.138   4.011  47.168  1.00  0.00     0.011 C 
HETATM   10  C8  UNL     1      22.633   4.227  48.521  1.00  0.00     0.030 C 
HETATM   11  C9  UNL     1      22.844   3.063  49.174  1.00  0.00     0.135 C 
HETATM   12  N1  UNL     1      23.210   2.216  50.222  1.00  0.00    -0.224 NA
HETATM   13  C10 UNL     1      23.501   2.341  51.452  1.00  0.00     0.076 C 
HETATM   14  C11 UNL     1      23.836   1.014  52.142  1.00  0.00     0.083 C 
HETATM   15  C12 UNL     1      22.332   0.439  52.397  1.00  0.00     0.101 C 
HETATM   16  C13 UNL     1      21.829   0.735  51.079  1.00  0.00    -0.104 C 
HETATM   17  C14 UNL     1      21.468   0.971  50.088  1.00  0.00    -0.087 C 
HETATM   18  C15 UNL     1      21.015   1.301  48.779  1.00  0.00     0.215 C 
HETATM   19  N2  UNL     1      22.422   1.892  48.344  1.00  0.00    -0.364 N 
HETATM   20  N3  UNL     1      23.669   3.223  52.607  1.00  0.00    -0.296 NA
HETATM   21  C16 UNL     1      23.590   4.511  52.335  1.00  0.00     0.223 C 
HETATM   22  C17 UNL     1      23.432   5.795  51.593  1.00  0.00     0.196 C 
HETATM   23  N4  UNL     1      23.267   5.097  50.559  1.00  0.00    -0.291 NA
HETATM   24  C18 UNL     1      23.010   5.572  49.179  1.00  0.00     0.234 C 
HETATM   25  N5  UNL     1      24.192   6.021  48.592  1.00  0.00    -0.393 N 
HETATM   26  H17 UNL     1      23.200   1.783  47.666  1.00  0.00     0.162 HD
HETATM   27  H21 UNL     1      24.954   5.275  48.574  1.00  0.00     0.156 HD
ENDROOT
TORSDOF 0
ENDMDL
