MODEL 1
REMARK VINA RESULT:      -8.5      0.000      0.000
REMARK  4 active torsions:
REMARK  status: ('A' for Active; 'I' for Inactive)
REMARK    1  A    between atoms: N1_1  and  C1_2 
REMARK    2  A    between atoms: C1_2  and  O1_3 
REMARK    3  A    between atoms: O1_3  and  C2_4 
REMARK    4  A    between atoms: C5_9  and  C6_10 
ROOT
HETATM    1  C2  UNL     1      25.800   5.961  49.284  1.00  0.00     0.075 C 
HETATM    2  C3  UNL     1      25.083   5.054  49.877  1.00  0.00     0.069 C 
HETATM    3  C4  UNL     1      24.341   3.965  50.496  1.00  0.00     0.091 A 
HETATM    4  N2  UNL     1      24.773   3.676  51.675  1.00  0.00    -0.174 NA
HETATM    5  N3  UNL     1      24.211   2.660  52.455  1.00  0.00    -0.277 N 
HETATM    6  C5  UNL     1      23.126   1.975  51.842  1.00  0.00     0.061 A 
HETATM    7  C12 UNL     1      22.673   2.257  50.641  1.00  0.00     0.047 A 
HETATM    8  C13 UNL     1      23.241   3.301  49.826  1.00  0.00     0.018 A 
HETATM    9  C14 UNL     1      22.831   3.672  48.631  1.00  0.00     0.148 C 
HETATM   10  O2  UNL     1      23.315   4.690  47.833  1.00  0.00    -0.362 OA
HETATM   11  C15 UNL     1      22.539   5.891  47.852  1.00  0.00     0.176 C 
HETATM   12  C16 UNL     1      23.050   6.928  46.909  1.00  0.00     0.046 C 
HETATM   13  C17 UNL     1      24.481   7.357  47.265  1.00  0.00     0.120 C 
HETATM   14  N4  UNL     1      24.495   7.872  48.578  1.00  0.00    -0.398 N 
HETATM   15  C18 UNL     1      24.330   9.281  48.623  1.00  0.00     0.144 C 
HETATM   16  C19 UNL     1      25.570  10.073  48.958  1.00  0.00     0.187 C 
HETATM   17  O3  UNL     1      26.246   9.526  50.048  1.00  0.00    -0.387 OA
HETATM   18  C20 UNL     1      26.661   8.240  49.725  1.00  0.00     0.199 C 
HETATM   19  C21 UNL     1      25.428   7.395  49.510  1.00  0.00     0.160 C 
HETATM   20  H6  UNL     1      24.641   2.518  53.388  1.00  0.00     0.189 HD
ENDROOT
BRANCH   6  21
HETATM   21  C6  UNL     1      22.524   0.911  52.626  1.00  0.00    -0.006 A 
HETATM   22  C7  UNL     1      23.229   0.126  53.514  1.00  0.00     0.017 A 
HETATM   23  C8  UNL     1      22.681  -0.893  54.274  1.00  0.00     0.045 A 
HETATM   24  C9  UNL     1      21.340  -1.155  54.146  1.00  0.00     0.138 A 
HETATM   25  F1  UNL     1      20.793  -2.139  54.881  1.00  0.00    -0.204 F 
HETATM   26  C10 UNL     1      20.577  -0.409  53.275  1.00  0.00     0.073 A 
HETATM   27 CL1  UNL     1      18.861  -0.788  53.155  1.00  0.00    -0.081 Cl
HETATM   28  C11 UNL     1      21.186   0.586  52.553  1.00  0.00     0.040 A 
ENDBRANCH   6  21
BRANCH   1  29
HETATM   29  O1  UNL     1      26.927   6.045  48.409  1.00  0.00    -0.324 OA
BRANCH  29  30
HETATM   30  C1  UNL     1      27.995   5.131  48.582  1.00  0.00     0.441 C 
BRANCH  30  31
HETATM   31  N1  UNL     1      29.225   5.751  48.957  1.00  0.00     0.101 N 
HETATM   32  H1  UNL     1      29.979   5.071  49.227  1.00  0.00     0.315 HD
HETATM   33  H2  UNL     1      29.594   6.296  48.153  1.00  0.00     0.315 HD
ENDBRANCH  30  31
ENDBRANCH  29  30
ENDBRANCH   1  29
TORSDOF 4
ENDMDL
MODEL 2
REMARK VINA RESULT:      -8.5      4.403      6.259
REMARK  4 active torsions:
REMARK  status: ('A' for Active; 'I' for Inactive)
REMARK    1  A    between atoms: N1_1  and  C1_2 
REMARK    2  A    between atoms: C1_2  and  O1_3 
REMARK    3  A    between atoms: O1_3  and  C2_4 
REMARK    4  A    between atoms: C5_9  and  C6_10 
ROOT
HETATM    1  C2  UNL     1      21.403   4.201  51.098  1.00  0.00     0.075 C 
HETATM    2  C3  UNL     1      22.493   3.529  51.320  1.00  0.00     0.069 C 
HETATM    3  C4  UNL     1      23.760   2.868  51.596  1.00  0.00     0.091 A 
HETATM    4  N2  UNL     1      23.823   2.395  52.794  1.00  0.00    -0.174 NA
HETATM    5  N3  UNL     1      24.950   1.722  53.279  1.00  0.00    -0.277 N 
HETATM    6  C5  UNL     1      26.015   1.601  52.344  1.00  0.00     0.061 A 
HETATM    7  C12 UNL     1      25.966   2.076  51.120  1.00  0.00     0.047 A 
HETATM    8  C13 UNL     1      24.813   2.771  50.605  1.00  0.00     0.018 A 
HETATM    9  C14 UNL     1      24.666   3.249  49.388  1.00  0.00     0.148 C 
HETATM   10  O2  UNL     1      23.568   3.882  48.838  1.00  0.00    -0.362 OA
HETATM   11  C15 UNL     1      22.750   3.056  48.006  1.00  0.00     0.176 C 
HETATM   12  C16 UNL     1      21.629   3.806  47.366  1.00  0.00     0.046 C 
HETATM   13  C17 UNL     1      20.678   4.401  48.415  1.00  0.00     0.120 C 
HETATM   14  N4  UNL     1      20.153   3.359  49.205  1.00  0.00    -0.398 N 
HETATM   15  C18 UNL     1      18.910   2.869  48.724  1.00  0.00     0.144 C 
HETATM   16  C19 UNL     1      17.696   3.264  49.530  1.00  0.00     0.187 C 
HETATM   17  O3  UNL     1      17.910   3.080  50.896  1.00  0.00    -0.387 OA
HETATM   18  C20 UNL     1      18.953   3.901  51.306  1.00  0.00     0.199 C 
HETATM   19  C21 UNL     1      20.209   3.440  50.604  1.00  0.00     0.160 C 
HETATM   20  H6  UNL     1      24.887   1.387  54.258  1.00  0.00     0.189 HD
ENDROOT
BRANCH   6  21
HETATM   21  C6  UNL     1      27.200   0.910  52.820  1.00  0.00    -0.006 A 
HETATM   22  C7  UNL     1      28.270   1.550  53.409  1.00  0.00     0.017 A 
HETATM   23  C8  UNL     1      29.411   0.917  53.872  1.00  0.00     0.045 A 
HETATM   24  C9  UNL     1      29.500  -0.447  53.743  1.00  0.00     0.138 A 
HETATM   25  F1  UNL     1      30.600  -1.076  54.192  1.00  0.00    -0.204 F 
HETATM   26  C10 UNL     1      28.466  -1.148  53.162  1.00  0.00     0.073 A 
HETATM   27 CL1  UNL     1      28.633  -2.896  53.027  1.00  0.00    -0.081 Cl
HETATM   28  C11 UNL     1      27.365  -0.456  52.726  1.00  0.00     0.040 A 
ENDBRANCH   6  21
BRANCH   1  29
HETATM   29  O1  UNL     1      20.928   5.546  51.178  1.00  0.00    -0.324 OA
BRANCH  29  30
HETATM   30  C1  UNL     1      21.871   6.604  51.168  1.00  0.00     0.441 C 
BRANCH  30  31
HETATM   31  N1  UNL     1      22.639   6.675  49.967  1.00  0.00     0.101 N 
HETATM   32  H1  UNL     1      22.073   6.544  49.092  1.00  0.00     0.315 HD
HETATM   33  H2  UNL     1      23.080   7.613  49.896  1.00  0.00     0.315 HD
ENDBRANCH  30  31
ENDBRANCH  29  30
ENDBRANCH   1  29
TORSDOF 4
ENDMDL
MODEL 3
REMARK VINA RESULT:      -8.4      3.850      4.915
REMARK  4 active torsions:
REMARK  status: ('A' for Active; 'I' for Inactive)
REMARK    1  A    between atoms: N1_1  and  C1_2 
REMARK    2  A    between atoms: C1_2  and  O1_3 
REMARK    3  A    between atoms: O1_3  and  C2_4 
REMARK    4  A    between atoms: C5_9  and  C6_10 
ROOT
HETATM    1  C2  UNL     1      22.775   5.893  48.526  1.00  0.00     0.075 C 
HETATM    2  C3  UNL     1      23.440   5.073  49.284  1.00  0.00     0.069 C 
HETATM    3  C4  UNL     1      24.196   4.092  50.050  1.00  0.00     0.091 A 
HETATM    4  N2  UNL     1      25.457   4.352  50.083  1.00  0.00    -0.174 NA
HETATM    5  N3  UNL     1      26.375   3.541  50.760  1.00  0.00    -0.277 N 
HETATM    6  C5  UNL     1      25.803   2.411  51.406  1.00  0.00     0.061 A 
HETATM    7  C12 UNL     1      24.519   2.132  51.382  1.00  0.00     0.047 A 
HETATM    8  C13 UNL     1      23.561   2.958  50.690  1.00  0.00     0.018 A 
HETATM    9  C14 UNL     1      22.258   2.772  50.642  1.00  0.00     0.148 C 
HETATM   10  O2  UNL     1      21.300   3.557  50.030  1.00  0.00    -0.362 OA
HETATM   11  C15 UNL     1      20.577   4.421  50.910  1.00  0.00     0.176 C 
HETATM   12  C16 UNL     1      19.494   5.181  50.219  1.00  0.00     0.046 C 
HETATM   13  C17 UNL     1      20.060   6.093  49.121  1.00  0.00     0.120 C 
HETATM   14  N4  UNL     1      20.972   7.000  49.700  1.00  0.00    -0.398 N 
HETATM   15  C18 UNL     1      20.372   8.234  50.065  1.00  0.00     0.144 C 
HETATM   16  C19 UNL     1      20.709   9.411  49.183  1.00  0.00     0.187 C 
HETATM   17  O3  UNL     1      22.078   9.478  48.923  1.00  0.00    -0.387 OA
HETATM   18  C20 UNL     1      22.466   8.333  48.239  1.00  0.00     0.199 C 
HETATM   19  C21 UNL     1      22.255   7.151  49.154  1.00  0.00     0.160 C 
HETATM   20  H6  UNL     1      27.364   3.849  50.717  1.00  0.00     0.189 HD
ENDROOT
BRANCH   6  21
HETATM   21  C6  UNL     1      26.732   1.548  52.113  1.00  0.00    -0.006 A 
HETATM   22  C7  UNL     1      27.785   2.018  52.868  1.00  0.00     0.017 A 
HETATM   23  C8  UNL     1      28.684   1.219  53.553  1.00  0.00     0.045 A 
HETATM   24  C9  UNL     1      28.532  -0.143  53.484  1.00  0.00     0.138 A 
HETATM   25  F1  UNL     1      29.396  -0.932  54.147  1.00  0.00    -0.204 F 
HETATM   26  C10 UNL     1      27.501  -0.680  52.745  1.00  0.00     0.073 A 
HETATM   27 CL1  UNL     1      27.351  -2.435  52.697  1.00  0.00    -0.081 Cl
HETATM   28  C11 UNL     1      26.646   0.171  52.093  1.00  0.00     0.040 A 
ENDBRANCH   6  21
BRANCH   1  29
HETATM   29  O1  UNL     1      22.338   5.996  47.169  1.00  0.00    -0.324 OA
BRANCH  29  30
HETATM   30  C1  UNL     1      22.237   4.814  46.393  1.00  0.00     0.441 C 
BRANCH  30  31
HETATM   31  N1  UNL     1      21.226   3.915  46.848  1.00  0.00     0.101 N 
HETATM   32  H1  UNL     1      20.427   4.388  47.339  1.00  0.00     0.315 HD
HETATM   33  H2  UNL     1      20.818   3.417  46.033  1.00  0.00     0.315 HD
ENDBRANCH  30  31
ENDBRANCH  29  30
ENDBRANCH   1  29
TORSDOF 4
ENDMDL
MODEL 4
REMARK VINA RESULT:      -8.3      3.012      4.669
REMARK  4 active torsions:
REMARK  status: ('A' for Active; 'I' for Inactive)
REMARK    1  A    between atoms: N1_1  and  C1_2 
REMARK    2  A    between atoms: C1_2  and  O1_3 
REMARK    3  A    between atoms: O1_3  and  C2_4 
REMARK    4  A    between atoms: C5_9  and  C6_10 
ROOT
HETATM    1  C2  UNL     1      28.812   6.978  47.600  1.00  0.00     0.075 C 
HETATM    2  C3  UNL     1      27.987   6.239  48.279  1.00  0.00     0.069 C 
HETATM    3  C4  UNL     1      27.003   5.404  48.953  1.00  0.00     0.091 A 
HETATM    4  N2  UNL     1      27.296   4.150  48.903  1.00  0.00    -0.174 NA
HETATM    5  N3  UNL     1      26.489   3.165  49.483  1.00  0.00    -0.277 N 
HETATM    6  C5  UNL     1      25.323   3.660  50.131  1.00  0.00     0.061 A 
HETATM    7  C12 UNL     1      25.011   4.935  50.192  1.00  0.00     0.047 A 
HETATM    8  C13 UNL     1      25.832   5.961  49.600  1.00  0.00     0.018 A 
HETATM    9  C14 UNL     1      25.613   7.259  49.642  1.00  0.00     0.148 C 
HETATM   10  O2  UNL     1      26.389   8.279  49.128  1.00  0.00    -0.362 OA
HETATM   11  C15 UNL     1      27.205   8.956  50.088  1.00  0.00     0.176 C 
HETATM   12  C16 UNL     1      27.957  10.105  49.504  1.00  0.00     0.046 C 
HETATM   13  C17 UNL     1      28.919   9.645  48.399  1.00  0.00     0.120 C 
HETATM   14  N4  UNL     1      29.831   8.716  48.939  1.00  0.00    -0.398 N 
HETATM   15  C18 UNL     1      31.036   9.318  49.389  1.00  0.00     0.144 C 
HETATM   16  C19 UNL     1      32.249   9.076  48.524  1.00  0.00     0.187 C 
HETATM   17  O3  UNL     1      32.362   7.732  48.168  1.00  0.00    -0.387 OA
HETATM   18  C20 UNL     1      31.250   7.367  47.419  1.00  0.00     0.199 C 
HETATM   19  C21 UNL     1      30.035   7.481  48.306  1.00  0.00     0.160 C 
HETATM   20  H6  UNL     1      26.825   2.189  49.379  1.00  0.00     0.189 HD
ENDROOT
BRANCH   6  21
HETATM   21  C6  UNL     1      24.464   2.660  50.738  1.00  0.00    -0.006 A 
HETATM   22  C7  UNL     1      23.177   2.403  50.316  1.00  0.00     0.017 A 
HETATM   23  C8  UNL     1      22.336   1.455  50.876  1.00  0.00     0.045 A 
HETATM   24  C9  UNL     1      22.802   0.710  51.930  1.00  0.00     0.138 A 
HETATM   25  F1  UNL     1      21.998  -0.216  52.481  1.00  0.00    -0.204 F 
HETATM   26  C10 UNL     1      24.079   0.917  52.403  1.00  0.00     0.073 A 
HETATM   27 CL1  UNL     1      24.624  -0.072  53.755  1.00  0.00    -0.081 Cl
HETATM   28  C11 UNL     1      24.857   1.872  51.800  1.00  0.00     0.040 A 
ENDBRANCH   6  21
BRANCH   1  29
HETATM   29  O1  UNL     1      28.946   7.516  46.283  1.00  0.00    -0.324 OA
BRANCH  29  30
HETATM   30  C1  UNL     1      27.820   8.129  45.678  1.00  0.00     0.441 C 
BRANCH  30  31
HETATM   31  N1  UNL     1      28.014   8.450  44.301  1.00  0.00     0.101 N 
HETATM   32  H1  UNL     1      27.185   8.232  43.693  1.00  0.00     0.315 HD
HETATM   33  H2  UNL     1      28.186   9.471  44.207  1.00  0.00     0.315 HD
ENDBRANCH  30  31
ENDBRANCH  29  30
ENDBRANCH   1  29
TORSDOF 4
ENDMDL
MODEL 5
REMARK VINA RESULT:      -8.1      5.177      8.842
REMARK  4 active torsions:
REMARK  status: ('A' for Active; 'I' for Inactive)
REMARK    1  A    between atoms: N1_1  and  C1_2 
REMARK    2  A    between atoms: C1_2  and  O1_3 
REMARK    3  A    between atoms: O1_3  and  C2_4 
REMARK    4  A    between atoms: C5_9  and  C6_10 
ROOT
HETATM    1  C2  UNL     1      23.764   3.360  51.025  1.00  0.00     0.075 C 
HETATM    2  C3  UNL     1      24.652   4.018  50.342  1.00  0.00     0.069 C 
HETATM    3  C4  UNL     1      25.695   4.778  49.669  1.00  0.00     0.091 A 
HETATM    4  N2  UNL     1      26.673   4.038  49.272  1.00  0.00    -0.174 NA
HETATM    5  N3  UNL     1      27.787   4.556  48.603  1.00  0.00    -0.277 N 
HETATM    6  C5  UNL     1      27.751   5.963  48.397  1.00  0.00     0.061 A 
HETATM    7  C12 UNL     1      26.762   6.732  48.794  1.00  0.00     0.047 A 
HETATM    8  C13 UNL     1      25.608   6.213  49.484  1.00  0.00     0.018 A 
HETATM    9  C14 UNL     1      24.561   6.902  49.886  1.00  0.00     0.148 C 
HETATM   10  O2  UNL     1      23.417   6.444  50.510  1.00  0.00    -0.362 OA
HETATM   11  C15 UNL     1      22.283   6.294  49.654  1.00  0.00     0.176 C 
HETATM   12  C16 UNL     1      21.050   5.883  50.388  1.00  0.00     0.046 C 
HETATM   13  C17 UNL     1      21.231   4.520  51.072  1.00  0.00     0.120 C 
HETATM   14  N4  UNL     1      21.539   3.551  50.095  1.00  0.00    -0.398 N 
HETATM   15  C18 UNL     1      20.391   2.871  49.607  1.00  0.00     0.144 C 
HETATM   16  C19 UNL     1      20.224   1.448  50.082  1.00  0.00     0.187 C 
HETATM   17  O3  UNL     1      21.418   0.733  49.980  1.00  0.00    -0.387 OA
HETATM   18  C20 UNL     1      22.371   1.325  50.799  1.00  0.00     0.199 C 
HETATM   19  C21 UNL     1      22.648   2.709  50.264  1.00  0.00     0.160 C 
HETATM   20  H6  UNL     1      28.511   3.866  48.333  1.00  0.00     0.189 HD
ENDROOT
BRANCH   6  21
HETATM   21  C6  UNL     1      28.897   6.532  47.709  1.00  0.00    -0.006 A 
HETATM   22  C7  UNL     1      28.816   7.616  46.862  1.00  0.00     0.017 A 
HETATM   23  C8  UNL     1      29.890   8.179  46.194  1.00  0.00     0.045 A 
HETATM   24  C9  UNL     1      31.134   7.628  46.377  1.00  0.00     0.138 A 
HETATM   25  F1  UNL     1      32.187   8.166  45.738  1.00  0.00    -0.204 F 
HETATM   26  C10 UNL     1      31.285   6.541  47.210  1.00  0.00     0.073 A 
HETATM   27 CL1  UNL     1      32.905   5.879  47.410  1.00  0.00    -0.081 Cl
HETATM   28  C11 UNL     1      30.177   6.036  47.840  1.00  0.00     0.040 A 
ENDBRANCH   6  21
BRANCH   1  29
HETATM   29  O1  UNL     1      23.478   3.023  52.384  1.00  0.00    -0.324 OA
BRANCH  29  30
HETATM   30  C1  UNL     1      24.117   3.754  53.417  1.00  0.00     0.441 C 
BRANCH  30  31
HETATM   31  N1  UNL     1      23.835   5.153  53.387  1.00  0.00     0.101 N 
HETATM   32  H1  UNL     1      22.904   5.390  52.962  1.00  0.00     0.315 HD
HETATM   33  H2  UNL     1      23.817   5.521  54.359  1.00  0.00     0.315 HD
ENDBRANCH  30  31
ENDBRANCH  29  30
ENDBRANCH   1  29
TORSDOF 4
ENDMDL
MODEL 6
REMARK VINA RESULT:      -8.0      5.570      9.153
REMARK  4 active torsions:
REMARK  status: ('A' for Active; 'I' for Inactive)
REMARK    1  A    between atoms: N1_1  and  C1_2 
REMARK    2  A    between atoms: C1_2  and  O1_3 
REMARK    3  A    between atoms: O1_3  and  C2_4 
REMARK    4  A    between atoms: C5_9  and  C6_10 
ROOT
HETATM    1  C2  UNL     1      23.767   4.322  50.229  1.00  0.00     0.075 C 
HETATM    2  C3  UNL     1      24.552   5.333  50.003  1.00  0.00     0.069 C 
HETATM    3  C4  UNL     1      25.466   6.456  49.849  1.00  0.00     0.091 A 
HETATM    4  N2  UNL     1      26.605   6.106  49.360  1.00  0.00    -0.174 NA
HETATM    5  N3  UNL     1      27.638   7.022  49.129  1.00  0.00    -0.277 N 
HETATM    6  C5  UNL     1      27.326   8.366  49.477  1.00  0.00     0.061 A 
HETATM    7  C12 UNL     1      26.169   8.738  49.976  1.00  0.00     0.047 A 
HETATM    8  C13 UNL     1      25.096   7.808  50.219  1.00  0.00     0.018 A 
HETATM    9  C14 UNL     1      23.899   8.098  50.683  1.00  0.00     0.148 C 
HETATM   10  O2  UNL     1      22.828   7.250  50.892  1.00  0.00    -0.362 OA
HETATM   11  C15 UNL     1      21.825   7.285  49.874  1.00  0.00     0.176 C 
HETATM   12  C16 UNL     1      20.649   6.421  50.187  1.00  0.00     0.046 C 
HETATM   13  C17 UNL     1      21.053   4.945  50.313  1.00  0.00     0.120 C 
HETATM   14  N4  UNL     1      21.636   4.521  49.102  1.00  0.00    -0.398 N 
HETATM   15  C18 UNL     1      20.701   3.928  48.214  1.00  0.00     0.144 C 
HETATM   16  C19 UNL     1      20.796   2.428  48.071  1.00  0.00     0.187 C 
HETATM   17  O3  UNL     1      22.116   2.015  47.895  1.00  0.00    -0.387 OA
HETATM   18  C20 UNL     1      22.854   2.364  49.019  1.00  0.00     0.199 C 
HETATM   19  C21 UNL     1      22.879   3.871  49.109  1.00  0.00     0.160 C 
HETATM   20  H6  UNL     1      28.510   6.626  48.733  1.00  0.00     0.189 HD
ENDROOT
BRANCH   6  21
HETATM   21  C6  UNL     1      28.381   9.339  49.253  1.00  0.00    -0.006 A 
HETATM   22  C7  UNL     1      29.722   9.021  49.247  1.00  0.00     0.017 A 
HETATM   23  C8  UNL     1      30.747   9.927  49.035  1.00  0.00     0.045 A 
HETATM   24  C9  UNL     1      30.422  11.242  48.814  1.00  0.00     0.138 A 
HETATM   25  F1  UNL     1      31.407  12.132  48.603  1.00  0.00    -0.204 F 
HETATM   26  C10 UNL     1      29.099  11.628  48.808  1.00  0.00     0.073 A 
HETATM   27 CL1  UNL     1      28.741  13.327  48.514  1.00  0.00    -0.081 Cl
HETATM   28  C11 UNL     1      28.135  10.676  49.024  1.00  0.00     0.040 A 
ENDBRANCH   6  21
BRANCH   1  29
HETATM   29  O1  UNL     1      23.447   3.419  51.289  1.00  0.00    -0.324 OA
BRANCH  29  30
HETATM   30  C1  UNL     1      23.872   3.733  52.604  1.00  0.00     0.441 C 
BRANCH  30  31
HETATM   31  N1  UNL     1      23.507   5.047  53.026  1.00  0.00     0.101 N 
HETATM   32  H1  UNL     1      24.251   5.537  53.583  1.00  0.00     0.315 HD
HETATM   33  H2  UNL     1      23.327   5.639  52.191  1.00  0.00     0.315 HD
ENDBRANCH  30  31
ENDBRANCH  29  30
ENDBRANCH   1  29
TORSDOF 4
ENDMDL
MODEL 7
REMARK VINA RESULT:      -7.9      6.235      9.108
REMARK  4 active torsions:
REMARK  status: ('A' for Active; 'I' for Inactive)
REMARK    1  A    between atoms: N1_1  and  C1_2 
REMARK    2  A    between atoms: C1_2  and  O1_3 
REMARK    3  A    between atoms: O1_3  and  C2_4 
REMARK    4  A    between atoms: C5_9  and  C6_10 
ROOT
HETATM    1  C2  UNL     1      16.252   3.099  51.464  1.00  0.00     0.075 C 
HETATM    2  C3  UNL     1      17.425   2.585  51.682  1.00  0.00     0.069 C 
HETATM    3  C4  UNL     1      18.765   2.035  51.828  1.00  0.00     0.091 A 
HETATM    4  N2  UNL     1      19.597   2.881  52.333  1.00  0.00    -0.174 NA
HETATM    5  N3  UNL     1      20.942   2.569  52.559  1.00  0.00    -0.277 N 
HETATM    6  C5  UNL     1      21.314   1.247  52.189  1.00  0.00     0.061 A 
HETATM    7  C12 UNL     1      20.479   0.373  51.675  1.00  0.00     0.047 A 
HETATM    8  C13 UNL     1      19.090   0.678  51.436  1.00  0.00     0.018 A 
HETATM    9  C14 UNL     1      18.180  -0.142  50.957  1.00  0.00     0.148 C 
HETATM   10  O2  UNL     1      16.834   0.091  50.751  1.00  0.00    -0.362 OA
HETATM   11  C15 UNL     1      15.970  -0.439  51.759  1.00  0.00     0.176 C 
HETATM   12  C16 UNL     1      14.523  -0.240  51.449  1.00  0.00     0.046 C 
HETATM   13  C17 UNL     1      14.170   1.251  51.347  1.00  0.00     0.120 C 
HETATM   14  N4  UNL     1      14.477   1.882  52.569  1.00  0.00    -0.398 N 
HETATM   15  C18 UNL     1      13.370   1.939  53.457  1.00  0.00     0.144 C 
HETATM   16  C19 UNL     1      12.734   3.297  53.622  1.00  0.00     0.187 C 
HETATM   17  O3  UNL     1      13.694   4.290  53.817  1.00  0.00    -0.387 OA
HETATM   18  C20 UNL     1      14.510   4.357  52.694  1.00  0.00     0.199 C 
HETATM   19  C21 UNL     1      15.254   3.049  52.582  1.00  0.00     0.160 C 
HETATM   20  H6  UNL     1      21.517   3.329  52.969  1.00  0.00     0.189 HD
ENDROOT
BRANCH   6  21
HETATM   21  C6  UNL     1      22.706   0.896  52.409  1.00  0.00    -0.006 A 
HETATM   22  C7  UNL     1      23.111  -0.134  53.231  1.00  0.00     0.017 A 
HETATM   23  C8  UNL     1      24.430  -0.491  53.457  1.00  0.00     0.045 A 
HETATM   24  C9  UNL     1      25.418   0.223  52.827  1.00  0.00     0.138 A 
HETATM   25  F1  UNL     1      26.702  -0.115  53.035  1.00  0.00    -0.204 F 
HETATM   26  C10 UNL     1      25.082   1.267  51.993  1.00  0.00     0.073 A 
HETATM   27 CL1  UNL     1      26.391   2.144  51.207  1.00  0.00    -0.081 Cl
HETATM   28  C11 UNL     1      23.755   1.565  51.814  1.00  0.00     0.040 A 
ENDBRANCH   6  21
BRANCH   1  29
HETATM   29  O1  UNL     1      15.538   3.754  50.414  1.00  0.00    -0.324 OA
BRANCH  29  30
HETATM   30  C1  UNL     1      16.173   3.918  49.157  1.00  0.00     0.441 C 
BRANCH  30  31
HETATM   31  N1  UNL     1      16.956   5.107  49.062  1.00  0.00     0.101 N 
HETATM   32  H1  UNL     1      17.909   4.956  48.646  1.00  0.00     0.315 HD
HETATM   33  H2  UNL     1      16.471   5.790  48.446  1.00  0.00     0.315 HD
ENDBRANCH  30  31
ENDBRANCH  29  30
ENDBRANCH   1  29
TORSDOF 4
ENDMDL
MODEL 8
REMARK VINA RESULT:      -7.6      3.555      5.216
REMARK  4 active torsions:
REMARK  status: ('A' for Active; 'I' for Inactive)
REMARK    1  A    between atoms: N1_1  and  C1_2 
REMARK    2  A    between atoms: C1_2  and  O1_3 
REMARK    3  A    between atoms: O1_3  and  C2_4 
REMARK    4  A    between atoms: C5_9  and  C6_10 
ROOT
HETATM    1  C2  UNL     1      28.992   8.312  46.781  1.00  0.00     0.075 C 
HETATM    2  C3  UNL     1      28.312   7.484  47.517  1.00  0.00     0.069 C 
HETATM    3  C4  UNL     1      27.504   6.523  48.254  1.00  0.00     0.091 A 
HETATM    4  N2  UNL     1      28.108   5.398  48.430  1.00  0.00    -0.174 NA
HETATM    5  N3  UNL     1      27.518   4.326  49.111  1.00  0.00    -0.277 N 
HETATM    6  C5  UNL     1      26.203   4.581  49.589  1.00  0.00     0.061 A 
HETATM    7  C12 UNL     1      25.575   5.722  49.418  1.00  0.00     0.047 A 
HETATM    8  C13 UNL     1      26.168   6.835  48.721  1.00  0.00     0.018 A 
HETATM    9  C14 UNL     1      25.626   8.020  48.533  1.00  0.00     0.148 C 
HETATM   10  O2  UNL     1      26.171   9.126  47.910  1.00  0.00    -0.362 OA
HETATM   11  C15 UNL     1      26.682  10.125  48.796  1.00  0.00     0.176 C 
HETATM   12  C16 UNL     1      27.178  11.337  48.082  1.00  0.00     0.046 C 
HETATM   13  C17 UNL     1      28.338  10.997  47.134  1.00  0.00     0.120 C 
HETATM   14  N4  UNL     1      29.391  10.430  47.879  1.00  0.00    -0.398 N 
HETATM   15  C18 UNL     1      30.350  11.388  48.302  1.00  0.00     0.144 C 
HETATM   16  C19 UNL     1      31.671  11.357  47.571  1.00  0.00     0.187 C 
HETATM   17  O3  UNL     1      32.156  10.055  47.450  1.00  0.00    -0.387 OA
HETATM   18  C20 UNL     1      31.259   9.305  46.699  1.00  0.00     0.199 C 
HETATM   19  C21 UNL     1      29.966   9.217  47.474  1.00  0.00     0.160 C 
HETATM   20  H6  UNL     1      28.098   3.471  49.191  1.00  0.00     0.189 HD
ENDROOT
BRANCH   6  21
HETATM   21  C6  UNL     1      25.564   3.485  50.295  1.00  0.00    -0.006 A 
HETATM   22  C7  UNL     1      26.228   2.649  51.167  1.00  0.00     0.017 A 
HETATM   23  C8  UNL     1      25.644   1.599  51.854  1.00  0.00     0.045 A 
HETATM   24  C9  UNL     1      24.307   1.357  51.664  1.00  0.00     0.138 A 
HETATM   25  F1  UNL     1      23.725   0.343  52.327  1.00  0.00    -0.204 F 
HETATM   26  C10 UNL     1      23.582   2.154  50.805  1.00  0.00     0.073 A 
HETATM   27 CL1  UNL     1      21.869   1.800  50.604  1.00  0.00    -0.081 Cl
HETATM   28  C11 UNL     1      24.226   3.178  50.158  1.00  0.00     0.040 A 
ENDBRANCH   6  21
BRANCH   1  29
HETATM   29  O1  UNL     1      29.126   8.674  45.405  1.00  0.00    -0.324 OA
BRANCH  29  30
HETATM   30  C1  UNL     1      28.005   8.532  44.550  1.00  0.00     0.441 C 
BRANCH  30  31
HETATM   31  N1  UNL     1      28.044   9.386  43.407  1.00  0.00     0.101 N 
HETATM   32  H1  UNL     1      27.130   9.451  42.893  1.00  0.00     0.315 HD
HETATM   33  H2  UNL     1      28.282  10.352  43.708  1.00  0.00     0.315 HD
ENDBRANCH  30  31
ENDBRANCH  29  30
ENDBRANCH   1  29
TORSDOF 4
ENDMDL
MODEL 9
REMARK VINA RESULT:      -7.6      4.971      8.841
REMARK  4 active torsions:
REMARK  status: ('A' for Active; 'I' for Inactive)
REMARK    1  A    between atoms: N1_1  and  C1_2 
REMARK    2  A    between atoms: C1_2  and  O1_3 
REMARK    3  A    between atoms: O1_3  and  C2_4 
REMARK    4  A    between atoms: C5_9  and  C6_10 
ROOT
HETATM    1  C2  UNL     1      21.090   3.918  51.156  1.00  0.00     0.075 C 
HETATM    2  C3  UNL     1      22.176   4.531  50.790  1.00  0.00     0.069 C 
HETATM    3  C4  UNL     1      23.332   5.298  50.351  1.00  0.00     0.091 A 
HETATM    4  N2  UNL     1      23.867   5.982  51.303  1.00  0.00    -0.174 NA
HETATM    5  N3  UNL     1      24.989   6.796  51.108  1.00  0.00    -0.277 N 
HETATM    6  C5  UNL     1      25.488   6.805  49.777  1.00  0.00     0.061 A 
HETATM    7  C12 UNL     1      24.956   6.114  48.795  1.00  0.00     0.047 A 
HETATM    8  C13 UNL     1      23.801   5.271  48.979  1.00  0.00     0.018 A 
HETATM    9  C14 UNL     1      23.225   4.521  48.064  1.00  0.00     0.148 C 
HETATM   10  O2  UNL     1      22.147   3.668  48.204  1.00  0.00    -0.362 OA
HETATM   11  C15 UNL     1      22.486   2.284  48.316  1.00  0.00     0.176 C 
HETATM   12  C16 UNL     1      21.288   1.395  48.376  1.00  0.00     0.046 C 
HETATM   13  C17 UNL     1      20.417   1.706  49.602  1.00  0.00     0.120 C 
HETATM   14  N4  UNL     1      21.186   1.532  50.770  1.00  0.00    -0.398 N 
HETATM   15  C18 UNL     1      21.063   0.232  51.327  1.00  0.00     0.144 C 
HETATM   16  C19 UNL     1      20.245   0.137  52.591  1.00  0.00     0.187 C 
HETATM   17  O3  UNL     1      20.595   1.135  53.501  1.00  0.00    -0.387 OA
HETATM   18  C20 UNL     1      20.329   2.376  52.937  1.00  0.00     0.199 C 
HETATM   19  C21 UNL     1      21.232   2.545  51.739  1.00  0.00     0.160 C 
HETATM   20  H6  UNL     1      25.331   7.299  51.948  1.00  0.00     0.189 HD
ENDROOT
BRANCH   6  21
HETATM   21  C6  UNL     1      26.650   7.644  49.542  1.00  0.00    -0.006 A 
HETATM   22  C7  UNL     1      26.869   8.841  50.192  1.00  0.00     0.017 A 
HETATM   23  C8  UNL     1      27.967   9.660  49.989  1.00  0.00     0.045 A 
HETATM   24  C9  UNL     1      28.915   9.268  49.077  1.00  0.00     0.138 A 
HETATM   25  F1  UNL     1      29.988  10.051  48.872  1.00  0.00    -0.204 F 
HETATM   26  C10 UNL     1      28.757   8.083  48.392  1.00  0.00     0.073 A 
HETATM   27 CL1  UNL     1      30.008   7.628  47.238  1.00  0.00    -0.081 Cl
HETATM   28  C11 UNL     1      27.645   7.321  48.644  1.00  0.00     0.040 A 
ENDBRANCH   6  21
BRANCH   1  29
HETATM   29  O1  UNL     1      19.679   4.146  51.186  1.00  0.00    -0.324 OA
BRANCH  29  30
HETATM   30  C1  UNL     1      19.105   4.999  50.211  1.00  0.00     0.441 C 
BRANCH  30  31
HETATM   31  N1  UNL     1      17.679   4.957  50.181  1.00  0.00     0.101 N 
HETATM   32  H1  UNL     1      17.220   5.838  50.523  1.00  0.00     0.315 HD
HETATM   33  H2  UNL     1      17.359   4.819  49.202  1.00  0.00     0.315 HD
ENDBRANCH  30  31
ENDBRANCH  29  30
ENDBRANCH   1  29
TORSDOF 4
ENDMDL
