MODEL 1
REMARK VINA RESULT:      -7.4      0.000      0.000
REMARK  1 active torsions:
REMARK  status: ('A' for Active; 'I' for Inactive)
REMARK    1  A    between atoms: C2_2  and  N1_4 
ROOT
HETATM    1  N1  UNL     1      25.797   2.066  52.140  1.00  0.00    -0.275 N 
HETATM    2  C3  UNL     1      25.821   2.595  50.814  1.00  0.00     0.135 C 
HETATM    3  N2  UNL     1      26.705   2.993  49.906  1.00  0.00    -0.226 NA
HETATM    4  C4  UNL     1      26.468   4.375  49.367  1.00  0.00     0.237 C 
HETATM    5  N3  UNL     1      25.389   5.058  49.858  1.00  0.00    -0.226 NA
HETATM    6  C5  UNL     1      24.591   4.357  50.818  1.00  0.00     0.139 C 
HETATM    7  N4  UNL     1      24.018   4.369  51.970  1.00  0.00    -0.258 NA
HETATM    8  C6  UNL     1      24.331   3.663  53.213  1.00  0.00     0.264 C 
HETATM    9  N5  UNL     1      24.842   2.351  53.152  1.00  0.00    -0.202 NA
HETATM   10  C7  UNL     1      23.802   1.393  53.049  1.00  0.00     0.155 C 
HETATM   11  C8  UNL     1      22.963   1.497  51.828  1.00  0.00    -0.034 A 
HETATM   12  C9  UNL     1      21.781   0.812  52.031  1.00  0.00     0.032 A 
HETATM   13  C10 UNL     1      20.908   0.833  50.962  1.00  0.00     0.034 A 
HETATM   14 CL2  UNL     1      19.360  -0.013  51.111  1.00  0.00    -0.084 Cl
HETATM   15  C11 UNL     1      21.175   1.479  49.780  1.00  0.00     0.024 A 
HETATM   16  C12 UNL     1      22.383   2.137  49.673  1.00  0.00     0.011 A 
HETATM   17  C13 UNL     1      23.342   2.178  50.696  1.00  0.00    -0.032 A 
HETATM   18  C14 UNL     1      24.444   2.946  50.205  1.00  0.00     0.161 C 
ENDROOT
BRANCH   1  19
HETATM   19  C2  UNL     1      26.832   1.147  52.588  1.00  0.00     0.105 C 
HETATM   20  C1  UNL     1      27.811   1.607  53.314  1.00  0.00     0.140 C 
HETATM   21 CL1  UNL     1      26.745  -0.541  52.151  1.00  0.00    -0.100 Cl
ENDBRANCH   1  19
TORSDOF 1
ENDMDL
MODEL 2
REMARK VINA RESULT:      -7.3      2.010      2.599
REMARK  1 active torsions:
REMARK  status: ('A' for Active; 'I' for Inactive)
REMARK    1  A    between atoms: C2_2  and  N1_4 
ROOT
HETATM    1  N1  UNL     1      26.643   0.153  53.057  1.00  0.00    -0.275 N 
HETATM    2  C3  UNL     1      26.240   0.823  51.863  1.00  0.00     0.135 C 
HETATM    3  N2  UNL     1      26.779   1.291  50.742  1.00  0.00    -0.226 NA
HETATM    4  C4  UNL     1      26.464   2.730  50.451  1.00  0.00     0.237 C 
HETATM    5  N3  UNL     1      25.673   3.389  51.352  1.00  0.00    -0.226 NA
HETATM    6  C5  UNL     1      25.212   2.613  52.463  1.00  0.00     0.139 C 
HETATM    7  N4  UNL     1      25.078   2.516  53.739  1.00  0.00    -0.258 NA
HETATM    8  C6  UNL     1      25.755   1.667  54.721  1.00  0.00     0.264 C 
HETATM    9  N5  UNL     1      26.121   0.355  54.363  1.00  0.00    -0.202 NA
HETATM   10  C7  UNL     1      25.047  -0.553  54.547  1.00  0.00     0.155 C 
HETATM   11  C8  UNL     1      23.845  -0.288  53.715  1.00  0.00    -0.034 A 
HETATM   12  C9  UNL     1      22.763  -0.953  54.258  1.00  0.00     0.032 A 
HETATM   13  C10 UNL     1      21.576  -0.786  53.573  1.00  0.00     0.034 A 
HETATM   14 CL2  UNL     1      20.123  -1.594  54.180  1.00  0.00    -0.084 Cl
HETATM   15  C11 UNL     1      21.460  -0.023  52.437  1.00  0.00     0.024 A 
HETATM   16  C12 UNL     1      22.598   0.603  51.972  1.00  0.00     0.011 A 
HETATM   17  C13 UNL     1      23.853   0.501  52.590  1.00  0.00    -0.032 A 
HETATM   18  C14 UNL     1      24.765   1.284  51.814  1.00  0.00     0.161 C 
ENDROOT
BRANCH   1  19
HETATM   19  C2  UNL     1      27.703  -0.843  53.025  1.00  0.00     0.105 C 
HETATM   20  C1  UNL     1      28.903  -0.496  53.395  1.00  0.00     0.140 C 
HETATM   21 CL1  UNL     1      27.353  -2.469  52.498  1.00  0.00    -0.100 Cl
ENDBRANCH   1  19
TORSDOF 1
ENDMDL
MODEL 3
REMARK VINA RESULT:      -7.1      2.663      5.107
REMARK  1 active torsions:
REMARK  status: ('A' for Active; 'I' for Inactive)
REMARK    1  A    between atoms: C2_2  and  N1_4 
ROOT
HETATM    1  N1  UNL     1      22.358   3.202  49.696  1.00  0.00    -0.275 N 
HETATM    2  C3  UNL     1      21.227   2.592  50.318  1.00  0.00     0.135 C 
HETATM    3  N2  UNL     1      19.923   2.447  50.113  1.00  0.00    -0.226 NA
HETATM    4  C4  UNL     1      19.058   2.866  51.266  1.00  0.00     0.237 C 
HETATM    5  N3  UNL     1      19.694   3.341  52.381  1.00  0.00    -0.226 NA
HETATM    6  C5  UNL     1      21.125   3.356  52.325  1.00  0.00     0.139 C 
HETATM    7  N4  UNL     1      22.211   4.026  52.489  1.00  0.00    -0.258 NA
HETATM    8  C6  UNL     1      23.172   4.562  51.524  1.00  0.00     0.264 C 
HETATM    9  N5  UNL     1      23.450   3.835  50.350  1.00  0.00    -0.202 NA
HETATM   10  C7  UNL     1      24.451   2.854  50.571  1.00  0.00     0.155 C 
HETATM   11  C8  UNL     1      24.098   1.801  51.557  1.00  0.00    -0.034 A 
HETATM   12  C9  UNL     1      25.253   1.172  51.980  1.00  0.00     0.032 A 
HETATM   13  C10 UNL     1      25.060   0.166  52.905  1.00  0.00     0.034 A 
HETATM   14 CL2  UNL     1      26.472  -0.709  53.517  1.00  0.00    -0.084 Cl
HETATM   15  C11 UNL     1      23.824  -0.197  53.381  1.00  0.00     0.024 A 
HETATM   16  C12 UNL     1      22.730   0.491  52.899  1.00  0.00     0.011 A 
HETATM   17  C13 UNL     1      22.813   1.528  51.958  1.00  0.00    -0.032 A 
HETATM   18  C14 UNL     1      21.477   1.980  51.716  1.00  0.00     0.161 C 
ENDROOT
BRANCH   1  19
HETATM   19  C2  UNL     1      22.474   3.241  48.247  1.00  0.00     0.105 C 
HETATM   20  C1  UNL     1      22.478   2.118  47.586  1.00  0.00     0.140 C 
HETATM   21 CL1  UNL     1      22.607   4.775  47.426  1.00  0.00    -0.100 Cl
ENDBRANCH   1  19
TORSDOF 1
ENDMDL
MODEL 4
REMARK VINA RESULT:      -6.9      2.361      3.618
REMARK  1 active torsions:
REMARK  status: ('A' for Active; 'I' for Inactive)
REMARK    1  A    between atoms: C2_2  and  N1_4 
ROOT
HETATM    1  N1  UNL     1      23.987   3.734  50.231  1.00  0.00    -0.275 N 
HETATM    2  C3  UNL     1      23.049   3.098  49.363  1.00  0.00     0.135 C 
HETATM    3  N2  UNL     1      22.708   3.098  48.079  1.00  0.00    -0.226 NA
HETATM    4  C4  UNL     1      21.249   3.340  47.820  1.00  0.00     0.237 C 
HETATM    5  N3  UNL     1      20.446   3.529  48.912  1.00  0.00    -0.226 NA
HETATM    6  C5  UNL     1      21.095   3.447  50.185  1.00  0.00     0.139 C 
HETATM    7  N4  UNL     1      21.301   3.985  51.336  1.00  0.00    -0.258 NA
HETATM    8  C6  UNL     1      22.486   4.630  51.903  1.00  0.00     0.264 C 
HETATM    9  N5  UNL     1      23.765   4.136  51.576  1.00  0.00    -0.202 NA
HETATM   10  C7  UNL     1      24.136   3.057  52.419  1.00  0.00     0.155 C 
HETATM   11  C8  UNL     1      23.267   1.857  52.331  1.00  0.00    -0.034 A 
HETATM   12  C9  UNL     1      23.469   1.069  53.448  1.00  0.00     0.032 A 
HETATM   13  C10 UNL     1      22.713  -0.085  53.488  1.00  0.00     0.034 A 
HETATM   14 CL2  UNL     1      22.892  -1.171  54.875  1.00  0.00    -0.084 Cl
HETATM   15  C11 UNL     1      21.824  -0.441  52.503  1.00  0.00     0.024 A 
HETATM   16  C12 UNL     1      21.691   0.411  51.427  1.00  0.00     0.011 A 
HETATM   17  C13 UNL     1      22.409   1.608  51.287  1.00  0.00    -0.032 A 
HETATM   18  C14 UNL     1      21.997   2.199  50.051  1.00  0.00     0.161 C 
ENDROOT
BRANCH   1  19
HETATM   19  C2  UNL     1      25.327   4.055  49.765  1.00  0.00     0.105 C 
HETATM   20  C1  UNL     1      25.567   5.255  49.316  1.00  0.00     0.140 C 
HETATM   21 CL1  UNL     1      26.580   2.841  49.814  1.00  0.00    -0.100 Cl
ENDBRANCH   1  19
TORSDOF 1
ENDMDL
MODEL 5
REMARK VINA RESULT:      -6.9      2.857      5.487
REMARK  1 active torsions:
REMARK  status: ('A' for Active; 'I' for Inactive)
REMARK    1  A    between atoms: C2_2  and  N1_4 
ROOT
HETATM    1  N1  UNL     1      23.476   3.740  51.079  1.00  0.00    -0.275 N 
HETATM    2  C3  UNL     1      23.023   5.083  50.910  1.00  0.00     0.135 C 
HETATM    3  N2  UNL     1      22.093   5.900  51.394  1.00  0.00    -0.226 NA
HETATM    4  C4  UNL     1      21.228   6.549  50.353  1.00  0.00     0.237 C 
HETATM    5  N3  UNL     1      21.487   6.237  49.046  1.00  0.00    -0.226 NA
HETATM    6  C5  UNL     1      22.580   5.340  48.823  1.00  0.00     0.139 C 
HETATM    7  N4  UNL     1      23.008   4.270  48.250  1.00  0.00    -0.258 NA
HETATM    8  C6  UNL     1      23.356   2.956  48.793  1.00  0.00     0.264 C 
HETATM    9  N5  UNL     1      23.960   2.872  50.063  1.00  0.00    -0.202 NA
HETATM   10  C7  UNL     1      25.366   3.041  49.982  1.00  0.00     0.155 C 
HETATM   11  C8  UNL     1      25.816   4.360  49.470  1.00  0.00    -0.034 A 
HETATM   12  C9  UNL     1      27.131   4.262  49.060  1.00  0.00     0.032 A 
HETATM   13  C10 UNL     1      27.672   5.428  48.558  1.00  0.00     0.034 A 
HETATM   14 CL2  UNL     1      29.353   5.417  48.002  1.00  0.00    -0.084 Cl
HETATM   15  C11 UNL     1      26.973   6.607  48.466  1.00  0.00     0.024 A 
HETATM   16  C12 UNL     1      25.664   6.606  48.901  1.00  0.00     0.011 A 
HETATM   17  C13 UNL     1      25.018   5.478  49.427  1.00  0.00    -0.032 A 
HETATM   18  C14 UNL     1      23.685   5.878  49.760  1.00  0.00     0.161 C 
ENDROOT
BRANCH   1  19
HETATM   19  C2  UNL     1      23.455   3.112  52.390  1.00  0.00     0.105 C 
HETATM   20  C1  UNL     1      24.183   3.620  53.344  1.00  0.00     0.140 C 
HETATM   21 CL1  UNL     1      22.467   1.699  52.663  1.00  0.00    -0.100 Cl
ENDBRANCH   1  19
TORSDOF 1
ENDMDL
MODEL 6
REMARK VINA RESULT:      -6.8      2.783      5.609
REMARK  1 active torsions:
REMARK  status: ('A' for Active; 'I' for Inactive)
REMARK    1  A    between atoms: C2_2  and  N1_4 
ROOT
HETATM    1  N1  UNL     1      21.898   3.481  50.802  1.00  0.00    -0.275 N 
HETATM    2  C3  UNL     1      22.581   2.246  51.011  1.00  0.00     0.135 C 
HETATM    3  N2  UNL     1      22.300   0.968  51.243  1.00  0.00    -0.226 NA
HETATM    4  C4  UNL     1      22.985   0.386  52.446  1.00  0.00     0.237 C 
HETATM    5  N3  UNL     1      23.808   1.216  53.156  1.00  0.00    -0.226 NA
HETATM    6  C5  UNL     1      23.941   2.548  52.648  1.00  0.00     0.139 C 
HETATM    7  N4  UNL     1      23.905   3.811  52.890  1.00  0.00    -0.258 NA
HETATM    8  C6  UNL     1      22.939   4.842  52.510  1.00  0.00     0.264 C 
HETATM    9  N5  UNL     1      22.306   4.766  51.254  1.00  0.00    -0.202 NA
HETATM   10  C7  UNL     1      23.100   5.352  50.235  1.00  0.00     0.155 C 
HETATM   11  C8  UNL     1      24.414   4.700  50.003  1.00  0.00    -0.034 A 
HETATM   12  C9  UNL     1      25.236   5.570  49.313  1.00  0.00     0.032 A 
HETATM   13  C10 UNL     1      26.495   5.080  49.033  1.00  0.00     0.034 A 
HETATM   14 CL2  UNL     1      27.633   6.110  48.151  1.00  0.00    -0.084 Cl
HETATM   15  C11 UNL     1      26.919   3.827  49.405  1.00  0.00     0.024 A 
HETATM   16  C12 UNL     1      26.026   3.031  50.093  1.00  0.00     0.011 A 
HETATM   17  C13 UNL     1      24.723   3.430  50.427  1.00  0.00    -0.032 A 
HETATM   18  C14 UNL     1      24.120   2.338  51.128  1.00  0.00     0.161 C 
ENDROOT
BRANCH   1  19
HETATM   19  C2  UNL     1      20.638   3.517  50.076  1.00  0.00     0.105 C 
HETATM   20  C1  UNL     1      20.598   3.049  48.861  1.00  0.00     0.140 C 
HETATM   21 CL1  UNL     1      19.215   4.181  50.837  1.00  0.00    -0.100 Cl
ENDBRANCH   1  19
TORSDOF 1
ENDMDL
MODEL 7
REMARK VINA RESULT:      -6.6      2.784      5.011
REMARK  1 active torsions:
REMARK  status: ('A' for Active; 'I' for Inactive)
REMARK    1  A    between atoms: C2_2  and  N1_4 
ROOT
HETATM    1  N1  UNL     1      22.404   2.254  50.855  1.00  0.00    -0.275 N 
HETATM    2  C3  UNL     1      23.726   1.955  51.305  1.00  0.00     0.135 C 
HETATM    3  N2  UNL     1      24.397   0.950  51.856  1.00  0.00    -0.226 NA
HETATM    4  C4  UNL     1      25.140   1.309  53.110  1.00  0.00     0.237 C 
HETATM    5  N3  UNL     1      25.049   2.605  53.539  1.00  0.00    -0.226 NA
HETATM    6  C5  UNL     1      24.269   3.481  52.718  1.00  0.00     0.139 C 
HETATM    7  N4  UNL     1      23.328   4.356  52.651  1.00  0.00    -0.258 NA
HETATM    8  C6  UNL     1      21.972   4.278  52.106  1.00  0.00     0.264 C 
HETATM    9  N5  UNL     1      21.734   3.503  50.954  1.00  0.00    -0.202 NA
HETATM   10  C7  UNL     1      22.004   4.235  49.770  1.00  0.00     0.155 C 
HETATM   11  C8  UNL     1      23.412   4.679  49.606  1.00  0.00    -0.034 A 
HETATM   12  C9  UNL     1      23.461   5.692  48.670  1.00  0.00     0.032 A 
HETATM   13  C10 UNL     1      24.723   6.195  48.425  1.00  0.00     0.034 A 
HETATM   14 CL2  UNL     1      24.905   7.499  47.241  1.00  0.00    -0.084 Cl
HETATM   15  C11 UNL     1      25.855   5.737  49.055  1.00  0.00     0.024 A 
HETATM   16  C12 UNL     1      25.703   4.722  49.976  1.00  0.00     0.011 A 
HETATM   17  C13 UNL     1      24.469   4.139  50.299  1.00  0.00    -0.032 A 
HETATM   18  C14 UNL     1      24.727   3.133  51.283  1.00  0.00     0.161 C 
ENDROOT
BRANCH   1  19
HETATM   19  C2  UNL     1      21.583   1.225  50.235  1.00  0.00     0.105 C 
HETATM   20  C1  UNL     1      20.839   0.472  50.994  1.00  0.00     0.140 C 
HETATM   21 CL1  UNL     1      21.608   1.019  48.502  1.00  0.00    -0.100 Cl
ENDBRANCH   1  19
TORSDOF 1
ENDMDL
MODEL 8
REMARK VINA RESULT:      -6.6      3.230      6.383
REMARK  1 active torsions:
REMARK  status: ('A' for Active; 'I' for Inactive)
REMARK    1  A    between atoms: C2_2  and  N1_4 
ROOT
HETATM    1  N1  UNL     1      22.574   4.812  48.961  1.00  0.00    -0.275 N 
HETATM    2  C3  UNL     1      23.108   3.540  49.325  1.00  0.00     0.135 C 
HETATM    3  N2  UNL     1      22.698   2.286  49.486  1.00  0.00    -0.226 NA
HETATM    4  C4  UNL     1      23.045   1.682  50.816  1.00  0.00     0.237 C 
HETATM    5  N3  UNL     1      23.732   2.470  51.698  1.00  0.00    -0.226 NA
HETATM    6  C5  UNL     1      24.065   3.783  51.234  1.00  0.00     0.139 C 
HETATM    7  N4  UNL     1      24.056   5.049  51.460  1.00  0.00    -0.258 NA
HETATM    8  C6  UNL     1      23.273   6.133  50.864  1.00  0.00     0.264 C 
HETATM    9  N5  UNL     1      22.947   6.076  49.494  1.00  0.00    -0.202 NA
HETATM   10  C7  UNL     1      23.993   6.595  48.689  1.00  0.00     0.155 C 
HETATM   11  C8  UNL     1      25.280   5.858  48.771  1.00  0.00    -0.034 A 
HETATM   12  C9  UNL     1      26.294   6.664  48.291  1.00  0.00     0.032 A 
HETATM   13  C10 UNL     1      27.550   6.092  48.314  1.00  0.00     0.034 A 
HETATM   14 CL2  UNL     1      28.925   7.035  47.721  1.00  0.00    -0.084 Cl
HETATM   15  C11 UNL     1      27.793   4.821  48.775  1.00  0.00     0.024 A 
HETATM   16  C12 UNL     1      26.715   4.094  49.236  1.00  0.00     0.011 A 
HETATM   17  C13 UNL     1      25.399   4.578  49.256  1.00  0.00    -0.032 A 
HETATM   18  C14 UNL     1      24.580   3.538  49.798  1.00  0.00     0.161 C 
ENDROOT
BRANCH   1  19
HETATM   19  C2  UNL     1      21.523   4.915  47.961  1.00  0.00     0.105 C 
HETATM   20  C1  UNL     1      21.728   4.412  46.777  1.00  0.00     0.140 C 
HETATM   21 CL1  UNL     1      20.017   5.704  48.359  1.00  0.00    -0.100 Cl
ENDBRANCH   1  19
TORSDOF 1
ENDMDL
MODEL 9
REMARK VINA RESULT:      -6.3      2.082      4.763
REMARK  1 active torsions:
REMARK  status: ('A' for Active; 'I' for Inactive)
REMARK    1  A    between atoms: C2_2  and  N1_4 
ROOT
HETATM    1  N1  UNL     1      21.751   3.786  50.552  1.00  0.00    -0.275 N 
HETATM    2  C3  UNL     1      22.512   4.820  51.178  1.00  0.00     0.135 C 
HETATM    3  N2  UNL     1      22.450   6.131  51.381  1.00  0.00    -0.226 NA
HETATM    4  C4  UNL     1      23.671   6.889  50.946  1.00  0.00     0.237 C 
HETATM    5  N3  UNL     1      24.694   6.161  50.400  1.00  0.00    -0.226 NA
HETATM    6  C5  UNL     1      24.486   4.746  50.332  1.00  0.00     0.139 C 
HETATM    7  N4  UNL     1      24.510   3.678  49.616  1.00  0.00    -0.258 NA
HETATM    8  C6  UNL     1      23.429   2.846  49.085  1.00  0.00     0.264 C 
HETATM    9  N5  UNL     1      22.261   2.660  49.851  1.00  0.00    -0.202 NA
HETATM   10  C7  UNL     1      22.413   1.602  50.783  1.00  0.00     0.155 C 
HETATM   11  C8  UNL     1      23.470   1.805  51.805  1.00  0.00    -0.034 A 
HETATM   12  C9  UNL     1      23.793   0.587  52.371  1.00  0.00     0.032 A 
HETATM   13  C10 UNL     1      24.772   0.640  53.343  1.00  0.00     0.034 A 
HETATM   14 CL2  UNL     1      25.265  -0.863  54.136  1.00  0.00    -0.084 Cl
HETATM   15  C11 UNL     1      25.389   1.804  53.732  1.00  0.00     0.024 A 
HETATM   16  C12 UNL     1      24.999   2.971  53.107  1.00  0.00     0.011 A 
HETATM   17  C13 UNL     1      24.015   3.029  52.109  1.00  0.00    -0.032 A 
HETATM   18  C14 UNL     1      23.898   4.401  51.719  1.00  0.00     0.161 C 
ENDROOT
BRANCH   1  19
HETATM   19  C2  UNL     1      20.297   3.822  50.571  1.00  0.00     0.105 C 
HETATM   20  C1  UNL     1      19.667   4.362  49.566  1.00  0.00     0.140 C 
HETATM   21 CL1  UNL     1      19.428   3.150  51.928  1.00  0.00    -0.100 Cl
ENDBRANCH   1  19
TORSDOF 1
ENDMDL
