MODEL 1
REMARK VINA RESULT:      -8.5      0.000      0.000
REMARK  5 active torsions:
REMARK  status: ('A' for Active; 'I' for Inactive)
REMARK    1  A    between atoms: C5_5  and  N1_6 
REMARK    2  A    between atoms: N1_6  and  C6_7 
REMARK    3  A    between atoms: C9_10  and  C10_11 
REMARK    4  A    between atoms: N2_17  and  C15_18 
REMARK    5  A    between atoms: C17_21  and  C18_22 
ROOT
HETATM    1  C1  UNL     1      21.216   0.299  49.832  1.00  0.00     0.068 C 
HETATM    2  C2  UNL     1      22.014   1.552  49.732  1.00  0.00     0.011 A 
HETATM    3  C3  UNL     1      22.072   2.274  48.623  1.00  0.00     0.004 A 
HETATM    4  C4  UNL     1      22.813   3.535  48.360  1.00  0.00     0.087 A 
HETATM    5  C5  UNL     1      23.532   3.901  49.606  1.00  0.00     0.029 A 
HETATM    6  C14 UNL     1      23.547   3.262  50.765  1.00  0.00     0.124 A 
HETATM    7  N2  UNL     1      22.773   2.071  50.817  1.00  0.00    -0.309 N 
ENDROOT
BRANCH   5   8
HETATM    8  N1  UNL     1      24.288   5.100  49.492  1.00  0.00    -0.361 N 
HETATM    9  H7  UNL     1      23.822   5.918  49.985  1.00  0.00     0.165 HD
BRANCH   8  10
HETATM   10  C6  UNL     1      25.511   5.565  48.907  1.00  0.00     0.012 C 
HETATM   11  C7  UNL     1      26.519   4.755  49.146  1.00  0.00     0.026 C 
HETATM   12  C8  UNL     1      27.883   4.963  48.682  1.00  0.00     0.016 C 
HETATM   13  C9  UNL     1      28.437   6.042  48.169  1.00  0.00     0.001 C 
HETATM   14  C11 UNL     1      27.850   7.351  47.912  1.00  0.00     0.011 C 
HETATM   15  C12 UNL     1      26.549   7.597  47.937  1.00  0.00    -0.020 C 
HETATM   16  C13 UNL     1      25.315   6.846  48.180  1.00  0.00     0.084 C 
BRANCH  13  17
HETATM   17  C10 UNL     1      29.844   5.931  47.797  1.00  0.00     0.269 C 
HETATM   18  O1  UNL     1      30.486   4.831  47.835  1.00  0.00    -0.301 OA
ENDBRANCH  13  17
ENDBRANCH   8  10
ENDBRANCH   5   8
BRANCH   7  19
HETATM   19  C15 UNL     1      22.761   1.353  52.043  1.00  0.00     0.146 A 
HETATM   20  N3  UNL     1      21.711   0.985  52.689  1.00  0.00    -0.241 NA
HETATM   21  C16 UNL     1      22.487   0.366  53.734  1.00  0.00     0.135 A 
HETATM   22  C17 UNL     1      23.590   0.741  53.075  1.00  0.00     0.040 A 
BRANCH  22  23
HETATM   23  C18 UNL     1      25.045   0.673  53.167  1.00  0.00    -0.003 A 
HETATM   24  C19 UNL     1      25.881  -0.323  52.719  1.00  0.00     0.015 A 
HETATM   25  C20 UNL     1      27.240  -0.226  52.890  1.00  0.00     0.020 A 
HETATM   26  C21 UNL     1      27.781   0.882  53.516  1.00  0.00     0.116 A 
HETATM   27  N4  UNL     1      26.981   1.852  53.954  1.00  0.00    -0.272 NA
HETATM   28  C22 UNL     1      25.639   1.774  53.795  1.00  0.00     0.128 A 
ENDBRANCH  22  23
ENDBRANCH   7  19
TORSDOF 5
ENDMDL
MODEL 2
REMARK VINA RESULT:      -8.4      2.972      7.043
REMARK  5 active torsions:
REMARK  status: ('A' for Active; 'I' for Inactive)
REMARK    1  A    between atoms: C5_5  and  N1_6 
REMARK    2  A    between atoms: N1_6  and  C6_7 
REMARK    3  A    between atoms: C9_10  and  C10_11 
REMARK    4  A    between atoms: N2_17  and  C15_18 
REMARK    5  A    between atoms: C17_21  and  C18_22 
ROOT
HETATM    1  C1  UNL     1      22.163   6.558  51.400  1.00  0.00     0.068 C 
HETATM    2  C2  UNL     1      22.942   5.289  51.439  1.00  0.00     0.011 A 
HETATM    3  C3  UNL     1      22.980   4.508  52.508  1.00  0.00     0.004 A 
HETATM    4  C4  UNL     1      23.700   3.225  52.709  1.00  0.00     0.087 A 
HETATM    5  C5  UNL     1      24.424   2.914  51.450  1.00  0.00     0.029 A 
HETATM    6  C14 UNL     1      24.459   3.614  50.328  1.00  0.00     0.124 A 
HETATM    7  N2  UNL     1      23.702   4.818  50.333  1.00  0.00    -0.309 N 
ENDROOT
BRANCH   5   8
HETATM    8  N1  UNL     1      25.161   1.700  51.507  1.00  0.00    -0.361 N 
HETATM    9  H7  UNL     1      24.675   0.910  50.989  1.00  0.00     0.165 HD
BRANCH   8  10
HETATM   10  C6  UNL     1      26.385   1.193  52.054  1.00  0.00     0.012 C 
HETATM   11  C7  UNL     1      26.378  -0.118  52.164  1.00  0.00     0.026 C 
HETATM   12  C8  UNL     1      27.478  -0.916  52.686  1.00  0.00     0.016 C 
HETATM   13  C9  UNL     1      28.551  -0.533  53.345  1.00  0.00     0.001 C 
HETATM   14  C11 UNL     1      28.958   0.807  53.752  1.00  0.00     0.011 C 
HETATM   15  C12 UNL     1      28.406   1.919  53.294  1.00  0.00    -0.020 C 
HETATM   16  C13 UNL     1      27.343   2.287  52.355  1.00  0.00     0.084 C 
BRANCH  13  17
HETATM   17  C10 UNL     1      29.480  -1.588  53.737  1.00  0.00     0.269 C 
HETATM   18  O1  UNL     1      29.263  -2.822  53.509  1.00  0.00    -0.301 OA
ENDBRANCH  13  17
ENDBRANCH   8  10
ENDBRANCH   5   8
BRANCH   7  19
HETATM   19  C15 UNL     1      23.712   5.601  49.147  1.00  0.00     0.146 A 
HETATM   20  N3  UNL     1      22.904   5.470  48.154  1.00  0.00    -0.241 NA
HETATM   21  C16 UNL     1      23.524   6.546  47.422  1.00  0.00     0.135 A 
HETATM   22  C17 UNL     1      24.372   6.695  48.446  1.00  0.00     0.040 A 
BRANCH  22  23
HETATM   23  C18 UNL     1      25.506   7.510  48.871  1.00  0.00    -0.003 A 
HETATM   24  C19 UNL     1      26.836   7.347  48.562  1.00  0.00     0.015 A 
HETATM   25  C20 UNL     1      27.780   8.215  49.053  1.00  0.00     0.020 A 
HETATM   26  C21 UNL     1      27.398   9.266  49.866  1.00  0.00     0.116 A 
HETATM   27  N4  UNL     1      26.113   9.433  50.172  1.00  0.00    -0.272 NA
HETATM   28  C22 UNL     1      25.167   8.588  49.698  1.00  0.00     0.128 A 
ENDBRANCH  22  23
ENDBRANCH   7  19
TORSDOF 5
ENDMDL
MODEL 3
REMARK VINA RESULT:      -8.3      2.949      7.775
REMARK  5 active torsions:
REMARK  status: ('A' for Active; 'I' for Inactive)
REMARK    1  A    between atoms: C5_5  and  N1_6 
REMARK    2  A    between atoms: N1_6  and  C6_7 
REMARK    3  A    between atoms: C9_10  and  C10_11 
REMARK    4  A    between atoms: N2_17  and  C15_18 
REMARK    5  A    between atoms: C17_21  and  C18_22 
ROOT
HETATM    1  C1  UNL     1      25.933   9.332  49.720  1.00  0.00     0.068 C 
HETATM    2  C2  UNL     1      25.681   7.869  49.839  1.00  0.00     0.011 A 
HETATM    3  C3  UNL     1      24.881   7.356  50.762  1.00  0.00     0.004 A 
HETATM    4  C4  UNL     1      24.527   5.936  51.014  1.00  0.00     0.087 A 
HETATM    5  C5  UNL     1      25.247   5.109  50.013  1.00  0.00     0.029 A 
HETATM    6  C14 UNL     1      26.065   5.508  49.053  1.00  0.00     0.124 A 
HETATM    7  N2  UNL     1      26.278   6.912  48.973  1.00  0.00    -0.309 N 
ENDROOT
BRANCH   5   8
HETATM    8  N1  UNL     1      24.994   3.716  50.143  1.00  0.00    -0.361 N 
HETATM    9  H7  UNL     1      24.512   3.313  49.286  1.00  0.00     0.165 HD
BRANCH   8  10
HETATM   10  C6  UNL     1      25.190   2.657  51.088  1.00  0.00     0.012 C 
HETATM   11  C7  UNL     1      26.428   2.214  51.095  1.00  0.00     0.026 C 
HETATM   12  C8  UNL     1      26.927   1.146  51.948  1.00  0.00     0.016 C 
HETATM   13  C9  UNL     1      26.259   0.274  52.675  1.00  0.00     0.001 C 
HETATM   14  C11 UNL     1      24.819   0.119  52.842  1.00  0.00     0.011 C 
HETATM   15  C12 UNL     1      23.928   1.020  52.459  1.00  0.00    -0.020 C 
HETATM   16  C13 UNL     1      23.935   2.336  51.816  1.00  0.00     0.084 C 
BRANCH  13  17
HETATM   17  C10 UNL     1      27.059  -0.685  53.430  1.00  0.00     0.269 C 
HETATM   18  O1  UNL     1      27.428  -0.485  54.632  1.00  0.00    -0.301 OA
ENDBRANCH  13  17
ENDBRANCH   8  10
ENDBRANCH   5   8
BRANCH   7  19
HETATM   19  C15 UNL     1      27.150   7.383  47.955  1.00  0.00     0.146 A 
HETATM   20  N3  UNL     1      26.786   7.922  46.844  1.00  0.00    -0.241 NA
HETATM   21  C16 UNL     1      28.148   8.106  46.410  1.00  0.00     0.135 A 
HETATM   22  C17 UNL     1      28.543   7.548  47.560  1.00  0.00     0.040 A 
BRANCH  22  23
HETATM   23  C18 UNL     1      29.756   7.179  48.285  1.00  0.00    -0.003 A 
HETATM   24  C19 UNL     1      30.641   8.003  48.939  1.00  0.00     0.015 A 
HETATM   25  C20 UNL     1      31.741   7.484  49.576  1.00  0.00     0.020 A 
HETATM   26  C21 UNL     1      31.968   6.120  49.564  1.00  0.00     0.116 A 
HETATM   27  N4  UNL     1      31.117   5.312  48.934  1.00  0.00    -0.272 NA
HETATM   28  C22 UNL     1      30.027   5.805  48.300  1.00  0.00     0.128 A 
ENDBRANCH  22  23
ENDBRANCH   7  19
TORSDOF 5
ENDMDL
MODEL 4
REMARK VINA RESULT:      -8.1      2.538      6.477
REMARK  5 active torsions:
REMARK  status: ('A' for Active; 'I' for Inactive)
REMARK    1  A    between atoms: C5_5  and  N1_6 
REMARK    2  A    between atoms: N1_6  and  C6_7 
REMARK    3  A    between atoms: C9_10  and  C10_11 
REMARK    4  A    between atoms: N2_17  and  C15_18 
REMARK    5  A    between atoms: C17_21  and  C18_22 
ROOT
HETATM    1  C1  UNL     1      20.791   3.866  49.380  1.00  0.00     0.068 C 
HETATM    2  C2  UNL     1      21.620   3.070  50.326  1.00  0.00     0.011 A 
HETATM    3  C3  UNL     1      21.406   1.783  50.554  1.00  0.00     0.004 A 
HETATM    4  C4  UNL     1      22.132   0.854  51.457  1.00  0.00     0.087 A 
HETATM    5  C5  UNL     1      23.214   1.626  52.118  1.00  0.00     0.029 A 
HETATM    6  C14 UNL     1      23.521   2.905  51.970  1.00  0.00     0.124 A 
HETATM    7  N2  UNL     1      22.704   3.628  51.057  1.00  0.00    -0.309 N 
ENDROOT
BRANCH   5   8
HETATM    8  N1  UNL     1      23.995   0.850  53.018  1.00  0.00    -0.361 N 
HETATM    9  H7  UNL     1      23.408   0.424  53.795  1.00  0.00     0.165 HD
BRANCH   8  10
HETATM   10  C6  UNL     1      25.357   0.449  53.212  1.00  0.00     0.012 C 
HETATM   11  C7  UNL     1      25.627  -0.701  52.633  1.00  0.00     0.026 C 
HETATM   12  C8  UNL     1      26.924  -1.361  52.658  1.00  0.00     0.016 C 
HETATM   13  C9  UNL     1      27.977  -1.111  53.407  1.00  0.00     0.001 C 
HETATM   14  C11 UNL     1      28.159  -0.096  54.439  1.00  0.00     0.011 C 
HETATM   15  C12 UNL     1      27.339   0.926  54.624  1.00  0.00    -0.020 C 
HETATM   16  C13 UNL     1      26.108   1.444  54.020  1.00  0.00     0.084 C 
BRANCH  13  17
HETATM   17  C10 UNL     1      29.142  -1.962  53.190  1.00  0.00     0.269 C 
HETATM   18  O1  UNL     1      29.222  -3.153  53.635  1.00  0.00    -0.301 OA
ENDBRANCH  13  17
ENDBRANCH   8  10
ENDBRANCH   5   8
BRANCH   7  19
HETATM   19  C15 UNL     1      22.999   5.005  50.867  1.00  0.00     0.146 A 
HETATM   20  N3  UNL     1      22.240   5.989  51.201  1.00  0.00    -0.241 NA
HETATM   21  C16 UNL     1      23.180   6.967  50.713  1.00  0.00     0.135 A 
HETATM   22  C17 UNL     1      23.981   5.955  50.360  1.00  0.00     0.040 A 
BRANCH  22  23
HETATM   23  C18 UNL     1      25.278   5.698  49.741  1.00  0.00    -0.003 A 
HETATM   24  C19 UNL     1      25.924   4.494  49.588  1.00  0.00     0.015 A 
HETATM   25  C20 UNL     1      27.152   4.431  48.977  1.00  0.00     0.020 A 
HETATM   26  C21 UNL     1      27.751   5.585  48.508  1.00  0.00     0.116 A 
HETATM   27  N4  UNL     1      27.135   6.757  48.651  1.00  0.00    -0.272 NA
HETATM   28  C22 UNL     1      25.924   6.839  49.251  1.00  0.00     0.128 A 
ENDBRANCH  22  23
ENDBRANCH   7  19
TORSDOF 5
ENDMDL
MODEL 5
REMARK VINA RESULT:      -8.0      2.582      6.244
REMARK  5 active torsions:
REMARK  status: ('A' for Active; 'I' for Inactive)
REMARK    1  A    between atoms: C5_5  and  N1_6 
REMARK    2  A    between atoms: N1_6  and  C6_7 
REMARK    3  A    between atoms: C9_10  and  C10_11 
REMARK    4  A    between atoms: N2_17  and  C15_18 
REMARK    5  A    between atoms: C17_21  and  C18_22 
ROOT
HETATM    1  C1  UNL     1      19.484   0.966  50.075  1.00  0.00     0.068 C 
HETATM    2  C2  UNL     1      20.659   0.849  50.981  1.00  0.00     0.011 A 
HETATM    3  C3  UNL     1      20.572   0.335  52.199  1.00  0.00     0.004 A 
HETATM    4  C4  UNL     1      21.635   0.149  53.219  1.00  0.00     0.087 A 
HETATM    5  C5  UNL     1      22.906   0.655  52.640  1.00  0.00     0.029 A 
HETATM    6  C14 UNL     1      23.111   1.184  51.445  1.00  0.00     0.124 A 
HETATM    7  N2  UNL     1      21.963   1.277  50.611  1.00  0.00    -0.309 N 
ENDROOT
BRANCH   5   8
HETATM    8  N1  UNL     1      24.016   0.535  53.521  1.00  0.00    -0.361 N 
HETATM    9  H7  UNL     1      23.719   0.504  54.540  1.00  0.00     0.165 HD
BRANCH   8  10
HETATM   10  C6  UNL     1      25.444   0.440  53.466  1.00  0.00     0.012 C 
HETATM   11  C7  UNL     1      25.863  -0.807  53.452  1.00  0.00     0.026 C 
HETATM   12  C8  UNL     1      27.258  -1.218  53.398  1.00  0.00     0.016 C 
HETATM   13  C9  UNL     1      28.348  -0.504  53.586  1.00  0.00     0.001 C 
HETATM   14  C11 UNL     1      28.483   0.913  53.905  1.00  0.00     0.011 C 
HETATM   15  C12 UNL     1      27.495   1.789  53.817  1.00  0.00    -0.020 C 
HETATM   16  C13 UNL     1      26.080   1.782  53.438  1.00  0.00     0.084 C 
BRANCH  13  17
HETATM   17  C10 UNL     1      29.616  -1.216  53.463  1.00  0.00     0.269 C 
HETATM   18  O1  UNL     1      29.724  -2.473  53.636  1.00  0.00    -0.301 OA
ENDBRANCH  13  17
ENDBRANCH   8  10
ENDBRANCH   5   8
BRANCH   7  19
HETATM   19  C15 UNL     1      22.139   1.839  49.318  1.00  0.00     0.146 A 
HETATM   20  N3  UNL     1      21.561   1.441  48.240  1.00  0.00    -0.241 NA
HETATM   21  C16 UNL     1      22.217   2.443  47.438  1.00  0.00     0.135 A 
HETATM   22  C17 UNL     1      22.827   2.869  48.549  1.00  0.00     0.040 A 
BRANCH  22  23
HETATM   23  C18 UNL     1      23.778   3.879  49.006  1.00  0.00    -0.003 A 
HETATM   24  C19 UNL     1      25.111   3.721  49.303  1.00  0.00     0.015 A 
HETATM   25  C20 UNL     1      25.865   4.789  49.724  1.00  0.00     0.020 A 
HETATM   26  C21 UNL     1      25.286   6.037  49.852  1.00  0.00     0.116 A 
HETATM   27  N4  UNL     1      23.996   6.202  49.568  1.00  0.00    -0.272 NA
HETATM   28  C22 UNL     1      23.235   5.162  49.152  1.00  0.00     0.128 A 
ENDBRANCH  22  23
ENDBRANCH   7  19
TORSDOF 5
ENDMDL
MODEL 6
REMARK VINA RESULT:      -8.0      5.379      9.324
REMARK  5 active torsions:
REMARK  status: ('A' for Active; 'I' for Inactive)
REMARK    1  A    between atoms: C5_5  and  N1_6 
REMARK    2  A    between atoms: N1_6  and  C6_7 
REMARK    3  A    between atoms: C9_10  and  C10_11 
REMARK    4  A    between atoms: N2_17  and  C15_18 
REMARK    5  A    between atoms: C17_21  and  C18_22 
ROOT
HETATM    1  C1  UNL     1      22.465   2.161  49.389  1.00  0.00     0.068 C 
HETATM    2  C2  UNL     1      21.496   1.561  50.347  1.00  0.00     0.011 A 
HETATM    3  C3  UNL     1      20.437   0.872  49.950  1.00  0.00     0.004 A 
HETATM    4  C4  UNL     1      19.384   0.215  50.767  1.00  0.00     0.087 A 
HETATM    5  C5  UNL     1      19.709   0.455  52.196  1.00  0.00     0.029 A 
HETATM    6  C14 UNL     1      20.731   1.123  52.705  1.00  0.00     0.124 A 
HETATM    7  N2  UNL     1      21.633   1.680  51.757  1.00  0.00    -0.309 N 
ENDROOT
BRANCH   5   8
HETATM    8  N1  UNL     1      18.772  -0.125  53.094  1.00  0.00    -0.361 N 
HETATM    9  H7  UNL     1      18.780   0.349  54.045  1.00  0.00     0.165 HD
BRANCH   8  10
HETATM   10  C6  UNL     1      17.796  -1.174  53.123  1.00  0.00     0.012 C 
HETATM   11  C7  UNL     1      18.274  -2.288  53.633  1.00  0.00     0.026 C 
HETATM   12  C8  UNL     1      17.520  -3.523  53.792  1.00  0.00     0.016 C 
HETATM   13  C9  UNL     1      16.356  -3.865  53.280  1.00  0.00     0.001 C 
HETATM   14  C11 UNL     1      15.474  -3.107  52.399  1.00  0.00     0.011 C 
HETATM   15  C12 UNL     1      15.602  -1.812  52.159  1.00  0.00    -0.020 C 
HETATM   16  C13 UNL     1      16.495  -0.724  52.566  1.00  0.00     0.084 C 
BRANCH  13  17
HETATM   17  C10 UNL     1      15.859  -5.190  53.632  1.00  0.00     0.269 C 
HETATM   18  O1  UNL     1      15.405  -5.476  54.787  1.00  0.00    -0.301 OA
ENDBRANCH  13  17
ENDBRANCH   8  10
ENDBRANCH   5   8
BRANCH   7  19
HETATM   19  C15 UNL     1      22.746   2.405  52.261  1.00  0.00     0.146 A 
HETATM   20  N3  UNL     1      22.761   3.661  52.540  1.00  0.00    -0.241 NA
HETATM   21  C16 UNL     1      24.139   3.620  52.960  1.00  0.00     0.135 A 
HETATM   22  C17 UNL     1      24.141   2.312  52.675  1.00  0.00     0.040 A 
BRANCH  22  23
HETATM   23  C18 UNL     1      25.020   1.147  52.694  1.00  0.00    -0.003 A 
HETATM   24  C19 UNL     1      26.063   0.853  51.848  1.00  0.00     0.015 A 
HETATM   25  C20 UNL     1      26.794  -0.298  52.011  1.00  0.00     0.020 A 
HETATM   26  C21 UNL     1      26.484  -1.175  53.033  1.00  0.00     0.116 A 
HETATM   27  N4  UNL     1      25.475  -0.901  53.858  1.00  0.00    -0.272 NA
HETATM   28  C22 UNL     1      24.744   0.229  53.714  1.00  0.00     0.128 A 
ENDBRANCH  22  23
ENDBRANCH   7  19
TORSDOF 5
ENDMDL
MODEL 7
REMARK VINA RESULT:      -7.9      4.453      8.222
REMARK  5 active torsions:
REMARK  status: ('A' for Active; 'I' for Inactive)
REMARK    1  A    between atoms: C5_5  and  N1_6 
REMARK    2  A    between atoms: N1_6  and  C6_7 
REMARK    3  A    between atoms: C9_10  and  C10_11 
REMARK    4  A    between atoms: N2_17  and  C15_18 
REMARK    5  A    between atoms: C17_21  and  C18_22 
ROOT
HETATM    1  C1  UNL     1      23.815   5.329  52.380  1.00  0.00     0.068 C 
HETATM    2  C2  UNL     1      22.848   4.285  51.940  1.00  0.00     0.011 A 
HETATM    3  C3  UNL     1      21.564   4.323  52.262  1.00  0.00     0.004 A 
HETATM    4  C4  UNL     1      20.478   3.372  51.910  1.00  0.00     0.087 A 
HETATM    5  C5  UNL     1      21.077   2.294  51.083  1.00  0.00     0.029 A 
HETATM    6  C14 UNL     1      22.335   2.154  50.701  1.00  0.00     0.124 A 
HETATM    7  N2  UNL     1      23.226   3.171  51.142  1.00  0.00    -0.309 N 
ENDROOT
BRANCH   5   8
HETATM    8  N1  UNL     1      20.138   1.308  50.673  1.00  0.00    -0.361 N 
HETATM    9  H7  UNL     1      20.089   1.214  49.616  1.00  0.00     0.165 HD
BRANCH   8  10
HETATM   10  C6  UNL     1      19.214   0.378  51.250  1.00  0.00     0.012 C 
HETATM   11  C7  UNL     1      18.073   0.334  50.596  1.00  0.00     0.026 C 
HETATM   12  C8  UNL     1      16.944  -0.516  50.945  1.00  0.00     0.016 C 
HETATM   13  C9  UNL     1      16.721  -1.200  52.048  1.00  0.00     0.001 C 
HETATM   14  C11 UNL     1      17.539  -1.310  53.250  1.00  0.00     0.011 C 
HETATM   15  C12 UNL     1      18.799  -0.912  53.327  1.00  0.00    -0.020 C 
HETATM   16  C13 UNL     1      19.790  -0.296  52.442  1.00  0.00     0.084 C 
BRANCH  13  17
HETATM   17  C10 UNL     1      15.479  -1.964  52.093  1.00  0.00     0.269 C 
HETATM   18  O1  UNL     1      15.372  -3.075  52.707  1.00  0.00    -0.301 OA
ENDBRANCH  13  17
ENDBRANCH   8  10
ENDBRANCH   5   8
BRANCH   7  19
HETATM   19  C15 UNL     1      24.589   3.060  50.753  1.00  0.00     0.146 A 
HETATM   20  N3  UNL     1      25.128   3.627  49.732  1.00  0.00    -0.241 NA
HETATM   21  C16 UNL     1      26.422   3.061  50.016  1.00  0.00     0.135 A 
HETATM   22  C17 UNL     1      25.877   2.464  51.083  1.00  0.00     0.040 A 
BRANCH  22  23
HETATM   23  C18 UNL     1      26.228   1.583  52.193  1.00  0.00    -0.003 A 
HETATM   24  C19 UNL     1      26.589   0.257  52.146  1.00  0.00     0.015 A 
HETATM   25  C20 UNL     1      26.889  -0.428  53.298  1.00  0.00     0.020 A 
HETATM   26  C21 UNL     1      26.831   0.216  54.521  1.00  0.00     0.116 A 
HETATM   27  N4  UNL     1      26.482   1.500  54.578  1.00  0.00    -0.272 NA
HETATM   28  C22 UNL     1      26.182   2.192  53.453  1.00  0.00     0.128 A 
ENDBRANCH  22  23
ENDBRANCH   7  19
TORSDOF 5
ENDMDL
MODEL 8
REMARK VINA RESULT:      -7.9      4.662      8.102
REMARK  5 active torsions:
REMARK  status: ('A' for Active; 'I' for Inactive)
REMARK    1  A    between atoms: C5_5  and  N1_6 
REMARK    2  A    between atoms: N1_6  and  C6_7 
REMARK    3  A    between atoms: C9_10  and  C10_11 
REMARK    4  A    between atoms: N2_17  and  C15_18 
REMARK    5  A    between atoms: C17_21  and  C18_22 
ROOT
HETATM    1  C1  UNL     1      16.748  -0.698  51.791  1.00  0.00     0.068 C 
HETATM    2  C2  UNL     1      18.122  -0.271  52.176  1.00  0.00     0.011 A 
HETATM    3  C3  UNL     1      18.856  -0.938  53.054  1.00  0.00     0.004 A 
HETATM    4  C4  UNL     1      20.228  -0.649  53.543  1.00  0.00     0.087 A 
HETATM    5  C5  UNL     1      20.699   0.582  52.859  1.00  0.00     0.029 A 
HETATM    6  C14 UNL     1      20.059   1.325  51.972  1.00  0.00     0.124 A 
HETATM    7  N2  UNL     1      18.750   0.883  51.632  1.00  0.00    -0.309 N 
ENDROOT
BRANCH   5   8
HETATM    8  N1  UNL     1      22.012   0.974  53.240  1.00  0.00    -0.361 N 
HETATM    9  H7  UNL     1      22.008   1.655  54.055  1.00  0.00     0.165 HD
BRANCH   8  10
HETATM   10  C6  UNL     1      23.373   0.733  52.862  1.00  0.00     0.012 C 
HETATM   11  C7  UNL     1      23.943  -0.191  53.604  1.00  0.00     0.026 C 
HETATM   12  C8  UNL     1      25.317  -0.648  53.457  1.00  0.00     0.016 C 
HETATM   13  C9  UNL     1      26.307  -0.117  52.770  1.00  0.00     0.001 C 
HETATM   14  C11 UNL     1      26.322   1.089  51.950  1.00  0.00     0.011 C 
HETATM   15  C12 UNL     1      25.233   1.735  51.563  1.00  0.00    -0.020 C 
HETATM   16  C13 UNL     1      23.784   1.596  51.724  1.00  0.00     0.084 C 
BRANCH  13  17
HETATM   17  C10 UNL     1      27.582  -0.823  52.824  1.00  0.00     0.269 C 
HETATM   18  O1  UNL     1      28.065  -1.301  53.902  1.00  0.00    -0.301 OA
ENDBRANCH  13  17
ENDBRANCH   8  10
ENDBRANCH   5   8
BRANCH   7  19
HETATM   19  C15 UNL     1      18.027   1.652  50.681  1.00  0.00     0.146 A 
HETATM   20  N3  UNL     1      18.326   1.783  49.436  1.00  0.00    -0.241 NA
HETATM   21  C16 UNL     1      17.197   2.644  49.187  1.00  0.00     0.135 A 
HETATM   22  C17 UNL     1      16.873   2.519  50.479  1.00  0.00     0.040 A 
BRANCH  22  23
HETATM   23  C18 UNL     1      15.871   2.958  51.446  1.00  0.00    -0.003 A 
HETATM   24  C19 UNL     1      14.617   2.439  51.669  1.00  0.00     0.015 A 
HETATM   25  C20 UNL     1      13.796   2.980  52.627  1.00  0.00     0.020 A 
HETATM   26  C21 UNL     1      14.226   4.057  53.379  1.00  0.00     0.116 A 
HETATM   27  N4  UNL     1      15.438   4.569  53.172  1.00  0.00    -0.272 NA
HETATM   28  C22 UNL     1      16.263   4.049  52.231  1.00  0.00     0.128 A 
ENDBRANCH  22  23
ENDBRANCH   7  19
TORSDOF 5
ENDMDL
MODEL 9
REMARK VINA RESULT:      -7.9      4.677      9.584
REMARK  5 active torsions:
REMARK  status: ('A' for Active; 'I' for Inactive)
REMARK    1  A    between atoms: C5_5  and  N1_6 
REMARK    2  A    between atoms: N1_6  and  C6_7 
REMARK    3  A    between atoms: C9_10  and  C10_11 
REMARK    4  A    between atoms: N2_17  and  C15_18 
REMARK    5  A    between atoms: C17_21  and  C18_22 
ROOT
HETATM    1  C1  UNL     1      32.034   8.594  45.230  1.00  0.00     0.068 C 
HETATM    2  C2  UNL     1      30.972   8.127  46.164  1.00  0.00     0.011 A 
HETATM    3  C3  UNL     1      29.689   8.115  45.836  1.00  0.00     0.004 A 
HETATM    4  C4  UNL     1      28.517   7.686  46.642  1.00  0.00     0.087 A 
HETATM    5  C5  UNL     1      29.021   7.237  47.964  1.00  0.00     0.029 A 
HETATM    6  C14 UNL     1      30.270   7.204  48.399  1.00  0.00     0.124 A 
HETATM    7  N2  UNL     1      31.253   7.658  47.477  1.00  0.00    -0.309 N 
ENDROOT
BRANCH   5   8
HETATM    8  N1  UNL     1      27.993   6.796  48.841  1.00  0.00    -0.361 N 
HETATM    9  H7  UNL     1      28.015   7.304  49.774  1.00  0.00     0.165 HD
BRANCH   8  10
HETATM   10  C6  UNL     1      26.909   5.859  48.865  1.00  0.00     0.012 C 
HETATM   11  C7  UNL     1      25.736   6.448  48.788  1.00  0.00     0.026 C 
HETATM   12  C8  UNL     1      24.455   5.758  48.790  1.00  0.00     0.016 C 
HETATM   13  C9  UNL     1      24.178   4.507  49.092  1.00  0.00     0.001 C 
HETATM   14  C11 UNL     1      25.075   3.438  49.517  1.00  0.00     0.011 C 
HETATM   15  C12 UNL     1      26.394   3.500  49.432  1.00  0.00    -0.020 C 
HETATM   16  C13 UNL     1      27.400   4.460  48.970  1.00  0.00     0.084 C 
BRANCH  13  17
HETATM   17  C10 UNL     1      22.777   4.113  48.995  1.00  0.00     0.269 C 
HETATM   18  O1  UNL     1      21.928   4.338  49.918  1.00  0.00    -0.301 OA
ENDBRANCH  13  17
ENDBRANCH   8  10
ENDBRANCH   5   8
BRANCH   7  19
HETATM   19  C15 UNL     1      32.608   7.639  47.904  1.00  0.00     0.146 A 
HETATM   20  N3  UNL     1      33.173   8.520  48.652  1.00  0.00    -0.241 NA
HETATM   21  C16 UNL     1      34.439   7.832  48.621  1.00  0.00     0.135 A 
HETATM   22  C17 UNL     1      33.867   6.907  47.842  1.00  0.00     0.040 A 
BRANCH  22  23
HETATM   23  C18 UNL     1      34.176   5.662  47.144  1.00  0.00    -0.003 A 
HETATM   24  C19 UNL     1      34.022   5.375  45.808  1.00  0.00     0.015 A 
HETATM   25  C20 UNL     1      34.366   4.141  45.314  1.00  0.00     0.020 A 
HETATM   26  C21 UNL     1      34.873   3.173  46.161  1.00  0.00     0.116 A 
HETATM   27  N4  UNL     1      35.026   3.440  47.456  1.00  0.00    -0.272 NA
HETATM   28  C22 UNL     1      34.693   4.651  47.962  1.00  0.00     0.128 A 
ENDBRANCH  22  23
ENDBRANCH   7  19
TORSDOF 5
ENDMDL
