MODEL 1
REMARK VINA RESULT:      -8.0      0.000      0.000
REMARK  8 active torsions:
REMARK  status: ('A' for Active; 'I' for Inactive)
REMARK    1  A    between atoms: C1_2  and  C2_3 
REMARK    2  A    between atoms: C2_3  and  C3_4 
REMARK    3  A    between atoms: C3_4  and  C4_5 
REMARK    4  A    between atoms: C3_4  and  O1_7 
REMARK    5  A    between atoms: O1_7  and  C5_8 
REMARK    6  A    between atoms: C9_12  and  N1_13 
REMARK    7  A    between atoms: N1_13  and  C10_14 
REMARK    8  A    between atoms: C13_18  and  C14_19 
ROOT
HETATM    1  N1  UNL     1      24.074   3.712  52.674  1.00  0.00    -0.188 N 
HETATM    2  H11 UNL     1      23.781   4.395  53.416  1.00  0.00     0.184 HD
ENDROOT
BRANCH   1   3
HETATM    3  C9  UNL     1      24.543   2.459  53.102  1.00  0.00     0.052 A 
HETATM    4  C8  UNL     1      23.700   1.352  52.955  1.00  0.00     0.030 A 
HETATM    5  C7  UNL     1      24.031   0.073  53.330  1.00  0.00     0.005 A 
HETATM    6  C6  UNL     1      25.272  -0.145  53.888  1.00  0.00     0.037 A 
HETATM    7  C5  UNL     1      26.156   0.896  54.064  1.00  0.00     0.071 A 
HETATM    8  C19 UNL     1      25.761   2.156  53.666  1.00  0.00     0.066 A 
BRANCH   7   9
HETATM    9  O1  UNL     1      27.396   0.767  54.605  1.00  0.00    -0.343 OA
BRANCH   9  10
HETATM   10  C3  UNL     1      28.635   0.735  53.951  1.00  0.00     0.159 C 
BRANCH  10  11
HETATM   11  C2  UNL     1      29.410  -0.510  54.250  1.00  0.00     0.066 C 
BRANCH  11  12
HETATM   12  C1  UNL     1      29.257  -1.552  53.197  1.00  0.00     0.224 C 
HETATM   13  F1  UNL     1      29.434  -2.837  53.588  1.00  0.00    -0.255 F 
ENDBRANCH  11  12
ENDBRANCH  10  11
BRANCH  10  14
HETATM   14  C4  UNL     1      29.424   1.982  54.270  1.00  0.00     0.254 C 
HETATM   15  F2  UNL     1      29.038   3.043  53.469  1.00  0.00    -0.253 F 
ENDBRANCH  10  14
ENDBRANCH   9  10
ENDBRANCH   7   9
ENDBRANCH   1   3
BRANCH   1  16
HETATM   16  C10 UNL     1      23.950   4.170  51.338  1.00  0.00     0.727 A 
HETATM   17  N2  UNL     1      22.838   4.174  50.595  1.00  0.00    -0.075 NA
HETATM   18  C11 UNL     1      22.729   4.609  49.337  1.00  0.00     0.139 A 
HETATM   19  C12 UNL     1      23.850   5.106  48.720  1.00  0.00     0.053 A 
HETATM   20  C13 UNL     1      25.024   5.125  49.440  1.00  0.00     0.087 A 
HETATM   21  N4  UNL     1      25.017   4.664  50.696  1.00  0.00    -0.062 NA
BRANCH  20  22
HETATM   22  C14 UNL     1      26.278   5.629  48.891  1.00  0.00    -0.004 A 
HETATM   23  C15 UNL     1      27.353   4.772  48.818  1.00  0.00     0.033 A 
HETATM   24  C16 UNL     1      28.583   5.157  48.313  1.00  0.00     0.117 A 
HETATM   25  N3  UNL     1      28.701   6.439  47.881  1.00  0.00    -0.273 NA
HETATM   26  C17 UNL     1      27.692   7.320  47.925  1.00  0.00     0.117 A 
HETATM   27  C18 UNL     1      26.474   6.896  48.438  1.00  0.00     0.033 A 
ENDBRANCH  20  22
ENDBRANCH   1  16
TORSDOF 8
ENDMDL
MODEL 2
REMARK VINA RESULT:      -7.8      1.261      2.342
REMARK  8 active torsions:
REMARK  status: ('A' for Active; 'I' for Inactive)
REMARK    1  A    between atoms: C1_2  and  C2_3 
REMARK    2  A    between atoms: C2_3  and  C3_4 
REMARK    3  A    between atoms: C3_4  and  C4_5 
REMARK    4  A    between atoms: C3_4  and  O1_7 
REMARK    5  A    between atoms: O1_7  and  C5_8 
REMARK    6  A    between atoms: C9_12  and  N1_13 
REMARK    7  A    between atoms: N1_13  and  C10_14 
REMARK    8  A    between atoms: C13_18  and  C14_19 
ROOT
HETATM    1  N1  UNL     1      23.572   1.754  51.267  1.00  0.00    -0.188 N 
HETATM    2  H11 UNL     1      22.877   1.290  50.630  1.00  0.00     0.184 HD
ENDROOT
BRANCH   1   3
HETATM    3  C9  UNL     1      24.324   0.924  52.114  1.00  0.00     0.052 A 
HETATM    4  C8  UNL     1      23.671   0.309  53.188  1.00  0.00     0.030 A 
HETATM    5  C7  UNL     1      24.285  -0.524  54.090  1.00  0.00     0.005 A 
HETATM    6  C6  UNL     1      25.630  -0.778  53.937  1.00  0.00     0.037 A 
HETATM    7  C5  UNL     1      26.340  -0.209  52.904  1.00  0.00     0.071 A 
HETATM    8  C19 UNL     1      25.663   0.619  52.032  1.00  0.00     0.066 A 
BRANCH   7   9
HETATM    9  O1  UNL     1      27.666  -0.406  52.682  1.00  0.00    -0.343 OA
BRANCH   9  10
HETATM   10  C3  UNL     1      28.680  -0.654  53.618  1.00  0.00     0.159 C 
BRANCH  10  11
HETATM   11  C2  UNL     1      29.688   0.450  53.677  1.00  0.00     0.066 C 
BRANCH  11  12
HETATM   12  C1  UNL     1      29.185   1.653  54.398  1.00  0.00     0.224 C 
HETATM   13  F1  UNL     1      29.012   2.773  53.655  1.00  0.00    -0.255 F 
ENDBRANCH  11  12
ENDBRANCH  10  11
BRANCH  10  14
HETATM   14  C4  UNL     1      29.323  -1.993  53.345  1.00  0.00     0.254 C 
HETATM   15  F2  UNL     1      28.409  -2.899  52.838  1.00  0.00    -0.253 F 
ENDBRANCH  10  14
ENDBRANCH   9  10
ENDBRANCH   7   9
ENDBRANCH   1   3
BRANCH   1  16
HETATM   16  C10 UNL     1      23.640   3.167  51.168  1.00  0.00     0.727 A 
HETATM   17  N2  UNL     1      22.777   4.047  51.690  1.00  0.00    -0.075 NA
HETATM   18  C11 UNL     1      22.850   5.377  51.593  1.00  0.00     0.139 A 
HETATM   19  C12 UNL     1      23.899   5.924  50.898  1.00  0.00     0.053 A 
HETATM   20  C13 UNL     1      24.818   5.063  50.340  1.00  0.00     0.087 A 
HETATM   21  N4  UNL     1      24.647   3.746  50.501  1.00  0.00    -0.062 NA
BRANCH  20  22
HETATM   22  C14 UNL     1      25.974   5.527  49.581  1.00  0.00    -0.004 A 
HETATM   23  C15 UNL     1      26.909   4.599  49.181  1.00  0.00     0.033 A 
HETATM   24  C16 UNL     1      28.039   4.942  48.456  1.00  0.00     0.117 A 
HETATM   25  N3  UNL     1      28.200   6.253  48.144  1.00  0.00    -0.273 NA
HETATM   26  C17 UNL     1      27.325   7.203  48.505  1.00  0.00     0.117 A 
HETATM   27  C18 UNL     1      26.205   6.820  49.231  1.00  0.00     0.033 A 
ENDBRANCH  20  22
ENDBRANCH   1  16
TORSDOF 8
ENDMDL
MODEL 3
REMARK VINA RESULT:      -7.7      3.264      7.047
REMARK  8 active torsions:
REMARK  status: ('A' for Active; 'I' for Inactive)
REMARK    1  A    between atoms: C1_2  and  C2_3 
REMARK    2  A    between atoms: C2_3  and  C3_4 
REMARK    3  A    between atoms: C3_4  and  C4_5 
REMARK    4  A    between atoms: C3_4  and  O1_7 
REMARK    5  A    between atoms: O1_7  and  C5_8 
REMARK    6  A    between atoms: C9_12  and  N1_13 
REMARK    7  A    between atoms: N1_13  and  C10_14 
REMARK    8  A    between atoms: C13_18  and  C14_19 
ROOT
HETATM    1  N1  UNL     1      25.342   3.963  49.389  1.00  0.00    -0.188 N 
HETATM    2  H11 UNL     1      24.694   3.588  48.653  1.00  0.00     0.184 HD
ENDROOT
BRANCH   1   3
HETATM    3  C9  UNL     1      26.344   4.854  48.972  1.00  0.00     0.052 A 
HETATM    4  C8  UNL     1      25.993   6.191  48.753  1.00  0.00     0.030 A 
HETATM    5  C7  UNL     1      26.872   7.164  48.345  1.00  0.00     0.005 A 
HETATM    6  C6  UNL     1      28.186   6.811  48.134  1.00  0.00     0.037 A 
HETATM    7  C5  UNL     1      28.607   5.515  48.329  1.00  0.00     0.071 A 
HETATM    8  C19 UNL     1      27.674   4.586  48.740  1.00  0.00     0.066 A 
BRANCH   7   9
HETATM    9  O1  UNL     1      29.883   5.086  48.144  1.00  0.00    -0.343 OA
BRANCH   9  10
HETATM   10  C3  UNL     1      31.038   5.849  47.920  1.00  0.00     0.159 C 
BRANCH  10  11
HETATM   11  C2  UNL     1      32.003   5.172  46.998  1.00  0.00     0.066 C 
BRANCH  11  12
HETATM   12  C1  UNL     1      32.102   3.705  47.243  1.00  0.00     0.224 C 
HETATM   13  F1  UNL     1      31.352   2.908  46.445  1.00  0.00    -0.255 F 
ENDBRANCH  11  12
ENDBRANCH  10  11
BRANCH  10  14
HETATM   14  C4  UNL     1      31.679   6.221  49.236  1.00  0.00     0.254 C 
HETATM   15  F2  UNL     1      31.251   7.462  49.673  1.00  0.00    -0.253 F 
ENDBRANCH  10  14
ENDBRANCH   9  10
ENDBRANCH   7   9
ENDBRANCH   1   3
BRANCH   1  16
HETATM   16  C10 UNL     1      25.098   3.503  50.708  1.00  0.00     0.727 A 
HETATM   17  N2  UNL     1      24.184   3.976  51.563  1.00  0.00    -0.075 NA
HETATM   18  C11 UNL     1      23.960   3.536  52.804  1.00  0.00     0.139 A 
HETATM   19  C12 UNL     1      24.727   2.500  53.277  1.00  0.00     0.053 A 
HETATM   20  C13 UNL     1      25.685   1.976  52.438  1.00  0.00     0.087 A 
HETATM   21  N4  UNL     1      25.821   2.495  51.212  1.00  0.00    -0.062 NA
BRANCH  20  22
HETATM   22  C14 UNL     1      26.559   0.875  52.828  1.00  0.00    -0.004 A 
HETATM   23  C15 UNL     1      27.596   1.138  53.694  1.00  0.00     0.033 A 
HETATM   24  C16 UNL     1      28.478   0.159  54.123  1.00  0.00     0.117 A 
HETATM   25  N3  UNL     1      28.284  -1.099  53.651  1.00  0.00    -0.273 NA
HETATM   26  C17 UNL     1      27.292  -1.417  52.806  1.00  0.00     0.117 A 
HETATM   27  C18 UNL     1      26.429  -0.409  52.399  1.00  0.00     0.033 A 
ENDBRANCH  20  22
ENDBRANCH   1  16
TORSDOF 8
ENDMDL
MODEL 4
REMARK VINA RESULT:      -7.6      2.247      3.557
REMARK  8 active torsions:
REMARK  status: ('A' for Active; 'I' for Inactive)
REMARK    1  A    between atoms: C1_2  and  C2_3 
REMARK    2  A    between atoms: C2_3  and  C3_4 
REMARK    3  A    between atoms: C3_4  and  C4_5 
REMARK    4  A    between atoms: C3_4  and  O1_7 
REMARK    5  A    between atoms: O1_7  and  C5_8 
REMARK    6  A    between atoms: C9_12  and  N1_13 
REMARK    7  A    between atoms: N1_13  and  C10_14 
REMARK    8  A    between atoms: C13_18  and  C14_19 
ROOT
HETATM    1  N1  UNL     1      26.596   3.153  49.542  1.00  0.00    -0.188 N 
HETATM    2  H11 UNL     1      26.742   2.353  48.878  1.00  0.00     0.184 HD
ENDROOT
BRANCH   1   3
HETATM    3  C9  UNL     1      26.067   2.851  50.807  1.00  0.00     0.052 A 
HETATM    4  C8  UNL     1      24.690   3.005  51.003  1.00  0.00     0.030 A 
HETATM    5  C7  UNL     1      24.044   2.746  52.187  1.00  0.00     0.005 A 
HETATM    6  C6  UNL     1      24.792   2.306  53.257  1.00  0.00     0.037 A 
HETATM    7  C5  UNL     1      26.152   2.130  53.140  1.00  0.00     0.071 A 
HETATM    8  C19 UNL     1      26.739   2.408  51.923  1.00  0.00     0.066 A 
BRANCH   7   9
HETATM    9  O1  UNL     1      26.960   1.700  54.145  1.00  0.00    -0.343 OA
BRANCH   9  10
HETATM   10  C3  UNL     1      27.210   0.385  54.562  1.00  0.00     0.159 C 
BRANCH  10  11
HETATM   11  C2  UNL     1      28.660   0.137  54.840  1.00  0.00     0.066 C 
BRANCH  11  12
HETATM   12  C1  UNL     1      29.285  -0.792  53.857  1.00  0.00     0.224 C 
HETATM   13  F1  UNL     1      30.329  -0.304  53.145  1.00  0.00    -0.255 F 
ENDBRANCH  11  12
ENDBRANCH  10  11
BRANCH  10  14
HETATM   14  C4  UNL     1      26.652  -0.595  53.557  1.00  0.00     0.254 C 
HETATM   15  F2  UNL     1      25.391  -1.031  53.925  1.00  0.00    -0.253 F 
ENDBRANCH  10  14
ENDBRANCH   9  10
ENDBRANCH   7   9
ENDBRANCH   1   3
BRANCH   1  16
HETATM   16  C10 UNL     1      26.959   4.431  49.046  1.00  0.00     0.727 A 
HETATM   17  N2  UNL     1      26.146   5.477  48.861  1.00  0.00    -0.075 NA
HETATM   18  C11 UNL     1      26.497   6.678  48.395  1.00  0.00     0.139 A 
HETATM   19  C12 UNL     1      27.813   6.891  48.065  1.00  0.00     0.053 A 
HETATM   20  C13 UNL     1      28.694   5.846  48.236  1.00  0.00     0.087 A 
HETATM   21  N4  UNL     1      28.231   4.684  48.713  1.00  0.00    -0.062 NA
BRANCH  20  22
HETATM   22  C14 UNL     1      30.114   5.953  47.921  1.00  0.00    -0.004 A 
HETATM   23  C15 UNL     1      30.701   7.198  47.953  1.00  0.00     0.033 A 
HETATM   24  C16 UNL     1      32.041   7.400  47.670  1.00  0.00     0.117 A 
HETATM   25  N3  UNL     1      32.779   6.305  47.352  1.00  0.00    -0.273 NA
HETATM   26  C17 UNL     1      32.266   5.068  47.306  1.00  0.00     0.117 A 
HETATM   27  C18 UNL     1      30.918   4.906  47.595  1.00  0.00     0.033 A 
ENDBRANCH  20  22
ENDBRANCH   1  16
TORSDOF 8
ENDMDL
MODEL 5
REMARK VINA RESULT:      -7.5      2.082      3.338
REMARK  8 active torsions:
REMARK  status: ('A' for Active; 'I' for Inactive)
REMARK    1  A    between atoms: C1_2  and  C2_3 
REMARK    2  A    between atoms: C2_3  and  C3_4 
REMARK    3  A    between atoms: C3_4  and  C4_5 
REMARK    4  A    between atoms: C3_4  and  O1_7 
REMARK    5  A    between atoms: O1_7  and  C5_8 
REMARK    6  A    between atoms: C9_12  and  N1_13 
REMARK    7  A    between atoms: N1_13  and  C10_14 
REMARK    8  A    between atoms: C13_18  and  C14_19 
ROOT
HETATM    1  N1  UNL     1      21.612   0.859  52.246  1.00  0.00    -0.188 N 
HETATM    2  H11 UNL     1      20.649   1.086  52.600  1.00  0.00     0.184 HD
ENDROOT
BRANCH   1   3
HETATM    3  C9  UNL     1      22.487   0.209  53.131  1.00  0.00     0.052 A 
HETATM    4  C8  UNL     1      21.935  -0.543  54.174  1.00  0.00     0.030 A 
HETATM    5  C7  UNL     1      22.673  -1.228  55.108  1.00  0.00     0.005 A 
HETATM    6  C6  UNL     1      24.047  -1.178  55.020  1.00  0.00     0.037 A 
HETATM    7  C5  UNL     1      24.663  -0.459  54.021  1.00  0.00     0.071 A 
HETATM    8  C19 UNL     1      23.863   0.206  53.115  1.00  0.00     0.066 A 
BRANCH   7   9
HETATM    9  O1  UNL     1      26.009  -0.359  53.864  1.00  0.00    -0.343 OA
BRANCH   9  10
HETATM   10  C3  UNL     1      26.903   0.499  54.519  1.00  0.00     0.159 C 
BRANCH  10  11
HETATM   11  C2  UNL     1      26.887   1.884  53.954  1.00  0.00     0.066 C 
BRANCH  11  12
HETATM   12  C1  UNL     1      28.050   2.157  53.062  1.00  0.00     0.224 C 
HETATM   13  F1  UNL     1      29.007   2.981  53.554  1.00  0.00    -0.255 F 
ENDBRANCH  11  12
ENDBRANCH  10  11
BRANCH  10  14
HETATM   14  C4  UNL     1      28.290  -0.097  54.518  1.00  0.00     0.254 C 
HETATM   15  F2  UNL     1      28.402  -1.116  53.589  1.00  0.00    -0.253 F 
ENDBRANCH  10  14
ENDBRANCH   9  10
ENDBRANCH   7   9
ENDBRANCH   1   3
BRANCH   1  16
HETATM   16  C10 UNL     1      21.879   1.254  50.911  1.00  0.00     0.727 A 
HETATM   17  N2  UNL     1      21.249   0.828  49.810  1.00  0.00    -0.075 NA
HETATM   18  C11 UNL     1      21.507   1.206  48.555  1.00  0.00     0.139 A 
HETATM   19  C12 UNL     1      22.510   2.118  48.342  1.00  0.00     0.053 A 
HETATM   20  C13 UNL     1      23.193   2.590  49.441  1.00  0.00     0.087 A 
HETATM   21  N4  UNL     1      22.848   2.142  50.655  1.00  0.00    -0.062 NA
BRANCH  20  22
HETATM   22  C14 UNL     1      24.277   3.560  49.340  1.00  0.00    -0.004 A 
HETATM   23  C15 UNL     1      23.971   4.845  48.951  1.00  0.00     0.033 A 
HETATM   24  C16 UNL     1      24.930   5.836  48.827  1.00  0.00     0.117 A 
HETATM   25  N3  UNL     1      26.214   5.494  49.107  1.00  0.00    -0.273 NA
HETATM   26  C17 UNL     1      26.574   4.261  49.491  1.00  0.00     0.117 A 
HETATM   27  C18 UNL     1      25.584   3.295  49.604  1.00  0.00     0.033 A 
ENDBRANCH  20  22
ENDBRANCH   1  16
TORSDOF 8
ENDMDL
MODEL 6
REMARK VINA RESULT:      -7.3      2.427      3.924
REMARK  8 active torsions:
REMARK  status: ('A' for Active; 'I' for Inactive)
REMARK    1  A    between atoms: C1_2  and  C2_3 
REMARK    2  A    between atoms: C2_3  and  C3_4 
REMARK    3  A    between atoms: C3_4  and  C4_5 
REMARK    4  A    between atoms: C3_4  and  O1_7 
REMARK    5  A    between atoms: O1_7  and  C5_8 
REMARK    6  A    between atoms: C9_12  and  N1_13 
REMARK    7  A    between atoms: N1_13  and  C10_14 
REMARK    8  A    between atoms: C13_18  and  C14_19 
ROOT
HETATM    1  N1  UNL     1      26.530   3.497  49.294  1.00  0.00    -0.188 N 
HETATM    2  H11 UNL     1      26.478   2.750  48.558  1.00  0.00     0.184 HD
ENDROOT
BRANCH   1   3
HETATM    3  C9  UNL     1      26.051   3.174  50.574  1.00  0.00     0.052 A 
HETATM    4  C8  UNL     1      24.763   3.594  50.924  1.00  0.00     0.030 A 
HETATM    5  C7  UNL     1      24.173   3.347  52.139  1.00  0.00     0.005 A 
HETATM    6  C6  UNL     1      24.887   2.640  53.081  1.00  0.00     0.037 A 
HETATM    7  C5  UNL     1      26.161   2.194  52.810  1.00  0.00     0.071 A 
HETATM    8  C19 UNL     1      26.695   2.475  51.570  1.00  0.00     0.066 A 
BRANCH   7   9
HETATM    9  O1  UNL     1      26.931   1.491  53.682  1.00  0.00    -0.343 OA
BRANCH   9  10
HETATM   10  C3  UNL     1      27.610   0.283  53.470  1.00  0.00     0.159 C 
BRANCH  10  11
HETATM   11  C2  UNL     1      26.679  -0.861  53.219  1.00  0.00     0.066 C 
BRANCH  11  12
HETATM   12  C1  UNL     1      25.513  -0.871  54.146  1.00  0.00     0.224 C 
HETATM   13  F1  UNL     1      24.302  -0.614  53.596  1.00  0.00    -0.255 F 
ENDBRANCH  11  12
ENDBRANCH  10  11
BRANCH  10  14
HETATM   14  C4  UNL     1      28.549   0.006  54.620  1.00  0.00     0.254 C 
HETATM   15  F2  UNL     1      29.583  -0.830  54.237  1.00  0.00    -0.253 F 
ENDBRANCH  10  14
ENDBRANCH   9  10
ENDBRANCH   7   9
ENDBRANCH   1   3
BRANCH   1  16
HETATM   16  C10 UNL     1      27.084   4.732  48.872  1.00  0.00     0.727 A 
HETATM   17  N2  UNL     1      26.430   5.888  48.714  1.00  0.00    -0.075 NA
HETATM   18  C11 UNL     1      26.959   7.048  48.317  1.00  0.00     0.139 A 
HETATM   19  C12 UNL     1      28.302   7.089  48.035  1.00  0.00     0.053 A 
HETATM   20  C13 UNL     1      29.025   5.925  48.180  1.00  0.00     0.087 A 
HETATM   21  N4  UNL     1      28.389   4.820  48.586  1.00  0.00    -0.062 NA
BRANCH  20  22
HETATM   22  C14 UNL     1      30.456   5.846  47.911  1.00  0.00    -0.004 A 
HETATM   23  C15 UNL     1      31.212   6.989  48.045  1.00  0.00     0.033 A 
HETATM   24  C16 UNL     1      32.577   7.014  47.813  1.00  0.00     0.117 A 
HETATM   25  N3  UNL     1      33.162   5.847  47.438  1.00  0.00    -0.273 NA
HETATM   26  C17 UNL     1      32.481   4.702  47.291  1.00  0.00     0.117 A 
HETATM   27  C18 UNL     1      31.114   4.718  47.533  1.00  0.00     0.033 A 
ENDBRANCH  20  22
ENDBRANCH   1  16
TORSDOF 8
ENDMDL
MODEL 7
REMARK VINA RESULT:      -7.3      3.330      6.971
REMARK  8 active torsions:
REMARK  status: ('A' for Active; 'I' for Inactive)
REMARK    1  A    between atoms: C1_2  and  C2_3 
REMARK    2  A    between atoms: C2_3  and  C3_4 
REMARK    3  A    between atoms: C3_4  and  C4_5 
REMARK    4  A    between atoms: C3_4  and  O1_7 
REMARK    5  A    between atoms: O1_7  and  C5_8 
REMARK    6  A    between atoms: C9_12  and  N1_13 
REMARK    7  A    between atoms: N1_13  and  C10_14 
REMARK    8  A    between atoms: C13_18  and  C14_19 
ROOT
HETATM    1  N1  UNL     1      25.110   4.904  49.043  1.00  0.00    -0.188 N 
HETATM    2  H11 UNL     1      24.428   4.700  48.272  1.00  0.00     0.184 HD
ENDROOT
BRANCH   1   3
HETATM    3  C9  UNL     1      26.323   5.516  48.685  1.00  0.00     0.052 A 
HETATM    4  C8  UNL     1      26.296   6.861  48.299  1.00  0.00     0.030 A 
HETATM    5  C7  UNL     1      27.405   7.580  47.926  1.00  0.00     0.005 A 
HETATM    6  C6  UNL     1      28.627   6.945  47.927  1.00  0.00     0.037 A 
HETATM    7  C5  UNL     1      28.733   5.622  48.295  1.00  0.00     0.071 A 
HETATM    8  C19 UNL     1      27.580   4.958  48.660  1.00  0.00     0.066 A 
BRANCH   7   9
HETATM    9  O1  UNL     1      29.898   4.924  48.324  1.00  0.00    -0.343 OA
BRANCH   9  10
HETATM   10  C3  UNL     1      31.171   5.330  47.901  1.00  0.00     0.159 C 
BRANCH  10  11
HETATM   11  C2  UNL     1      31.839   4.311  47.033  1.00  0.00     0.066 C 
BRANCH  11  12
HETATM   12  C1  UNL     1      32.838   3.489  47.772  1.00  0.00     0.224 C 
HETATM   13  F1  UNL     1      34.026   3.284  47.155  1.00  0.00    -0.255 F 
ENDBRANCH  11  12
ENDBRANCH  10  11
BRANCH  10  14
HETATM   14  C4  UNL     1      32.020   5.703  49.092  1.00  0.00     0.254 C 
HETATM   15  F2  UNL     1      31.493   6.788  49.770  1.00  0.00    -0.253 F 
ENDBRANCH  10  14
ENDBRANCH   9  10
ENDBRANCH   7   9
ENDBRANCH   1   3
BRANCH   1  16
HETATM   16  C10 UNL     1      24.694   4.522  50.344  1.00  0.00     0.727 A 
HETATM   17  N2  UNL     1      23.981   5.259  51.203  1.00  0.00    -0.075 NA
HETATM   18  C11 UNL     1      23.592   4.891  52.426  1.00  0.00     0.139 A 
HETATM   19  C12 UNL     1      23.943   3.642  52.874  1.00  0.00     0.053 A 
HETATM   20  C13 UNL     1      24.680   2.840  52.029  1.00  0.00     0.087 A 
HETATM   21  N4  UNL     1      25.014   3.313  50.822  1.00  0.00    -0.062 NA
BRANCH  20  22
HETATM   22  C14 UNL     1      25.111   1.496  52.394  1.00  0.00    -0.004 A 
HETATM   23  C15 UNL     1      26.291   1.021  51.867  1.00  0.00     0.033 A 
HETATM   24  C16 UNL     1      26.783  -0.241  52.154  1.00  0.00     0.117 A 
HETATM   25  N3  UNL     1      26.048  -1.017  52.992  1.00  0.00    -0.273 NA
HETATM   26  C17 UNL     1      24.892  -0.611  53.537  1.00  0.00     0.117 A 
HETATM   27  C18 UNL     1      24.432   0.661  53.225  1.00  0.00     0.033 A 
ENDBRANCH  20  22
ENDBRANCH   1  16
TORSDOF 8
ENDMDL
MODEL 8
REMARK VINA RESULT:      -7.3      2.856      6.278
REMARK  8 active torsions:
REMARK  status: ('A' for Active; 'I' for Inactive)
REMARK    1  A    between atoms: C1_2  and  C2_3 
REMARK    2  A    between atoms: C2_3  and  C3_4 
REMARK    3  A    between atoms: C3_4  and  C4_5 
REMARK    4  A    between atoms: C3_4  and  O1_7 
REMARK    5  A    between atoms: O1_7  and  C5_8 
REMARK    6  A    between atoms: C9_12  and  N1_13 
REMARK    7  A    between atoms: N1_13  and  C10_14 
REMARK    8  A    between atoms: C13_18  and  C14_19 
ROOT
HETATM    1  N1  UNL     1      23.088   4.529  51.564  1.00  0.00    -0.188 N 
HETATM    2  H11 UNL     1      23.025   5.546  51.820  1.00  0.00     0.184 HD
ENDROOT
BRANCH   1   3
HETATM    3  C9  UNL     1      24.314   4.069  51.055  1.00  0.00     0.052 A 
HETATM    4  C8  UNL     1      24.848   4.711  49.933  1.00  0.00     0.030 A 
HETATM    5  C7  UNL     1      26.035   4.364  49.336  1.00  0.00     0.005 A 
HETATM    6  C6  UNL     1      26.754   3.317  49.868  1.00  0.00     0.037 A 
HETATM    7  C5  UNL     1      26.292   2.636  50.973  1.00  0.00     0.071 A 
HETATM    8  C19 UNL     1      25.092   3.036  51.524  1.00  0.00     0.066 A 
BRANCH   7   9
HETATM    9  O1  UNL     1      26.938   1.595  51.559  1.00  0.00    -0.343 OA
BRANCH   9  10
HETATM   10  C3  UNL     1      27.133   1.345  52.924  1.00  0.00     0.159 C 
BRANCH  10  11
HETATM   11  C2  UNL     1      28.582   1.247  53.288  1.00  0.00     0.066 C 
BRANCH  11  12
HETATM   12  C1  UNL     1      29.034  -0.160  53.479  1.00  0.00     0.224 C 
HETATM   13  F1  UNL     1      30.349  -0.340  53.749  1.00  0.00    -0.255 F 
ENDBRANCH  11  12
ENDBRANCH  10  11
BRANCH  10  14
HETATM   14  C4  UNL     1      26.360   0.118  53.345  1.00  0.00     0.254 C 
HETATM   15  F2  UNL     1      25.372  -0.195  52.428  1.00  0.00    -0.253 F 
ENDBRANCH  10  14
ENDBRANCH   9  10
ENDBRANCH   7   9
ENDBRANCH   1   3
BRANCH   1  16
HETATM   16  C10 UNL     1      21.908   3.772  51.773  1.00  0.00     0.727 A 
HETATM   17  N2  UNL     1      20.668   4.104  51.396  1.00  0.00    -0.075 NA
HETATM   18  C11 UNL     1      19.561   3.384  51.596  1.00  0.00     0.139 A 
HETATM   19  C12 UNL     1      19.674   2.183  52.251  1.00  0.00     0.053 A 
HETATM   20  C13 UNL     1      20.929   1.792  52.662  1.00  0.00     0.087 A 
HETATM   21  N4  UNL     1      21.970   2.594  52.406  1.00  0.00    -0.062 NA
BRANCH  20  22
HETATM   22  C14 UNL     1      21.174   0.538  53.365  1.00  0.00    -0.004 A 
HETATM   23  C15 UNL     1      20.137  -0.360  53.483  1.00  0.00     0.033 A 
HETATM   24  C16 UNL     1      20.272  -1.577  54.131  1.00  0.00     0.117 A 
HETATM   25  N3  UNL     1      21.488  -1.864  54.661  1.00  0.00    -0.273 NA
HETATM   26  C17 UNL     1      22.536  -1.032  54.579  1.00  0.00     0.117 A 
HETATM   27  C18 UNL     1      22.362   0.178  53.921  1.00  0.00     0.033 A 
ENDBRANCH  20  22
ENDBRANCH   1  16
TORSDOF 8
ENDMDL
MODEL 9
REMARK VINA RESULT:      -7.2      3.432      6.820
REMARK  8 active torsions:
REMARK  status: ('A' for Active; 'I' for Inactive)
REMARK    1  A    between atoms: C1_2  and  C2_3 
REMARK    2  A    between atoms: C2_3  and  C3_4 
REMARK    3  A    between atoms: C3_4  and  C4_5 
REMARK    4  A    between atoms: C3_4  and  O1_7 
REMARK    5  A    between atoms: O1_7  and  C5_8 
REMARK    6  A    between atoms: C9_12  and  N1_13 
REMARK    7  A    between atoms: N1_13  and  C10_14 
REMARK    8  A    between atoms: C13_18  and  C14_19 
ROOT
HETATM    1  N1  UNL     1      21.196   1.244  52.182  1.00  0.00    -0.188 N 
HETATM    2  H11 UNL     1      20.236   1.564  52.463  1.00  0.00     0.184 HD
ENDROOT
BRANCH   1   3
HETATM    3  C9  UNL     1      21.683   1.682  50.939  1.00  0.00     0.052 A 
HETATM    4  C8  UNL     1      21.362   0.933  49.801  1.00  0.00     0.030 A 
HETATM    5  C7  UNL     1      21.770   1.247  48.529  1.00  0.00     0.005 A 
HETATM    6  C6  UNL     1      22.547   2.371  48.349  1.00  0.00     0.037 A 
HETATM    7  C5  UNL     1      22.903   3.158  49.421  1.00  0.00     0.071 A 
HETATM    8  C19 UNL     1      22.459   2.787  50.673  1.00  0.00     0.066 A 
BRANCH   7   9
HETATM    9  O1  UNL     1      23.664   4.280  49.331  1.00  0.00    -0.343 OA
BRANCH   9  10
HETATM   10  C3  UNL     1      25.060   4.385  49.257  1.00  0.00     0.159 C 
BRANCH  10  11
HETATM   11  C2  UNL     1      25.735   3.957  50.522  1.00  0.00     0.066 C 
BRANCH  11  12
HETATM   12  C1  UNL     1      26.544   2.718  50.353  1.00  0.00     0.224 C 
HETATM   13  F1  UNL     1      26.459   1.801  51.347  1.00  0.00    -0.255 F 
ENDBRANCH  11  12
ENDBRANCH  10  11
BRANCH  10  14
HETATM   14  C4  UNL     1      25.455   5.784  48.850  1.00  0.00     0.254 C 
HETATM   15  F2  UNL     1      26.718   5.808  48.285  1.00  0.00    -0.253 F 
ENDBRANCH  10  14
ENDBRANCH   9  10
ENDBRANCH   7   9
ENDBRANCH   1   3
BRANCH   1  16
HETATM   16  C10 UNL     1      21.858   0.407  53.115  1.00  0.00     0.727 A 
HETATM   17  N2  UNL     1      21.284  -0.340  54.066  1.00  0.00    -0.075 NA
HETATM   18  C11 UNL     1      21.916  -1.127  54.940  1.00  0.00     0.139 A 
HETATM   19  C12 UNL     1      23.285  -1.197  54.885  1.00  0.00     0.053 A 
HETATM   20  C13 UNL     1      23.928  -0.447  53.925  1.00  0.00     0.087 A 
HETATM   21  N4  UNL     1      23.193   0.307  53.098  1.00  0.00    -0.062 NA
BRANCH  20  22
HETATM   22  C14 UNL     1      25.378  -0.440  53.768  1.00  0.00    -0.004 A 
HETATM   23  C15 UNL     1      26.125   0.334  54.627  1.00  0.00     0.033 A 
HETATM   24  C16 UNL     1      27.507   0.406  54.558  1.00  0.00     0.117 A 
HETATM   25  N3  UNL     1      28.118  -0.329  53.594  1.00  0.00    -0.273 NA
HETATM   26  C17 UNL     1      27.445  -1.103  52.729  1.00  0.00     0.117 A 
HETATM   27  C18 UNL     1      26.061  -1.148  52.830  1.00  0.00     0.033 A 
ENDBRANCH  20  22
ENDBRANCH   1  16
TORSDOF 8
ENDMDL
