MODEL 1
REMARK VINA RESULT:      -8.7      0.000      0.000
REMARK  4 active torsions:
REMARK  status: ('A' for Active; 'I' for Inactive)
REMARK    1  A    between atoms: N1_1  and  C1_2 
REMARK    2  A    between atoms: N3_10  and  C7_11 
REMARK    3  A    between atoms: C8_12  and  C9_13 
REMARK    4  A    between atoms: C9_13  and  C10_14 
ROOT
HETATM    1  C1  UNL     1      21.303   2.988  51.592  1.00  0.00     0.032 A 
HETATM    2  C2  UNL     1      20.650   2.607  52.712  1.00  0.00     0.142 A 
HETATM    3  N2  UNL     1      20.330   1.373  52.025  1.00  0.00    -0.249 N 
HETATM    4  O1  UNL     1      20.306   0.480  50.985  1.00  0.00    -0.247 OA
HETATM    5  C3  UNL     1      20.998   0.974  49.830  1.00  0.00     0.177 A 
HETATM    6  C4  UNL     1      21.316   2.081  50.458  1.00  0.00    -0.004 A 
HETATM    7  C5  UNL     1      22.747   2.424  49.982  1.00  0.00     0.120 C 
HETATM    8  C6  UNL     1      23.640   1.853  51.121  1.00  0.00     0.108 C 
HETATM    9  N3  UNL     1      24.309   2.710  51.770  1.00  0.00    -0.247 NA
HETATM   10  N5  UNL     1      23.959   0.563  51.739  1.00  0.00    -0.347 N 
HETATM   11  C15 UNL     1      23.173   0.113  52.886  1.00  0.00     0.018 A 
HETATM   12  C16 UNL     1      23.218  -0.559  54.081  1.00  0.00     0.022 A 
HETATM   13  C17 UNL     1      22.033  -0.654  54.783  1.00  0.00    -0.017 A 
HETATM   14  C18 UNL     1      20.837  -0.114  54.347  1.00  0.00     0.055 A 
HETATM   15  C19 UNL     1      20.336   0.617  53.259  1.00  0.00     0.106 A 
HETATM   16  C20 UNL     1      21.763   0.367  53.065  1.00  0.00     0.080 A 
HETATM   17  H15 UNL     1      24.658  -0.159  51.527  1.00  0.00     0.167 HD
ENDROOT
BRANCH   9  18
HETATM   18  C7  UNL     1      25.171   2.443  52.826  1.00  0.00     0.115 C 
HETATM   19  C8  UNL     1      26.460   2.205  52.696  1.00  0.00    -0.003 C 
BRANCH  19  20
HETATM   20  C9  UNL     1      27.378   1.918  53.849  1.00  0.00     0.068 C 
BRANCH  20  21
HETATM   21  C10 UNL     1      28.036   0.580  53.657  1.00  0.00    -0.037 A 
HETATM   22  C11 UNL     1      29.415   0.433  53.739  1.00  0.00     0.010 A 
HETATM   23  C12 UNL     1      29.995  -0.827  53.556  1.00  0.00     0.020 A 
HETATM   24  C13 UNL     1      29.179  -1.911  53.294  1.00  0.00     0.116 A 
HETATM   25  N4  UNL     1      27.841  -1.760  53.216  1.00  0.00    -0.273 NA
HETATM   26  C14 UNL     1      27.271  -0.539  53.394  1.00  0.00     0.123 A 
ENDBRANCH  20  21
ENDBRANCH  19  20
ENDBRANCH   9  18
BRANCH   1  27
HETATM   27  N1  UNL     1      21.847   4.276  51.797  1.00  0.00    -0.301 NA
HETATM   28  H1  UNL     1      22.170   4.327  52.802  1.00  0.00     0.124 HD
HETATM   29  H2  UNL     1      22.220   4.486  52.770  1.00  0.00     0.124 HD
ENDBRANCH   1  27
TORSDOF 4
ENDMDL
MODEL 2
REMARK VINA RESULT:      -8.4      2.382      3.722
REMARK  4 active torsions:
REMARK  status: ('A' for Active; 'I' for Inactive)
REMARK    1  A    between atoms: N1_1  and  C1_2 
REMARK    2  A    between atoms: N3_10  and  C7_11 
REMARK    3  A    between atoms: C8_12  and  C9_13 
REMARK    4  A    between atoms: C9_13  and  C10_14 
ROOT
HETATM    1  C1  UNL     1      22.964   5.802  51.469  1.00  0.00     0.032 A 
HETATM    2  C2  UNL     1      22.197   5.052  52.291  1.00  0.00     0.142 A 
HETATM    3  N2  UNL     1      21.205   5.033  51.236  1.00  0.00    -0.249 N 
HETATM    4  O1  UNL     1      20.660   5.328  50.013  1.00  0.00    -0.247 OA
HETATM    5  C3  UNL     1      21.528   6.148  49.217  1.00  0.00     0.177 A 
HETATM    6  C4  UNL     1      22.443   6.144  50.158  1.00  0.00    -0.004 A 
HETATM    7  C5  UNL     1      23.795   6.073  49.412  1.00  0.00     0.120 C 
HETATM    8  C6  UNL     1      24.142   4.558  49.460  1.00  0.00     0.108 C 
HETATM    9  N3  UNL     1      25.183   4.257  50.115  1.00  0.00    -0.247 NA
HETATM   10  N5  UNL     1      23.604   3.281  48.980  1.00  0.00    -0.347 N 
HETATM   11  C15 UNL     1      22.689   2.531  49.837  1.00  0.00     0.018 A 
HETATM   12  C16 UNL     1      22.299   1.277  50.234  1.00  0.00     0.022 A 
HETATM   13  C17 UNL     1      21.288   1.210  51.172  1.00  0.00    -0.017 A 
HETATM   14  C18 UNL     1      20.672   2.322  51.716  1.00  0.00     0.055 A 
HETATM   15  C19 UNL     1      20.733   3.721  51.627  1.00  0.00     0.106 A 
HETATM   16  C20 UNL     1      21.719   3.129  50.724  1.00  0.00     0.080 A 
HETATM   17  H15 UNL     1      23.726   2.757  48.105  1.00  0.00     0.167 HD
ENDROOT
BRANCH   9  18
HETATM   18  C7  UNL     1      25.691   2.978  50.298  1.00  0.00     0.115 C 
HETATM   19  C8  UNL     1      26.202   2.531  51.427  1.00  0.00    -0.003 C 
BRANCH  19  20
HETATM   20  C9  UNL     1      26.747   1.144  51.608  1.00  0.00     0.068 C 
BRANCH  20  21
HETATM   21  C10 UNL     1      25.996   0.439  52.703  1.00  0.00    -0.037 A 
HETATM   22  C11 UNL     1      24.607   0.411  52.726  1.00  0.00     0.010 A 
HETATM   23  C12 UNL     1      23.939  -0.254  53.759  1.00  0.00     0.020 A 
HETATM   24  C13 UNL     1      24.680  -0.876  54.746  1.00  0.00     0.116 A 
HETATM   25  N4  UNL     1      26.027  -0.845  54.717  1.00  0.00    -0.273 NA
HETATM   26  C14 UNL     1      26.683  -0.201  53.715  1.00  0.00     0.123 A 
ENDBRANCH  20  21
ENDBRANCH  19  20
ENDBRANCH   9  18
BRANCH   1  27
HETATM   27  N1  UNL     1      24.174   6.110  52.131  1.00  0.00    -0.301 NA
HETATM   28  H1  UNL     1      24.235   7.162  52.207  1.00  0.00     0.124 HD
HETATM   29  H2  UNL     1      24.383   7.140  52.286  1.00  0.00     0.124 HD
ENDBRANCH   1  27
TORSDOF 4
ENDMDL
MODEL 3
REMARK VINA RESULT:      -8.3      2.876      4.677
REMARK  4 active torsions:
REMARK  status: ('A' for Active; 'I' for Inactive)
REMARK    1  A    between atoms: N1_1  and  C1_2 
REMARK    2  A    between atoms: N3_10  and  C7_11 
REMARK    3  A    between atoms: C8_12  and  C9_13 
REMARK    4  A    between atoms: C9_13  and  C10_14 
ROOT
HETATM    1  C1  UNL     1      23.049   5.505  51.642  1.00  0.00     0.032 A 
HETATM    2  C2  UNL     1      21.817   5.015  51.901  1.00  0.00     0.142 A 
HETATM    3  N2  UNL     1      21.506   5.246  50.506  1.00  0.00    -0.249 N 
HETATM    4  O1  UNL     1      21.728   5.653  49.216  1.00  0.00    -0.247 OA
HETATM    5  C3  UNL     1      23.049   6.184  49.035  1.00  0.00     0.177 A 
HETATM    6  C4  UNL     1      23.346   5.949  50.292  1.00  0.00    -0.004 A 
HETATM    7  C5  UNL     1      24.823   5.492  50.283  1.00  0.00     0.120 C 
HETATM    8  C6  UNL     1      24.709   3.941  50.313  1.00  0.00     0.108 C 
HETATM    9  N3  UNL     1      25.179   3.379  51.346  1.00  0.00    -0.247 NA
HETATM   10  N5  UNL     1      24.178   2.852  49.488  1.00  0.00    -0.347 N 
HETATM   11  C15 UNL     1      22.805   2.402  49.707  1.00  0.00     0.018 A 
HETATM   12  C16 UNL     1      21.971   1.313  49.718  1.00  0.00     0.022 A 
HETATM   13  C17 UNL     1      20.650   1.548  50.042  1.00  0.00    -0.017 A 
HETATM   14  C18 UNL     1      20.146   2.799  50.349  1.00  0.00     0.055 A 
HETATM   15  C19 UNL     1      20.591   4.124  50.465  1.00  0.00     0.106 A 
HETATM   16  C20 UNL     1      21.709   3.264  50.084  1.00  0.00     0.080 A 
HETATM   17  H15 UNL     1      24.579   2.295  48.724  1.00  0.00     0.167 HD
ENDROOT
BRANCH   9  18
HETATM   18  C7  UNL     1      25.191   2.014  51.599  1.00  0.00     0.115 C 
HETATM   19  C8  UNL     1      24.912   1.467  52.764  1.00  0.00    -0.003 C 
BRANCH  19  20
HETATM   20  C9  UNL     1      24.931  -0.012  53.020  1.00  0.00     0.068 C 
BRANCH  20  21
HETATM   21  C10 UNL     1      23.597  -0.454  53.555  1.00  0.00    -0.037 A 
HETATM   22  C11 UNL     1      22.421  -0.217  52.853  1.00  0.00     0.010 A 
HETATM   23  C12 UNL     1      21.197  -0.642  53.379  1.00  0.00     0.020 A 
HETATM   24  C13 UNL     1      21.179  -1.296  54.596  1.00  0.00     0.116 A 
HETATM   25  N4  UNL     1      22.324  -1.523  55.271  1.00  0.00    -0.273 NA
HETATM   26  C14 UNL     1      23.518  -1.113  54.765  1.00  0.00     0.123 A 
ENDBRANCH  20  21
ENDBRANCH  19  20
ENDBRANCH   9  18
BRANCH   1  27
HETATM   27  N1  UNL     1      23.808   5.483  52.834  1.00  0.00    -0.301 NA
HETATM   28  H1  UNL     1      23.202   5.879  53.603  1.00  0.00     0.124 HD
HETATM   29  H2  UNL     1      23.332   5.853  53.709  1.00  0.00     0.124 HD
ENDBRANCH   1  27
TORSDOF 4
ENDMDL
MODEL 4
REMARK VINA RESULT:      -8.2      2.470      3.414
REMARK  4 active torsions:
REMARK  status: ('A' for Active; 'I' for Inactive)
REMARK    1  A    between atoms: N1_1  and  C1_2 
REMARK    2  A    between atoms: N3_10  and  C7_11 
REMARK    3  A    between atoms: C8_12  and  C9_13 
REMARK    4  A    between atoms: C9_13  and  C10_14 
ROOT
HETATM    1  C1  UNL     1      22.948   5.813  51.448  1.00  0.00     0.032 A 
HETATM    2  C2  UNL     1      22.211   5.075  52.308  1.00  0.00     0.142 A 
HETATM    3  N2  UNL     1      21.193   5.017  51.280  1.00  0.00    -0.249 N 
HETATM    4  O1  UNL     1      20.614   5.275  50.064  1.00  0.00    -0.247 OA
HETATM    5  C3  UNL     1      21.450   6.084  49.226  1.00  0.00     0.177 A 
HETATM    6  C4  UNL     1      22.388   6.115  50.143  1.00  0.00    -0.004 A 
HETATM    7  C5  UNL     1      23.722   6.043  49.365  1.00  0.00     0.120 C 
HETATM    8  C6  UNL     1      24.090   4.533  49.441  1.00  0.00     0.108 C 
HETATM    9  N3  UNL     1      25.151   4.262  50.076  1.00  0.00    -0.247 NA
HETATM   10  N5  UNL     1      23.556   3.239  49.007  1.00  0.00    -0.347 N 
HETATM   11  C15 UNL     1      22.673   2.499  49.906  1.00  0.00     0.018 A 
HETATM   12  C16 UNL     1      22.309   1.251  50.344  1.00  0.00     0.022 A 
HETATM   13  C17 UNL     1      21.324   1.195  51.309  1.00  0.00    -0.017 A 
HETATM   14  C18 UNL     1      20.707   2.313  51.840  1.00  0.00     0.055 A 
HETATM   15  C19 UNL     1      20.748   3.709  51.715  1.00  0.00     0.106 A 
HETATM   16  C20 UNL     1      21.718   3.107  50.802  1.00  0.00     0.080 A 
HETATM   17  H15 UNL     1      23.662   2.694  48.143  1.00  0.00     0.167 HD
ENDROOT
BRANCH   9  18
HETATM   18  C7  UNL     1      25.679   2.994  50.278  1.00  0.00     0.115 C 
HETATM   19  C8  UNL     1      25.846   2.432  51.458  1.00  0.00    -0.003 C 
BRANCH  19  20
HETATM   20  C9  UNL     1      26.419   1.060  51.659  1.00  0.00     0.068 C 
BRANCH  20  21
HETATM   21  C10 UNL     1      27.480   1.100  52.722  1.00  0.00    -0.037 A 
HETATM   22  C11 UNL     1      28.072  -0.064  53.199  1.00  0.00     0.010 A 
HETATM   23  C12 UNL     1      29.057   0.009  54.190  1.00  0.00     0.020 A 
HETATM   24  C13 UNL     1      29.427   1.247  54.680  1.00  0.00     0.116 A 
HETATM   25  N4  UNL     1      28.849   2.372  54.212  1.00  0.00    -0.273 NA
HETATM   26  C14 UNL     1      27.891   2.308  53.249  1.00  0.00     0.123 A 
ENDBRANCH  20  21
ENDBRANCH  19  20
ENDBRANCH   9  18
BRANCH   1  27
HETATM   27  N1  UNL     1      24.170   6.152  52.071  1.00  0.00    -0.301 NA
HETATM   28  H1  UNL     1      24.297   7.196  51.971  1.00  0.00     0.124 HD
HETATM   29  H2  UNL     1      24.444   7.179  52.055  1.00  0.00     0.124 HD
ENDBRANCH   1  27
TORSDOF 4
ENDMDL
MODEL 5
REMARK VINA RESULT:      -8.2      2.349      4.371
REMARK  4 active torsions:
REMARK  status: ('A' for Active; 'I' for Inactive)
REMARK    1  A    between atoms: N1_1  and  C1_2 
REMARK    2  A    between atoms: N3_10  and  C7_11 
REMARK    3  A    between atoms: C8_12  and  C9_13 
REMARK    4  A    between atoms: C9_13  and  C10_14 
ROOT
HETATM    1  C1  UNL     1      21.827   3.795  49.726  1.00  0.00     0.032 A 
HETATM    2  C2  UNL     1      22.853   3.721  48.850  1.00  0.00     0.142 A 
HETATM    3  N2  UNL     1      23.391   4.907  49.484  1.00  0.00    -0.249 N 
HETATM    4  O1  UNL     1      23.431   5.957  50.365  1.00  0.00    -0.247 OA
HETATM    5  C3  UNL     1      22.293   5.975  51.237  1.00  0.00     0.177 A 
HETATM    6  C4  UNL     1      21.816   4.884  50.687  1.00  0.00    -0.004 A 
HETATM    7  C5  UNL     1      21.194   4.078  51.850  1.00  0.00     0.120 C 
HETATM    8  C6  UNL     1      22.317   3.066  52.216  1.00  0.00     0.108 C 
HETATM    9  N3  UNL     1      22.034   1.847  52.029  1.00  0.00    -0.247 NA
HETATM   10  N5  UNL     1      23.695   3.073  52.717  1.00  0.00    -0.347 N 
HETATM   11  C15 UNL     1      24.797   3.099  51.758  1.00  0.00     0.018 A 
HETATM   12  C16 UNL     1      26.069   2.655  51.499  1.00  0.00     0.022 A 
HETATM   13  C17 UNL     1      26.632   3.050  50.303  1.00  0.00    -0.017 A 
HETATM   14  C18 UNL     1      25.986   3.851  49.378  1.00  0.00     0.055 A 
HETATM   15  C19 UNL     1      24.755   4.502  49.214  1.00  0.00     0.106 A 
HETATM   16  C20 UNL     1      24.769   3.799  50.495  1.00  0.00     0.080 A 
HETATM   17  H15 UNL     1      24.093   3.071  53.663  1.00  0.00     0.167 HD
ENDROOT
BRANCH   9  18
HETATM   18  C7  UNL     1      22.871   0.767  52.279  1.00  0.00     0.115 C 
HETATM   19  C8  UNL     1      23.041   0.211  53.461  1.00  0.00    -0.003 C 
BRANCH  19  20
HETATM   20  C9  UNL     1      23.950  -0.956  53.714  1.00  0.00     0.068 C 
BRANCH  20  21
HETATM   21  C10 UNL     1      25.381  -0.497  53.721  1.00  0.00    -0.037 A 
HETATM   22  C11 UNL     1      26.297  -0.968  52.788  1.00  0.00     0.010 A 
HETATM   23  C12 UNL     1      27.622  -0.520  52.822  1.00  0.00     0.020 A 
HETATM   24  C13 UNL     1      27.998   0.391  53.791  1.00  0.00     0.116 A 
HETATM   25  N4  UNL     1      27.104   0.843  54.693  1.00  0.00    -0.273 NA
HETATM   26  C14 UNL     1      25.814   0.412  54.665  1.00  0.00     0.123 A 
ENDBRANCH  20  21
ENDBRANCH  19  20
ENDBRANCH   9  18
BRANCH   1  27
HETATM   27  N1  UNL     1      20.934   2.729  49.474  1.00  0.00    -0.301 NA
HETATM   28  H1  UNL     1      21.513   1.889  49.199  1.00  0.00     0.124 HD
HETATM   29  H2  UNL     1      21.368   1.803  49.183  1.00  0.00     0.124 HD
ENDBRANCH   1  27
TORSDOF 4
ENDMDL
MODEL 6
REMARK VINA RESULT:      -8.1      1.914      2.776
REMARK  4 active torsions:
REMARK  status: ('A' for Active; 'I' for Inactive)
REMARK    1  A    between atoms: N1_1  and  C1_2 
REMARK    2  A    between atoms: N3_10  and  C7_11 
REMARK    3  A    between atoms: C8_12  and  C9_13 
REMARK    4  A    between atoms: C9_13  and  C10_14 
ROOT
HETATM    1  C1  UNL     1      22.745   5.186  51.616  1.00  0.00     0.032 A 
HETATM    2  C2  UNL     1      21.705   4.824  52.400  1.00  0.00     0.142 A 
HETATM    3  N2  UNL     1      20.907   4.759  51.194  1.00  0.00    -0.249 N 
HETATM    4  O1  UNL     1      20.638   4.862  49.853  1.00  0.00    -0.247 OA
HETATM    5  C3  UNL     1      21.787   5.276  49.101  1.00  0.00     0.177 A 
HETATM    6  C4  UNL     1      22.523   5.307  50.186  1.00  0.00    -0.004 A 
HETATM    7  C5  UNL     1      23.913   4.789  49.753  1.00  0.00     0.120 C 
HETATM    8  C6  UNL     1      23.871   3.289  50.165  1.00  0.00     0.108 C 
HETATM    9  N3  UNL     1      24.699   2.946  51.059  1.00  0.00    -0.247 NA
HETATM   10  N5  UNL     1      23.117   2.073  49.847  1.00  0.00    -0.347 N 
HETATM   11  C15 UNL     1      21.930   1.749  50.636  1.00  0.00     0.018 A 
HETATM   12  C16 UNL     1      21.193   0.731  51.185  1.00  0.00     0.022 A 
HETATM   13  C17 UNL     1      20.068   1.095  51.898  1.00  0.00    -0.017 A 
HETATM   14  C18 UNL     1      19.666   2.406  52.080  1.00  0.00     0.055 A 
HETATM   15  C19 UNL     1      20.078   3.701  51.732  1.00  0.00     0.106 A 
HETATM   16  C20 UNL     1      21.014   2.725  51.178  1.00  0.00     0.080 A 
HETATM   17  H15 UNL     1      23.236   1.344  49.134  1.00  0.00     0.167 HD
ENDROOT
BRANCH   9  18
HETATM   18  C7  UNL     1      24.847   1.670  51.587  1.00  0.00     0.115 C 
HETATM   19  C8  UNL     1      25.029   1.406  52.865  1.00  0.00    -0.003 C 
BRANCH  19  20
HETATM   20  C9  UNL     1      25.189   0.020  53.418  1.00  0.00     0.068 C 
BRANCH  20  21
HETATM   21  C10 UNL     1      26.647  -0.291  53.603  1.00  0.00    -0.037 A 
HETATM   22  C11 UNL     1      27.482   0.552  54.326  1.00  0.00     0.010 A 
HETATM   23  C12 UNL     1      28.835   0.233  54.479  1.00  0.00     0.020 A 
HETATM   24  C13 UNL     1      29.321  -0.926  53.903  1.00  0.00     0.116 A 
HETATM   25  N4  UNL     1      28.505  -1.740  53.203  1.00  0.00    -0.273 NA
HETATM   26  C14 UNL     1      27.188  -1.435  53.052  1.00  0.00     0.123 A 
ENDBRANCH  20  21
ENDBRANCH  19  20
ENDBRANCH   9  18
BRANCH   1  27
HETATM   27  N1  UNL     1      23.882   5.388  52.432  1.00  0.00    -0.301 NA
HETATM   28  H1  UNL     1      24.663   4.796  52.039  1.00  0.00     0.124 HD
HETATM   29  H2  UNL     1      24.761   4.856  52.164  1.00  0.00     0.124 HD
ENDBRANCH   1  27
TORSDOF 4
ENDMDL
MODEL 7
REMARK VINA RESULT:      -7.8      3.185      5.812
REMARK  4 active torsions:
REMARK  status: ('A' for Active; 'I' for Inactive)
REMARK    1  A    between atoms: N1_1  and  C1_2 
REMARK    2  A    between atoms: N3_10  and  C7_11 
REMARK    3  A    between atoms: C8_12  and  C9_13 
REMARK    4  A    between atoms: C9_13  and  C10_14 
ROOT
HETATM    1  C1  UNL     1      23.284   4.946  48.993  1.00  0.00     0.032 A 
HETATM    2  C2  UNL     1      23.994   3.797  48.962  1.00  0.00     0.142 A 
HETATM    3  N2  UNL     1      25.031   4.498  49.690  1.00  0.00    -0.249 N 
HETATM    4  O1  UNL     1      25.638   5.559  50.310  1.00  0.00    -0.247 OA
HETATM    5  C3  UNL     1      24.828   6.743  50.273  1.00  0.00     0.177 A 
HETATM    6  C4  UNL     1      23.872   6.105  49.640  1.00  0.00    -0.004 A 
HETATM    7  C5  UNL     1      22.553   6.665  50.220  1.00  0.00     0.120 C 
HETATM    8  C6  UNL     1      22.165   5.606  51.291  1.00  0.00     0.108 C 
HETATM    9  N3  UNL     1      21.088   4.977  51.071  1.00  0.00    -0.247 NA
HETATM   10  N5  UNL     1      22.691   5.049  52.541  1.00  0.00    -0.347 N 
HETATM   11  C15 UNL     1      23.546   3.866  52.485  1.00  0.00     0.018 A 
HETATM   12  C16 UNL     1      23.885   2.696  53.117  1.00  0.00     0.022 A 
HETATM   13  C17 UNL     1      24.851   1.920  52.509  1.00  0.00    -0.017 A 
HETATM   14  C18 UNL     1      25.471   2.259  51.320  1.00  0.00     0.055 A 
HETATM   15  C19 UNL     1      25.450   3.289  50.368  1.00  0.00     0.106 A 
HETATM   16  C20 UNL     1      24.491   3.585  51.429  1.00  0.00     0.080 A 
HETATM   17  H15 UNL     1      22.594   5.328  53.525  1.00  0.00     0.167 HD
ENDROOT
BRANCH   9  18
HETATM   18  C7  UNL     1      20.540   3.990  51.880  1.00  0.00     0.115 C 
HETATM   19  C8  UNL     1      20.103   2.826  51.445  1.00  0.00    -0.003 C 
BRANCH  19  20
HETATM   20  C9  UNL     1      19.512   1.770  52.334  1.00  0.00     0.068 C 
BRANCH  20  21
HETATM   21  C10 UNL     1      20.591   0.835  52.803  1.00  0.00    -0.037 A 
HETATM   22  C11 UNL     1      20.771   0.557  54.153  1.00  0.00     0.010 A 
HETATM   23  C12 UNL     1      21.785  -0.318  54.557  1.00  0.00     0.020 A 
HETATM   24  C13 UNL     1      22.596  -0.894  53.597  1.00  0.00     0.116 A 
HETATM   25  N4  UNL     1      22.416  -0.619  52.290  1.00  0.00    -0.273 NA
HETATM   26  C14 UNL     1      21.432   0.230  51.891  1.00  0.00     0.123 A 
ENDBRANCH  20  21
ENDBRANCH  19  20
ENDBRANCH   9  18
BRANCH   1  27
HETATM   27  N1  UNL     1      22.054   4.740  48.328  1.00  0.00    -0.301 NA
HETATM   28  H1  UNL     1      22.188   3.936  47.656  1.00  0.00     0.124 HD
HETATM   29  H2  UNL     1      22.025   3.956  47.611  1.00  0.00     0.124 HD
ENDBRANCH   1  27
TORSDOF 4
ENDMDL
MODEL 8
REMARK VINA RESULT:      -7.7      2.239      4.483
REMARK  4 active torsions:
REMARK  status: ('A' for Active; 'I' for Inactive)
REMARK    1  A    between atoms: N1_1  and  C1_2 
REMARK    2  A    between atoms: N3_10  and  C7_11 
REMARK    3  A    between atoms: C8_12  and  C9_13 
REMARK    4  A    between atoms: C9_13  and  C10_14 
ROOT
HETATM    1  C1  UNL     1      21.173   2.345  48.590  1.00  0.00     0.032 A 
HETATM    2  C2  UNL     1      22.498   2.481  48.359  1.00  0.00     0.142 A 
HETATM    3  N2  UNL     1      22.288   3.913  48.395  1.00  0.00    -0.249 N 
HETATM    4  O1  UNL     1      21.576   5.080  48.502  1.00  0.00    -0.247 OA
HETATM    5  C3  UNL     1      20.178   4.844  48.718  1.00  0.00     0.177 A 
HETATM    6  C4  UNL     1      20.367   3.545  48.717  1.00  0.00    -0.004 A 
HETATM    7  C5  UNL     1      19.405   2.991  49.793  1.00  0.00     0.120 C 
HETATM    8  C6  UNL     1      20.323   2.840  51.039  1.00  0.00     0.108 C 
HETATM    9  N3  UNL     1      20.490   1.656  51.453  1.00  0.00    -0.247 NA
HETATM   10  N5  UNL     1      21.127   3.680  51.931  1.00  0.00    -0.347 N 
HETATM   11  C15 UNL     1      22.535   3.907  51.613  1.00  0.00     0.018 A 
HETATM   12  C16 UNL     1      23.791   4.073  52.139  1.00  0.00     0.022 A 
HETATM   13  C17 UNL     1      24.821   4.257  51.239  1.00  0.00    -0.017 A 
HETATM   14  C18 UNL     1      24.646   4.277  49.867  1.00  0.00     0.055 A 
HETATM   15  C19 UNL     1      23.614   4.152  48.926  1.00  0.00     0.106 A 
HETATM   16  C20 UNL     1      23.064   4.028  50.274  1.00  0.00     0.080 A 
HETATM   17  H15 UNL     1      20.908   4.193  52.794  1.00  0.00     0.167 HD
ENDROOT
BRANCH   9  18
HETATM   18  C7  UNL     1      21.262   1.273  52.542  1.00  0.00     0.115 C 
HETATM   19  C8  UNL     1      22.172   0.320  52.515  1.00  0.00    -0.003 C 
BRANCH  19  20
HETATM   20  C9  UNL     1      22.998  -0.081  53.703  1.00  0.00     0.068 C 
BRANCH  20  21
HETATM   21  C10 UNL     1      24.457  -0.046  53.345  1.00  0.00    -0.037 A 
HETATM   22  C11 UNL     1      24.919   0.689  52.259  1.00  0.00     0.010 A 
HETATM   23  C12 UNL     1      26.284   0.700  51.953  1.00  0.00     0.020 A 
HETATM   24  C13 UNL     1      27.155  -0.025  52.744  1.00  0.00     0.116 A 
HETATM   25  N4  UNL     1      26.700  -0.735  53.796  1.00  0.00    -0.273 NA
HETATM   26  C14 UNL     1      25.375  -0.750  54.099  1.00  0.00     0.123 A 
ENDBRANCH  20  21
ENDBRANCH  19  20
ENDBRANCH   9  18
BRANCH   1  27
HETATM   27  N1  UNL     1      20.860   0.967  48.641  1.00  0.00    -0.301 NA
HETATM   28  H1  UNL     1      20.629   0.732  49.645  1.00  0.00     0.124 HD
HETATM   29  H2  UNL     1      20.603   0.573  49.594  1.00  0.00     0.124 HD
ENDBRANCH   1  27
TORSDOF 4
ENDMDL
MODEL 9
REMARK VINA RESULT:      -7.7      3.287      5.714
REMARK  4 active torsions:
REMARK  status: ('A' for Active; 'I' for Inactive)
REMARK    1  A    between atoms: N1_1  and  C1_2 
REMARK    2  A    between atoms: N3_10  and  C7_11 
REMARK    3  A    between atoms: C8_12  and  C9_13 
REMARK    4  A    between atoms: C9_13  and  C10_14 
ROOT
HETATM    1  C1  UNL     1      21.298   1.823  50.521  1.00  0.00     0.032 A 
HETATM    2  C2  UNL     1      20.956   2.981  49.914  1.00  0.00     0.142 A 
HETATM    3  N2  UNL     1      20.366   3.387  51.173  1.00  0.00    -0.249 N 
HETATM    4  O1  UNL     1      19.987   3.264  52.485  1.00  0.00    -0.247 OA
HETATM    5  C3  UNL     1      20.365   1.997  53.041  1.00  0.00     0.177 A 
HETATM    6  C4  UNL     1      20.928   1.636  51.912  1.00  0.00    -0.004 A 
HETATM    7  C5  UNL     1      22.190   0.843  52.320  1.00  0.00     0.120 C 
HETATM    8  C6  UNL     1      23.320   1.907  52.216  1.00  0.00     0.108 C 
HETATM    9  N3  UNL     1      24.205   1.679  51.340  1.00  0.00    -0.247 NA
HETATM   10  N5  UNL     1      23.701   3.182  52.830  1.00  0.00    -0.347 N 
HETATM   11  C15 UNL     1      23.235   4.427  52.223  1.00  0.00     0.018 A 
HETATM   12  C16 UNL     1      23.560   5.732  51.949  1.00  0.00     0.022 A 
HETATM   13  C17 UNL     1      22.614   6.478  51.277  1.00  0.00    -0.017 A 
HETATM   14  C18 UNL     1      21.388   5.981  50.875  1.00  0.00     0.055 A 
HETATM   15  C19 UNL     1      20.660   4.783  50.925  1.00  0.00     0.106 A 
HETATM   16  C20 UNL     1      21.953   4.597  51.580  1.00  0.00     0.080 A 
HETATM   17  H15 UNL     1      24.258   3.419  53.659  1.00  0.00     0.167 HD
ENDROOT
BRANCH   9  18
HETATM   18  C7  UNL     1      25.305   2.480  51.063  1.00  0.00     0.115 C 
HETATM   19  C8  UNL     1      25.551   3.032  49.892  1.00  0.00    -0.003 C 
BRANCH  19  20
HETATM   20  C9  UNL     1      26.746   3.896  49.610  1.00  0.00     0.068 C 
BRANCH  20  21
HETATM   21  C10 UNL     1      26.307   5.177  48.956  1.00  0.00    -0.037 A 
HETATM   22  C11 UNL     1      27.230   6.105  48.490  1.00  0.00     0.010 A 
HETATM   23  C12 UNL     1      26.788   7.287  47.886  1.00  0.00     0.020 A 
HETATM   24  C13 UNL     1      25.430   7.511  47.764  1.00  0.00     0.116 A 
HETATM   25  N4  UNL     1      24.540   6.606  48.219  1.00  0.00    -0.273 NA
HETATM   26  C14 UNL     1      24.963   5.455  48.806  1.00  0.00     0.123 A 
ENDBRANCH  20  21
ENDBRANCH  19  20
ENDBRANCH   9  18
BRANCH   1  27
HETATM   27  N1  UNL     1      21.972   1.002  49.588  1.00  0.00    -0.301 NA
HETATM   28  H1  UNL     1      22.567   0.323  50.135  1.00  0.00     0.124 HD
HETATM   29  H2  UNL     1      22.617   0.258  49.986  1.00  0.00     0.124 HD
ENDBRANCH   1  27
TORSDOF 4
ENDMDL
