MODEL 1
REMARK VINA RESULT:      -8.7      0.000      0.000
REMARK  8 active torsions:
REMARK  status: ('A' for Active; 'I' for Inactive)
REMARK    1  A    between atoms: C3_4  and  C4_5 
REMARK    2  A    between atoms: C5_6  and  N1_7 
REMARK    3  A    between atoms: N1_7  and  C6_8 
REMARK    4  A    between atoms: C10_15  and  N5_16 
REMARK       I    between atoms: N5_16  and  C11_17 
REMARK    5  A    between atoms: C11_17  and  C12_19 
REMARK    6  A    between atoms: C13_20  and  C14_21 
REMARK    7  A    between atoms: C14_21  and  C15_22 
REMARK    8  A    between atoms: C15_22  and  N6_23 
ROOT
HETATM    1  C6  UNL     1      25.138   1.236  52.468  1.00  0.00     0.141 A 
HETATM    2  N2  UNL     1      23.996   0.672  52.885  1.00  0.00    -0.224 NA
HETATM    3  C7  UNL     1      22.800   0.953  52.313  1.00  0.00     0.236 A 
HETATM    4  N3  UNL     1      22.693   1.831  51.277  1.00  0.00    -0.240 NA
HETATM    5  C8  UNL     1      23.813   2.418  50.830  1.00  0.00     0.089 A 
HETATM    6  C9  UNL     1      23.699   3.305  49.782  1.00  0.00     0.151 A 
HETATM    7  N4  UNL     1      24.850   3.873  49.365  1.00  0.00    -0.241 NA
HETATM    8  C10 UNL     1      26.057   3.611  49.917  1.00  0.00     0.131 A 
HETATM    9  C20 UNL     1      26.164   2.724  50.963  1.00  0.00     0.068 A 
HETATM   10  C21 UNL     1      25.019   2.120  51.423  1.00  0.00     0.044 A 
ENDROOT
BRANCH   8  11
HETATM   11  N5  UNL     1      27.111   4.336  49.298  1.00  0.00    -0.301 N 
HETATM   12  C11 UNL     1      27.324   5.560  48.584  1.00  0.00     0.302 C 
HETATM   13  O1  UNL     1      26.396   6.368  48.329  1.00  0.00    -0.258 OA
HETATM   14  H10 UNL     1      27.907   3.660  49.500  1.00  0.00     0.171 HD
BRANCH  12  15
HETATM   15  C12 UNL     1      28.694   5.793  48.176  1.00  0.00    -0.005 C 
HETATM   16  C13 UNL     1      29.847   5.976  47.829  1.00  0.00    -0.095 C 
BRANCH  16  17
HETATM   17  C14 UNL     1      31.248   6.178  47.426  1.00  0.00     0.124 C 
BRANCH  17  18
HETATM   18  C15 UNL     1      31.991   4.955  47.913  1.00  0.00     0.284 C 
BRANCH  18  19
HETATM   19  N6  UNL     1      32.606   4.194  46.849  1.00  0.00     0.093 N 
HETATM   20  C16 UNL     1      33.199   3.004  47.484  1.00  0.00     0.298 C 
HETATM   21  C17 UNL     1      34.651   3.259  47.827  1.00  0.00     0.198 C 
HETATM   22  O2  UNL     1      35.365   3.303  46.645  1.00  0.00    -0.388 OA
HETATM   23  C18 UNL     1      34.638   3.896  45.616  1.00  0.00     0.198 C 
HETATM   24  C19 UNL     1      33.687   4.925  46.215  1.00  0.00     0.298 C 
ENDBRANCH  18  19
ENDBRANCH  17  18
ENDBRANCH  16  17
ENDBRANCH  12  15
ENDBRANCH   8  11
BRANCH   1  25
HETATM   25  N1  UNL     1      26.377   0.891  53.112  1.00  0.00    -0.350 N 
HETATM   26  H7  UNL     1      27.336   1.080  52.783  1.00  0.00     0.166 HD
BRANCH  25  27
HETATM   27  C5  UNL     1      26.189   0.200  54.364  1.00  0.00     0.090 C 
HETATM   28  C4  UNL     1      27.332  -0.049  55.024  1.00  0.00     0.020 C 
BRANCH  28  29
HETATM   29  C3  UNL     1      28.601   0.380  54.456  1.00  0.00     0.038 C 
HETATM   30  C2  UNL     1      29.363  -0.443  53.767  1.00  0.00     0.090 C 
HETATM   31  C1  UNL     1      29.280  -1.851  53.363  1.00  0.00     0.082 C 
HETATM   32  F1  UNL     1      30.550  -0.014  53.245  1.00  0.00    -0.211 F 
ENDBRANCH  28  29
ENDBRANCH  25  27
ENDBRANCH   1  25
TORSDOF 8
ENDMDL
MODEL 2
REMARK VINA RESULT:      -8.5      2.676      4.738
REMARK  8 active torsions:
REMARK  status: ('A' for Active; 'I' for Inactive)
REMARK    1  A    between atoms: C3_4  and  C4_5 
REMARK    2  A    between atoms: C5_6  and  N1_7 
REMARK    3  A    between atoms: N1_7  and  C6_8 
REMARK    4  A    between atoms: C10_15  and  N5_16 
REMARK       I    between atoms: N5_16  and  C11_17 
REMARK    5  A    between atoms: C11_17  and  C12_19 
REMARK    6  A    between atoms: C13_20  and  C14_21 
REMARK    7  A    between atoms: C14_21  and  C15_22 
REMARK    8  A    between atoms: C15_22  and  N6_23 
ROOT
HETATM    1  C6  UNL     1      23.840   0.630  53.104  1.00  0.00     0.141 A 
HETATM    2  N2  UNL     1      23.770  -0.327  54.040  1.00  0.00    -0.224 NA
HETATM    3  C7  UNL     1      24.875  -0.830  54.641  1.00  0.00     0.236 A 
HETATM    4  N3  UNL     1      26.124  -0.389  54.325  1.00  0.00    -0.240 NA
HETATM    5  C8  UNL     1      26.238   0.569  53.393  1.00  0.00     0.089 A 
HETATM    6  C9  UNL     1      27.503   1.012  53.077  1.00  0.00     0.151 A 
HETATM    7  N4  UNL     1      27.570   1.974  52.135  1.00  0.00    -0.241 NA
HETATM    8  C10 UNL     1      26.485   2.496  51.517  1.00  0.00     0.131 A 
HETATM    9  C20 UNL     1      25.223   2.049  51.838  1.00  0.00     0.068 A 
HETATM   10  C21 UNL     1      25.104   1.069  52.793  1.00  0.00     0.044 A 
ENDROOT
BRANCH   8  11
HETATM   11  N5  UNL     1      26.823   3.495  50.566  1.00  0.00    -0.301 N 
HETATM   12  C11 UNL     1      26.194   4.335  49.590  1.00  0.00     0.302 C 
HETATM   13  O1  UNL     1      24.957   4.307  49.367  1.00  0.00    -0.258 OA
HETATM   14  H10 UNL     1      27.873   3.527  50.738  1.00  0.00     0.171 HD
BRANCH  12  15
HETATM   15  C12 UNL     1      27.094   5.218  48.878  1.00  0.00    -0.005 C 
HETATM   16  C13 UNL     1      27.861   5.950  48.280  1.00  0.00    -0.095 C 
BRANCH  16  17
HETATM   17  C14 UNL     1      28.805   6.833  47.575  1.00  0.00     0.124 C 
BRANCH  17  18
HETATM   18  C15 UNL     1      30.000   6.964  48.493  1.00  0.00     0.284 C 
BRANCH  18  19
HETATM   19  N6  UNL     1      30.698   5.716  48.708  1.00  0.00     0.093 N 
HETATM   20  C16 UNL     1      31.770   6.006  49.677  1.00  0.00     0.298 C 
HETATM   21  C17 UNL     1      33.058   6.335  48.955  1.00  0.00     0.198 C 
HETATM   22  O2  UNL     1      33.534   5.170  48.385  1.00  0.00    -0.388 OA
HETATM   23  C18 UNL     1      32.505   4.356  47.919  1.00  0.00     0.198 C 
HETATM   24  C19 UNL     1      31.335   5.236  47.496  1.00  0.00     0.298 C 
ENDBRANCH  18  19
ENDBRANCH  17  18
ENDBRANCH  16  17
ENDBRANCH  12  15
ENDBRANCH   8  11
BRANCH   1  25
HETATM   25  N1  UNL     1      22.630   1.129  52.507  1.00  0.00    -0.350 N 
HETATM   26  H7  UNL     1      22.245   2.085  52.558  1.00  0.00     0.166 HD
BRANCH  25  27
HETATM   27  C5  UNL     1      21.914   0.125  51.760  1.00  0.00     0.090 C 
HETATM   28  C4  UNL     1      21.278   0.604  50.678  1.00  0.00     0.020 C 
BRANCH  28  29
HETATM   29  C3  UNL     1      21.361   2.020  50.360  1.00  0.00     0.038 C 
HETATM   30  C2  UNL     1      21.795   2.442  49.190  1.00  0.00     0.090 C 
HETATM   31  C1  UNL     1      22.279   1.800  47.964  1.00  0.00     0.082 C 
HETATM   32  F1  UNL     1      21.862   3.780  48.919  1.00  0.00    -0.211 F 
ENDBRANCH  28  29
ENDBRANCH  25  27
ENDBRANCH   1  25
TORSDOF 8
ENDMDL
MODEL 3
REMARK VINA RESULT:      -8.5      3.117      3.924
REMARK  8 active torsions:
REMARK  status: ('A' for Active; 'I' for Inactive)
REMARK    1  A    between atoms: C3_4  and  C4_5 
REMARK    2  A    between atoms: C5_6  and  N1_7 
REMARK    3  A    between atoms: N1_7  and  C6_8 
REMARK    4  A    between atoms: C10_15  and  N5_16 
REMARK       I    between atoms: N5_16  and  C11_17 
REMARK    5  A    between atoms: C11_17  and  C12_19 
REMARK    6  A    between atoms: C13_20  and  C14_21 
REMARK    7  A    between atoms: C14_21  and  C15_22 
REMARK    8  A    between atoms: C15_22  and  N6_23 
ROOT
HETATM    1  C6  UNL     1      23.986  -0.201  53.848  1.00  0.00     0.141 A 
HETATM    2  N2  UNL     1      23.037  -0.909  54.475  1.00  0.00    -0.224 NA
HETATM    3  C7  UNL     1      21.716  -0.664  54.296  1.00  0.00     0.236 A 
HETATM    4  N3  UNL     1      21.279   0.321  53.464  1.00  0.00    -0.240 NA
HETATM    5  C8  UNL     1      22.197   1.054  52.817  1.00  0.00     0.089 A 
HETATM    6  C9  UNL     1      21.749   2.050  51.976  1.00  0.00     0.151 A 
HETATM    7  N4  UNL     1      22.707   2.761  51.347  1.00  0.00    -0.241 NA
HETATM    8  C10 UNL     1      24.032   2.539  51.506  1.00  0.00     0.131 A 
HETATM    9  C20 UNL     1      24.473   1.543  52.347  1.00  0.00     0.068 A 
HETATM   10  C21 UNL     1      23.535   0.790  53.011  1.00  0.00     0.044 A 
ENDROOT
BRANCH   8  11
HETATM   11  N5  UNL     1      24.832   3.423  50.732  1.00  0.00    -0.301 N 
HETATM   12  C11 UNL     1      26.112   3.459  50.087  1.00  0.00     0.302 C 
HETATM   13  O1  UNL     1      26.916   2.493  50.119  1.00  0.00    -0.258 OA
HETATM   14  H10 UNL     1      24.166   4.252  50.701  1.00  0.00     0.171 HD
BRANCH  12  15
HETATM   15  C12 UNL     1      26.408   4.698  49.398  1.00  0.00    -0.005 C 
HETATM   16  C13 UNL     1      26.647   5.736  48.808  1.00  0.00    -0.095 C 
BRANCH  16  17
HETATM   17  C14 UNL     1      26.944   6.977  48.075  1.00  0.00     0.124 C 
BRANCH  17  18
HETATM   18  C15 UNL     1      28.416   6.905  47.736  1.00  0.00     0.284 C 
BRANCH  18  19
HETATM   19  N6  UNL     1      29.082   8.188  47.793  1.00  0.00     0.093 N 
HETATM   20  C16 UNL     1      30.526   7.904  47.723  1.00  0.00     0.298 C 
HETATM   21  C17 UNL     1      31.111   7.798  49.116  1.00  0.00     0.198 C 
HETATM   22  O2  UNL     1      31.122   9.065  49.668  1.00  0.00    -0.388 OA
HETATM   23  C18 UNL     1      30.011   9.812  49.287  1.00  0.00     0.198 C 
HETATM   24  C19 UNL     1      28.839   8.867  49.051  1.00  0.00     0.298 C 
ENDBRANCH  18  19
ENDBRANCH  17  18
ENDBRANCH  16  17
ENDBRANCH  12  15
ENDBRANCH   8  11
BRANCH   1  25
HETATM   25  N1  UNL     1      25.371  -0.514  54.074  1.00  0.00    -0.350 N 
HETATM   26  H7  UNL     1      25.982  -0.178  54.835  1.00  0.00     0.166 HD
BRANCH  25  27
HETATM   27  C5  UNL     1      25.916  -1.411  53.084  1.00  0.00     0.090 C 
HETATM   28  C4  UNL     1      27.143  -1.067  52.657  1.00  0.00     0.020 C 
BRANCH  28  29
HETATM   29  C3  UNL     1      27.791   0.115  53.200  1.00  0.00     0.038 C 
HETATM   30  C2  UNL     1      29.031   0.083  53.641  1.00  0.00     0.090 C 
HETATM   31  C1  UNL     1      30.073  -0.944  53.752  1.00  0.00     0.082 C 
HETATM   32  F1  UNL     1      29.616   1.210  54.147  1.00  0.00    -0.211 F 
ENDBRANCH  28  29
ENDBRANCH  25  27
ENDBRANCH   1  25
TORSDOF 8
ENDMDL
MODEL 4
REMARK VINA RESULT:      -8.4      1.711      2.058
REMARK  8 active torsions:
REMARK  status: ('A' for Active; 'I' for Inactive)
REMARK    1  A    between atoms: C3_4  and  C4_5 
REMARK    2  A    between atoms: C5_6  and  N1_7 
REMARK    3  A    between atoms: N1_7  and  C6_8 
REMARK    4  A    between atoms: C10_15  and  N5_16 
REMARK       I    between atoms: N5_16  and  C11_17 
REMARK    5  A    between atoms: C11_17  and  C12_19 
REMARK    6  A    between atoms: C13_20  and  C14_21 
REMARK    7  A    between atoms: C14_21  and  C15_22 
REMARK    8  A    between atoms: C15_22  and  N6_23 
ROOT
HETATM    1  C6  UNL     1      23.936   0.845  52.632  1.00  0.00     0.141 A 
HETATM    2  N2  UNL     1      22.762   0.292  52.965  1.00  0.00    -0.224 NA
HETATM    3  C7  UNL     1      21.620   0.554  52.283  1.00  0.00     0.236 A 
HETATM    4  N3  UNL     1      21.604   1.401  51.217  1.00  0.00    -0.240 NA
HETATM    5  C8  UNL     1      22.759   1.977  50.851  1.00  0.00     0.089 A 
HETATM    6  C9  UNL     1      22.737   2.832  49.771  1.00  0.00     0.151 A 
HETATM    7  N4  UNL     1      23.920   3.389  49.439  1.00  0.00    -0.241 NA
HETATM    8  C10 UNL     1      25.075   3.146  50.101  1.00  0.00     0.131 A 
HETATM    9  C20 UNL     1      25.090   2.289  51.178  1.00  0.00     0.068 A 
HETATM   10  C21 UNL     1      23.909   1.697  51.555  1.00  0.00     0.044 A 
ENDROOT
BRANCH   8  11
HETATM   11  N5  UNL     1      26.179   3.853  49.554  1.00  0.00    -0.301 N 
HETATM   12  C11 UNL     1      26.481   5.127  48.970  1.00  0.00     0.302 C 
HETATM   13  O1  UNL     1      25.614   6.022  48.806  1.00  0.00    -0.258 OA
HETATM   14  H10 UNL     1      26.924   3.104  49.680  1.00  0.00     0.171 HD
BRANCH  12  15
HETATM   15  C12 UNL     1      27.865   5.302  48.581  1.00  0.00    -0.005 C 
HETATM   16  C13 UNL     1      29.026   5.462  48.251  1.00  0.00    -0.095 C 
BRANCH  16  17
HETATM   17  C14 UNL     1      30.421   5.663  47.828  1.00  0.00     0.124 C 
BRANCH  17  18
HETATM   18  C15 UNL     1      30.925   6.838  48.637  1.00  0.00     0.284 C 
BRANCH  18  19
HETATM   19  N6  UNL     1      32.256   6.642  49.168  1.00  0.00     0.093 N 
HETATM   20  C16 UNL     1      33.058   7.784  48.698  1.00  0.00     0.298 C 
HETATM   21  C17 UNL     1      33.771   7.432  47.409  1.00  0.00     0.198 C 
HETATM   22  O2  UNL     1      34.767   6.524  47.711  1.00  0.00    -0.388 OA
HETATM   23  C18 UNL     1      34.384   5.641  48.717  1.00  0.00     0.198 C 
HETATM   24  C19 UNL     1      32.875   5.439  48.646  1.00  0.00     0.298 C 
ENDBRANCH  18  19
ENDBRANCH  17  18
ENDBRANCH  16  17
ENDBRANCH  12  15
ENDBRANCH   8  11
BRANCH   1  25
HETATM   25  N1  UNL     1      25.114   0.521  53.390  1.00  0.00    -0.350 N 
HETATM   26  H7  UNL     1      25.602   1.106  54.086  1.00  0.00     0.166 HD
BRANCH  25  27
HETATM   27  C5  UNL     1      25.628  -0.795  53.099  1.00  0.00     0.090 C 
HETATM   28  C4  UNL     1      26.966  -0.886  53.184  1.00  0.00     0.020 C 
BRANCH  28  29
HETATM   29  C3  UNL     1      27.747   0.285  53.548  1.00  0.00     0.038 C 
HETATM   30  C2  UNL     1      29.047   0.215  53.748  1.00  0.00     0.090 C 
HETATM   31  C1  UNL     1      30.053  -0.852  53.701  1.00  0.00     0.082 C 
HETATM   32  F1  UNL     1      29.756   1.331  54.089  1.00  0.00    -0.211 F 
ENDBRANCH  28  29
ENDBRANCH  25  27
ENDBRANCH   1  25
TORSDOF 8
ENDMDL
MODEL 5
REMARK VINA RESULT:      -8.3      5.777     10.830
REMARK  8 active torsions:
REMARK  status: ('A' for Active; 'I' for Inactive)
REMARK    1  A    between atoms: C3_4  and  C4_5 
REMARK    2  A    between atoms: C5_6  and  N1_7 
REMARK    3  A    between atoms: N1_7  and  C6_8 
REMARK    4  A    between atoms: C10_15  and  N5_16 
REMARK       I    between atoms: N5_16  and  C11_17 
REMARK    5  A    between atoms: C11_17  and  C12_19 
REMARK    6  A    between atoms: C13_20  and  C14_21 
REMARK    7  A    between atoms: C14_21  and  C15_22 
REMARK    8  A    between atoms: C15_22  and  N6_23 
ROOT
HETATM    1  C6  UNL     1      26.703   2.256  52.378  1.00  0.00     0.141 A 
HETATM    2  N2  UNL     1      28.005   2.190  52.688  1.00  0.00    -0.224 NA
HETATM    3  C7  UNL     1      28.512   1.210  53.475  1.00  0.00     0.236 A 
HETATM    4  N3  UNL     1      27.720   0.232  53.996  1.00  0.00    -0.240 NA
HETATM    5  C8  UNL     1      26.410   0.261  53.710  1.00  0.00     0.089 A 
HETATM    6  C9  UNL     1      25.614  -0.730  54.240  1.00  0.00     0.151 A 
HETATM    7  N4  UNL     1      24.304  -0.661  53.927  1.00  0.00    -0.241 NA
HETATM    8  C10 UNL     1      23.770   0.306  53.145  1.00  0.00     0.131 A 
HETATM    9  C20 UNL     1      24.571   1.293  52.618  1.00  0.00     0.068 A 
HETATM   10  C21 UNL     1      25.913   1.265  52.909  1.00  0.00     0.044 A 
ENDROOT
BRANCH   8  11
HETATM   11  N5  UNL     1      22.369   0.154  52.967  1.00  0.00    -0.301 N 
HETATM   12  C11 UNL     1      21.172   0.045  53.748  1.00  0.00     0.302 C 
HETATM   13  O1  UNL     1      21.177   0.066  55.005  1.00  0.00    -0.258 OA
HETATM   14  H10 UNL     1      22.347   0.129  51.903  1.00  0.00     0.171 HD
BRANCH  12  15
HETATM   15  C12 UNL     1      19.954  -0.092  52.976  1.00  0.00    -0.005 C 
HETATM   16  C13 UNL     1      18.924  -0.207  52.338  1.00  0.00    -0.095 C 
BRANCH  16  17
HETATM   17  C14 UNL     1      17.672  -0.366  51.580  1.00  0.00     0.124 C 
BRANCH  17  18
HETATM   18  C15 UNL     1      17.840   0.479  50.337  1.00  0.00     0.284 C 
BRANCH  18  19
HETATM   19  N6  UNL     1      17.003   1.659  50.327  1.00  0.00     0.093 N 
HETATM   20  C16 UNL     1      17.914   2.807  50.176  1.00  0.00     0.298 C 
HETATM   21  C17 UNL     1      18.288   3.365  51.533  1.00  0.00     0.198 C 
HETATM   22  O2  UNL     1      17.171   3.989  52.056  1.00  0.00    -0.388 OA
HETATM   23  C18 UNL     1      15.995   3.319  51.728  1.00  0.00     0.198 C 
HETATM   24  C19 UNL     1      16.299   1.833  51.583  1.00  0.00     0.298 C 
ENDBRANCH  18  19
ENDBRANCH  17  18
ENDBRANCH  16  17
ENDBRANCH  12  15
ENDBRANCH   8  11
BRANCH   1  25
HETATM   25  N1  UNL     1      26.227   3.318  51.533  1.00  0.00    -0.350 N 
HETATM   26  H7  UNL     1      25.728   4.176  51.813  1.00  0.00     0.166 HD
BRANCH  25  27
HETATM   27  C5  UNL     1      26.513   3.098  50.136  1.00  0.00     0.090 C 
HETATM   28  C4  UNL     1      25.545   3.529  49.310  1.00  0.00     0.020 C 
BRANCH  28  29
HETATM   29  C3  UNL     1      24.352   4.153  49.859  1.00  0.00     0.038 C 
HETATM   30  C2  UNL     1      23.203   3.513  49.919  1.00  0.00     0.090 C 
HETATM   31  C1  UNL     1      22.731   2.178  49.537  1.00  0.00     0.082 C 
HETATM   32  F1  UNL     1      22.098   4.124  50.441  1.00  0.00    -0.211 F 
ENDBRANCH  28  29
ENDBRANCH  25  27
ENDBRANCH   1  25
TORSDOF 8
ENDMDL
MODEL 6
REMARK VINA RESULT:      -7.9      4.207      5.528
REMARK  8 active torsions:
REMARK  status: ('A' for Active; 'I' for Inactive)
REMARK    1  A    between atoms: C3_4  and  C4_5 
REMARK    2  A    between atoms: C5_6  and  N1_7 
REMARK    3  A    between atoms: N1_7  and  C6_8 
REMARK    4  A    between atoms: C10_15  and  N5_16 
REMARK       I    between atoms: N5_16  and  C11_17 
REMARK    5  A    between atoms: C11_17  and  C12_19 
REMARK    6  A    between atoms: C13_20  and  C14_21 
REMARK    7  A    between atoms: C14_21  and  C15_22 
REMARK    8  A    between atoms: C15_22  and  N6_23 
ROOT
HETATM    1  C6  UNL     1      23.912  -0.106  53.745  1.00  0.00     0.141 A 
HETATM    2  N2  UNL     1      22.952  -0.816  54.352  1.00  0.00    -0.224 NA
HETATM    3  C7  UNL     1      21.635  -0.587  54.131  1.00  0.00     0.236 A 
HETATM    4  N3  UNL     1      21.213   0.384  53.274  1.00  0.00    -0.240 NA
HETATM    5  C8  UNL     1      22.143   1.119  52.646  1.00  0.00     0.089 A 
HETATM    6  C9  UNL     1      21.711   2.100  51.781  1.00  0.00     0.151 A 
HETATM    7  N4  UNL     1      22.680   2.814  51.172  1.00  0.00    -0.241 NA
HETATM    8  C10 UNL     1      24.002   2.608  51.374  1.00  0.00     0.131 A 
HETATM    9  C20 UNL     1      24.427   1.626  52.239  1.00  0.00     0.068 A 
HETATM   10  C21 UNL     1      23.477   0.871  52.884  1.00  0.00     0.044 A 
ENDROOT
BRANCH   8  11
HETATM   11  N5  UNL     1      24.816   3.491  50.614  1.00  0.00    -0.301 N 
HETATM   12  C11 UNL     1      26.127   3.546  50.037  1.00  0.00     0.302 C 
HETATM   13  O1  UNL     1      26.956   2.608  50.143  1.00  0.00    -0.258 OA
HETATM   14  H10 UNL     1      24.128   4.297  50.520  1.00  0.00     0.171 HD
BRANCH  12  15
HETATM   15  C12 UNL     1      26.423   4.771  49.323  1.00  0.00    -0.005 C 
HETATM   16  C13 UNL     1      26.668   5.807  48.733  1.00  0.00    -0.095 C 
BRANCH  16  17
HETATM   17  C14 UNL     1      26.940   7.068  48.024  1.00  0.00     0.124 C 
BRANCH  17  18
HETATM   18  C15 UNL     1      25.962   8.072  48.591  1.00  0.00     0.284 C 
BRANCH  18  19
HETATM   19  N6  UNL     1      25.117   8.681  47.588  1.00  0.00     0.093 N 
HETATM   20  C16 UNL     1      23.744   8.232  47.880  1.00  0.00     0.298 C 
HETATM   21  C17 UNL     1      23.413   6.993  47.075  1.00  0.00     0.198 C 
HETATM   22  O2  UNL     1      23.286   7.369  45.752  1.00  0.00    -0.388 OA
HETATM   23  C18 UNL     1      24.188   8.370  45.402  1.00  0.00     0.198 C 
HETATM   24  C19 UNL     1      25.444   8.219  46.252  1.00  0.00     0.298 C 
ENDBRANCH  18  19
ENDBRANCH  17  18
ENDBRANCH  16  17
ENDBRANCH  12  15
ENDBRANCH   8  11
BRANCH   1  25
HETATM   25  N1  UNL     1      25.293  -0.401  54.017  1.00  0.00    -0.350 N 
HETATM   26  H7  UNL     1      25.883  -0.035  54.779  1.00  0.00     0.166 HD
BRANCH  25  27
HETATM   27  C5  UNL     1      25.867  -1.330  53.073  1.00  0.00     0.090 C 
HETATM   28  C4  UNL     1      27.121  -1.021  52.702  1.00  0.00     0.020 C 
BRANCH  28  29
HETATM   29  C3  UNL     1      27.767   0.159  53.254  1.00  0.00     0.038 C 
HETATM   30  C2  UNL     1      29.019   0.135  53.659  1.00  0.00     0.090 C 
HETATM   31  C1  UNL     1      30.078  -0.878  53.718  1.00  0.00     0.082 C 
HETATM   32  F1  UNL     1      29.602   1.259  54.174  1.00  0.00    -0.211 F 
ENDBRANCH  28  29
ENDBRANCH  25  27
ENDBRANCH   1  25
TORSDOF 8
ENDMDL
MODEL 7
REMARK VINA RESULT:      -7.9      3.155      5.185
REMARK  8 active torsions:
REMARK  status: ('A' for Active; 'I' for Inactive)
REMARK    1  A    between atoms: C3_4  and  C4_5 
REMARK    2  A    between atoms: C5_6  and  N1_7 
REMARK    3  A    between atoms: N1_7  and  C6_8 
REMARK    4  A    between atoms: C10_15  and  N5_16 
REMARK       I    between atoms: N5_16  and  C11_17 
REMARK    5  A    between atoms: C11_17  and  C12_19 
REMARK    6  A    between atoms: C13_20  and  C14_21 
REMARK    7  A    between atoms: C14_21  and  C15_22 
REMARK    8  A    between atoms: C15_22  and  N6_23 
ROOT
HETATM    1  C6  UNL     1      23.139   1.185  51.957  1.00  0.00     0.141 A 
HETATM    2  N2  UNL     1      22.772   0.242  52.835  1.00  0.00    -0.224 NA
HETATM    3  C7  UNL     1      23.667  -0.393  53.629  1.00  0.00     0.236 A 
HETATM    4  N3  UNL     1      24.998  -0.106  53.577  1.00  0.00    -0.240 NA
HETATM    5  C8  UNL     1      25.407   0.832  52.711  1.00  0.00     0.089 A 
HETATM    6  C9  UNL     1      26.754   1.118  52.662  1.00  0.00     0.151 A 
HETATM    7  N4  UNL     1      27.121   2.067  51.777  1.00  0.00    -0.241 NA
HETATM    8  C10 UNL     1      26.250   2.718  50.971  1.00  0.00     0.131 A 
HETATM    9  C20 UNL     1      24.906   2.428  51.025  1.00  0.00     0.068 A 
HETATM   10  C21 UNL     1      24.483   1.468  51.912  1.00  0.00     0.044 A 
ENDROOT
BRANCH   8  11
HETATM   11  N5  UNL     1      26.887   3.670  50.132  1.00  0.00    -0.301 N 
HETATM   12  C11 UNL     1      26.550   4.719  49.214  1.00  0.00     0.302 C 
HETATM   13  O1  UNL     1      25.363   5.026  48.940  1.00  0.00    -0.258 OA
HETATM   14  H10 UNL     1      27.898   3.419  50.347  1.00  0.00     0.171 HD
BRANCH  12  15
HETATM   15  C12 UNL     1      27.687   5.396  48.624  1.00  0.00    -0.005 C 
HETATM   16  C13 UNL     1      28.649   5.964  48.140  1.00  0.00    -0.095 C 
BRANCH  16  17
HETATM   17  C14 UNL     1      29.810   6.668  47.573  1.00  0.00     0.124 C 
BRANCH  17  18
HETATM   18  C15 UNL     1      30.947   6.417  48.537  1.00  0.00     0.284 C 
BRANCH  18  19
HETATM   19  N6  UNL     1      32.235   6.300  47.890  1.00  0.00     0.093 N 
HETATM   20  C16 UNL     1      32.124   5.166  46.956  1.00  0.00     0.298 C 
HETATM   21  C17 UNL     1      32.599   3.890  47.617  1.00  0.00     0.198 C 
HETATM   22  O2  UNL     1      33.971   3.973  47.761  1.00  0.00    -0.388 OA
HETATM   23  C18 UNL     1      34.390   5.267  48.055  1.00  0.00     0.198 C 
HETATM   24  C19 UNL     1      33.288   5.976  48.834  1.00  0.00     0.298 C 
ENDBRANCH  18  19
ENDBRANCH  17  18
ENDBRANCH  16  17
ENDBRANCH  12  15
ENDBRANCH   8  11
BRANCH   1  25
HETATM   25  N1  UNL     1      22.140   1.829  51.147  1.00  0.00    -0.350 N 
HETATM   26  H7  UNL     1      21.663   2.726  51.322  1.00  0.00     0.166 HD
BRANCH  25  27
HETATM   27  C5  UNL     1      21.810   1.081  49.959  1.00  0.00     0.090 C 
HETATM   28  C4  UNL     1      20.506   1.121  49.637  1.00  0.00     0.020 C 
BRANCH  28  29
HETATM   29  C3  UNL     1      19.582   1.879  50.465  1.00  0.00     0.038 C 
HETATM   30  C2  UNL     1      18.488   1.335  50.957  1.00  0.00     0.090 C 
HETATM   31  C1  UNL     1      17.862   0.010  50.892  1.00  0.00     0.082 C 
HETATM   32  F1  UNL     1      17.637   2.071  51.733  1.00  0.00    -0.211 F 
ENDBRANCH  28  29
ENDBRANCH  25  27
ENDBRANCH   1  25
TORSDOF 8
ENDMDL
MODEL 8
REMARK VINA RESULT:      -7.6      2.950      4.939
REMARK  8 active torsions:
REMARK  status: ('A' for Active; 'I' for Inactive)
REMARK    1  A    between atoms: C3_4  and  C4_5 
REMARK    2  A    between atoms: C5_6  and  N1_7 
REMARK    3  A    between atoms: N1_7  and  C6_8 
REMARK    4  A    between atoms: C10_15  and  N5_16 
REMARK       I    between atoms: N5_16  and  C11_17 
REMARK    5  A    between atoms: C11_17  and  C12_19 
REMARK    6  A    between atoms: C13_20  and  C14_21 
REMARK    7  A    between atoms: C14_21  and  C15_22 
REMARK    8  A    between atoms: C15_22  and  N6_23 
ROOT
HETATM    1  C6  UNL     1      23.232   1.325  51.831  1.00  0.00     0.141 A 
HETATM    2  N2  UNL     1      22.924   0.350  52.697  1.00  0.00    -0.224 NA
HETATM    3  C7  UNL     1      23.865  -0.272  53.448  1.00  0.00     0.236 A 
HETATM    4  N3  UNL     1      25.182   0.062  53.364  1.00  0.00    -0.240 NA
HETATM    5  C8  UNL     1      25.533   1.034  52.508  1.00  0.00     0.089 A 
HETATM    6  C9  UNL     1      26.867   1.368  52.426  1.00  0.00     0.151 A 
HETATM    7  N4  UNL     1      27.174   2.349  51.553  1.00  0.00    -0.241 NA
HETATM    8  C10 UNL     1      26.257   2.987  50.790  1.00  0.00     0.131 A 
HETATM    9  C20 UNL     1      24.926   2.649  50.877  1.00  0.00     0.068 A 
HETATM   10  C21 UNL     1      24.564   1.655  51.753  1.00  0.00     0.044 A 
ENDROOT
BRANCH   8  11
HETATM   11  N5  UNL     1      26.836   3.980  49.954  1.00  0.00    -0.301 N 
HETATM   12  C11 UNL     1      26.439   5.085  49.132  1.00  0.00     0.302 C 
HETATM   13  O1  UNL     1      25.238   5.423  48.982  1.00  0.00    -0.258 OA
HETATM   14  H10 UNL     1      27.857   3.704  50.066  1.00  0.00     0.171 HD
BRANCH  12  15
HETATM   15  C12 UNL     1      27.532   5.782  48.486  1.00  0.00    -0.005 C 
HETATM   16  C13 UNL     1      28.459   6.360  47.949  1.00  0.00    -0.095 C 
BRANCH  16  17
HETATM   17  C14 UNL     1      29.589   7.066  47.323  1.00  0.00     0.124 C 
BRANCH  17  18
HETATM   18  C15 UNL     1      30.827   6.311  47.753  1.00  0.00     0.284 C 
BRANCH  18  19
HETATM   19  N6  UNL     1      31.874   7.168  48.263  1.00  0.00     0.093 N 
HETATM   20  C16 UNL     1      32.233   8.079  47.163  1.00  0.00     0.298 C 
HETATM   21  C17 UNL     1      33.396   7.517  46.372  1.00  0.00     0.198 C 
HETATM   22  O2  UNL     1      34.526   7.607  47.161  1.00  0.00    -0.388 OA
HETATM   23  C18 UNL     1      34.247   7.377  48.506  1.00  0.00     0.198 C 
HETATM   24  C19 UNL     1      33.067   6.418  48.606  1.00  0.00     0.298 C 
ENDBRANCH  18  19
ENDBRANCH  17  18
ENDBRANCH  16  17
ENDBRANCH  12  15
ENDBRANCH   8  11
BRANCH   1  25
HETATM   25  N1  UNL     1      22.188   1.952  51.066  1.00  0.00    -0.350 N 
HETATM   26  H7  UNL     1      22.231   2.295  50.094  1.00  0.00     0.166 HD
BRANCH  25  27
HETATM   27  C5  UNL     1      20.955   2.090  51.802  1.00  0.00     0.090 C 
HETATM   28  C4  UNL     1      20.763   3.316  52.316  1.00  0.00     0.020 C 
BRANCH  28  29
HETATM   29  C3  UNL     1      21.759   4.353  52.097  1.00  0.00     0.038 C 
HETATM   30  C2  UNL     1      21.587   5.298  51.196  1.00  0.00     0.090 C 
HETATM   31  C1  UNL     1      20.539   5.638  50.228  1.00  0.00     0.082 C 
HETATM   32  F1  UNL     1      22.539   6.261  51.013  1.00  0.00    -0.211 F 
ENDBRANCH  28  29
ENDBRANCH  25  27
ENDBRANCH   1  25
TORSDOF 8
ENDMDL
MODEL 9
REMARK VINA RESULT:      -7.6      4.367      6.666
REMARK  8 active torsions:
REMARK  status: ('A' for Active; 'I' for Inactive)
REMARK    1  A    between atoms: C3_4  and  C4_5 
REMARK    2  A    between atoms: C5_6  and  N1_7 
REMARK    3  A    between atoms: N1_7  and  C6_8 
REMARK    4  A    between atoms: C10_15  and  N5_16 
REMARK       I    between atoms: N5_16  and  C11_17 
REMARK    5  A    between atoms: C11_17  and  C12_19 
REMARK    6  A    between atoms: C13_20  and  C14_21 
REMARK    7  A    between atoms: C14_21  and  C15_22 
REMARK    8  A    between atoms: C15_22  and  N6_23 
ROOT
HETATM    1  C6  UNL     1      23.410   0.989  52.231  1.00  0.00     0.141 A 
HETATM    2  N2  UNL     1      23.231  -0.010  53.106  1.00  0.00    -0.224 NA
HETATM    3  C7  UNL     1      24.257  -0.551  53.805  1.00  0.00     0.236 A 
HETATM    4  N3  UNL     1      25.536  -0.107  53.656  1.00  0.00    -0.240 NA
HETATM    5  C8  UNL     1      25.759   0.892  52.789  1.00  0.00     0.089 A 
HETATM    6  C9  UNL     1      27.054   1.338  52.641  1.00  0.00     0.151 A 
HETATM    7  N4  UNL     1      27.232   2.343  51.759  1.00  0.00    -0.241 NA
HETATM    8  C10 UNL     1      26.227   2.902  51.047  1.00  0.00     0.131 A 
HETATM    9  C20 UNL     1      24.935   2.453  51.200  1.00  0.00     0.068 A 
HETATM   10  C21 UNL     1      24.703   1.430  52.087  1.00  0.00     0.044 A 
ENDROOT
BRANCH   8  11
HETATM   11  N5  UNL     1      26.676   3.942  50.189  1.00  0.00    -0.301 N 
HETATM   12  C11 UNL     1      26.145   4.931  49.298  1.00  0.00     0.302 C 
HETATM   13  O1  UNL     1      24.914   5.058  49.080  1.00  0.00    -0.258 OA
HETATM   14  H10 UNL     1      27.722   3.844  50.357  1.00  0.00     0.171 HD
BRANCH  12  15
HETATM   15  C12 UNL     1      27.140   5.772  48.664  1.00  0.00    -0.005 C 
HETATM   16  C13 UNL     1      27.984   6.476  48.142  1.00  0.00    -0.095 C 
BRANCH  16  17
HETATM   17  C14 UNL     1      29.007   7.341  47.532  1.00  0.00     0.124 C 
BRANCH  17  18
HETATM   18  C15 UNL     1      28.326   8.670  47.295  1.00  0.00     0.284 C 
BRANCH  18  19
HETATM   19  N6  UNL     1      28.583   9.641  48.335  1.00  0.00     0.093 N 
HETATM   20  C16 UNL     1      27.295   9.871  49.012  1.00  0.00     0.298 C 
HETATM   21  C17 UNL     1      26.583  11.059  48.399  1.00  0.00     0.198 C 
HETATM   22  O2  UNL     1      27.273  12.199  48.763  1.00  0.00    -0.388 OA
HETATM   23  C18 UNL     1      28.648  11.988  48.809  1.00  0.00     0.198 C 
HETATM   24  C19 UNL     1      29.015  10.915  47.791  1.00  0.00     0.298 C 
ENDBRANCH  18  19
ENDBRANCH  17  18
ENDBRANCH  16  17
ENDBRANCH  12  15
ENDBRANCH   8  11
BRANCH   1  25
HETATM   25  N1  UNL     1      22.279   1.526  51.524  1.00  0.00    -0.350 N 
HETATM   26  H7  UNL     1      21.972   1.314  50.562  1.00  0.00     0.166 HD
BRANCH  25  27
HETATM   27  C5  UNL     1      21.521   2.470  52.308  1.00  0.00     0.090 C 
HETATM   28  C4  UNL     1      20.278   2.055  52.604  1.00  0.00     0.020 C 
BRANCH  28  29
HETATM   29  C3  UNL     1      19.822   0.755  52.140  1.00  0.00     0.038 C 
HETATM   30  C2  UNL     1      18.628   0.590  51.608  1.00  0.00     0.090 C 
HETATM   31  C1  UNL     1      17.486   1.463  51.318  1.00  0.00     0.082 C 
HETATM   32  F1  UNL     1      18.226  -0.644  51.179  1.00  0.00    -0.211 F 
ENDBRANCH  28  29
ENDBRANCH  25  27
ENDBRANCH   1  25
TORSDOF 8
ENDMDL
