MODEL 1
REMARK VINA RESULT:      -8.4      0.000      0.000
REMARK  6 active torsions:
REMARK  status: ('A' for Active; 'I' for Inactive)
REMARK    1  A    between atoms: O1_2  and  C2_3 
REMARK    2  A    between atoms: C4_5  and  N1_6 
REMARK    3  A    between atoms: N1_6  and  C6_8 
REMARK    4  A    between atoms: C9_13  and  C10_14 
REMARK    5  A    between atoms: C10_14  and  O2_15 
REMARK    6  A    between atoms: C13_18  and  C14_19 
ROOT
HETATM    1  C2  UNL     1      25.270   5.501  50.227  1.00  0.00     0.083 A 
HETATM    2  C3  UNL     1      25.847   6.526  49.510  1.00  0.00     0.067 A 
HETATM    3  C4  UNL     1      26.939   6.369  48.683  1.00  0.00     0.038 A 
HETATM    4  C11 UNL     1      27.461   5.095  48.591  1.00  0.00     0.031 A 
HETATM    5  C12 UNL     1      26.925   4.032  49.286  1.00  0.00     0.019 A 
HETATM    6  C13 UNL     1      25.832   4.242  50.100  1.00  0.00     0.033 A 
ENDROOT
BRANCH   3   7
HETATM    7  N1  UNL     1      27.501   7.469  47.959  1.00  0.00    -0.335 N 
HETATM    8  C5  UNL     1      26.747   7.986  46.822  1.00  0.00     0.158 C 
BRANCH   7   9
HETATM    9  C6  UNL     1      28.755   7.977  48.401  1.00  0.00     0.141 A 
HETATM   10  N2  UNL     1      29.823   7.306  47.901  1.00  0.00    -0.224 NA
HETATM   11  C7  UNL     1      31.089   7.674  48.240  1.00  0.00     0.234 A 
HETATM   12  N3  UNL     1      31.332   8.711  49.082  1.00  0.00    -0.253 NA
HETATM   13  C8  UNL     1      30.266   9.375  49.579  1.00  0.00     0.131 A 
HETATM   14  C9  UNL     1      28.950   9.037  49.260  1.00  0.00     0.029 A 
BRANCH  14  15
HETATM   15  C10 UNL     1      27.752   9.734  49.769  1.00  0.00     0.208 C 
BRANCH  15  16
HETATM   16  O2  UNL     1      27.707   9.510  51.151  1.00  0.00    -0.396 OA
HETATM   17  H12 UNL     1      28.198  10.279  51.549  1.00  0.00     0.209 HD
ENDBRANCH  15  16
ENDBRANCH  14  15
ENDBRANCH   7   9
ENDBRANCH   3   7
BRANCH   1  18
HETATM   18  O1  UNL     1      24.173   5.628  51.066  1.00  0.00    -0.355 OA
HETATM   19  C1  UNL     1      22.968   6.243  50.743  1.00  0.00     0.210 C 
ENDBRANCH   1  18
BRANCH   6  20
HETATM   20  C14 UNL     1      25.228   3.137  50.860  1.00  0.00     0.112 A 
HETATM   21  N4  UNL     1      24.213   2.576  50.956  1.00  0.00    -0.239 NA
HETATM   22  C15 UNL     1      23.910   1.566  51.753  1.00  0.00     0.075 A 
HETATM   23  C16 UNL     1      22.692   0.911  51.852  1.00  0.00     0.033 A 
HETATM   24  C20 UNL     1      24.908   1.106  52.581  1.00  0.00     0.035 A 
HETATM   25  C17 UNL     1      22.557  -0.119  52.737  1.00  0.00     0.002 A 
HETATM   26  C18 UNL     1      23.540  -0.605  53.581  1.00  0.00     0.002 A 
HETATM   27  C19 UNL     1      24.764   0.054  53.482  1.00  0.00     0.021 A 
HETATM   28  S1  UNL     1      26.249   2.182  52.149  1.00  0.00    -0.067 SA
ENDBRANCH   6  20
TORSDOF 6
ENDMDL
MODEL 2
REMARK VINA RESULT:      -8.1      1.198      2.187
REMARK  6 active torsions:
REMARK  status: ('A' for Active; 'I' for Inactive)
REMARK    1  A    between atoms: O1_2  and  C2_3 
REMARK    2  A    between atoms: C4_5  and  N1_6 
REMARK    3  A    between atoms: N1_6  and  C6_8 
REMARK    4  A    between atoms: C9_13  and  C10_14 
REMARK    5  A    between atoms: C10_14  and  O2_15 
REMARK    6  A    between atoms: C13_18  and  C14_19 
ROOT
HETATM    1  C2  UNL     1      25.211   5.389  50.215  1.00  0.00     0.083 A 
HETATM    2  C3  UNL     1      25.902   6.377  49.547  1.00  0.00     0.067 A 
HETATM    3  C4  UNL     1      27.016   6.148  48.769  1.00  0.00     0.038 A 
HETATM    4  C11 UNL     1      27.438   4.837  48.674  1.00  0.00     0.031 A 
HETATM    5  C12 UNL     1      26.787   3.808  49.319  1.00  0.00     0.019 A 
HETATM    6  C13 UNL     1      25.676   4.092  50.086  1.00  0.00     0.033 A 
ENDROOT
BRANCH   3   7
HETATM    7  N1  UNL     1      27.699   7.211  48.096  1.00  0.00    -0.335 N 
HETATM    8  C5  UNL     1      29.032   6.933  47.572  1.00  0.00     0.158 C 
BRANCH   7   9
HETATM    9  C6  UNL     1      27.027   8.461  47.989  1.00  0.00     0.141 A 
HETATM   10  N2  UNL     1      26.121   8.509  46.980  1.00  0.00    -0.224 NA
HETATM   11  C7  UNL     1      25.404   9.644  46.752  1.00  0.00     0.234 A 
HETATM   12  N3  UNL     1      25.563  10.758  47.511  1.00  0.00    -0.253 NA
HETATM   13  C8  UNL     1      26.468  10.706  48.513  1.00  0.00     0.131 A 
HETATM   14  C9  UNL     1      27.226   9.567  48.788  1.00  0.00     0.029 A 
BRANCH  14  15
HETATM   15  C10 UNL     1      28.219   9.455  49.874  1.00  0.00     0.208 C 
BRANCH  15  16
HETATM   16  O2  UNL     1      27.526   9.626  51.079  1.00  0.00    -0.396 OA
HETATM   17  H12 UNL     1      26.586   9.807  50.807  1.00  0.00     0.209 HD
ENDBRANCH  15  16
ENDBRANCH  14  15
ENDBRANCH   7   9
ENDBRANCH   3   7
BRANCH   1  18
HETATM   18  O1  UNL     1      24.088   5.589  51.004  1.00  0.00    -0.355 OA
HETATM   19  C1  UNL     1      22.916   6.225  50.607  1.00  0.00     0.210 C 
ENDBRANCH   1  18
BRANCH   6  20
HETATM   20  C14 UNL     1      24.949   3.025  50.793  1.00  0.00     0.112 A 
HETATM   21  N4  UNL     1      23.917   2.489  50.770  1.00  0.00    -0.239 NA
HETATM   22  C15 UNL     1      23.486   1.513  51.550  1.00  0.00     0.075 A 
HETATM   23  C16 UNL     1      22.250   0.886  51.507  1.00  0.00     0.033 A 
HETATM   24  C20 UNL     1      24.355   1.061  52.518  1.00  0.00     0.035 A 
HETATM   25  C17 UNL     1      21.974  -0.111  52.398  1.00  0.00     0.002 A 
HETATM   26  C18 UNL     1      22.824  -0.587  53.380  1.00  0.00     0.002 A 
HETATM   27  C19 UNL     1      24.066   0.043  53.424  1.00  0.00     0.021 A 
HETATM   28  S1  UNL     1      25.767   2.095  52.235  1.00  0.00    -0.067 SA
ENDBRANCH   6  20
TORSDOF 6
ENDMDL
MODEL 3
REMARK VINA RESULT:      -7.9      4.823      8.129
REMARK  6 active torsions:
REMARK  status: ('A' for Active; 'I' for Inactive)
REMARK    1  A    between atoms: O1_2  and  C2_3 
REMARK    2  A    between atoms: C4_5  and  N1_6 
REMARK    3  A    between atoms: N1_6  and  C6_8 
REMARK    4  A    between atoms: C9_13  and  C10_14 
REMARK    5  A    between atoms: C10_14  and  O2_15 
REMARK    6  A    between atoms: C13_18  and  C14_19 
ROOT
HETATM    1  C2  UNL     1      24.648   2.117  51.347  1.00  0.00     0.083 A 
HETATM    2  C3  UNL     1      25.377   1.417  52.283  1.00  0.00     0.067 A 
HETATM    3  C4  UNL     1      24.842   0.460  53.118  1.00  0.00     0.038 A 
HETATM    4  C11 UNL     1      23.491   0.213  52.982  1.00  0.00     0.031 A 
HETATM    5  C12 UNL     1      22.712   0.883  52.063  1.00  0.00     0.019 A 
HETATM    6  C13 UNL     1      23.297   1.832  51.250  1.00  0.00     0.033 A 
ENDROOT
BRANCH   3   7
HETATM    7  N1  UNL     1      25.644  -0.240  54.076  1.00  0.00    -0.335 N 
HETATM    8  C5  UNL     1      24.951  -0.977  55.127  1.00  0.00     0.158 C 
BRANCH   7   9
HETATM    9  C6  UNL     1      27.058  -0.162  53.933  1.00  0.00     0.141 A 
HETATM   10  N2  UNL     1      27.610   0.921  54.537  1.00  0.00    -0.224 NA
HETATM   11  C7  UNL     1      28.953   1.131  54.480  1.00  0.00     0.234 A 
HETATM   12  N3  UNL     1      29.785   0.281  53.825  1.00  0.00    -0.253 NA
HETATM   13  C8  UNL     1      29.231  -0.795  53.224  1.00  0.00     0.131 A 
HETATM   14  C9  UNL     1      27.861  -1.055  53.255  1.00  0.00     0.029 A 
BRANCH  14  15
HETATM   15  C10 UNL     1      27.207  -2.217  52.623  1.00  0.00     0.208 C 
BRANCH  15  16
HETATM   16  O2  UNL     1      28.090  -3.299  52.749  1.00  0.00    -0.396 OA
HETATM   17  H12 UNL     1      28.173  -3.666  51.828  1.00  0.00     0.209 HD
ENDBRANCH  15  16
ENDBRANCH  14  15
ENDBRANCH   7   9
ENDBRANCH   3   7
BRANCH   1  18
HETATM   18  O1  UNL     1      25.158   3.085  50.494  1.00  0.00    -0.355 OA
HETATM   19  C1  UNL     1      26.470   3.157  50.036  1.00  0.00     0.210 C 
ENDBRANCH   1  18
BRANCH   6  20
HETATM   20  C14 UNL     1      22.504   2.571  50.255  1.00  0.00     0.112 A 
HETATM   21  N4  UNL     1      21.883   3.551  50.167  1.00  0.00    -0.239 NA
HETATM   22  C15 UNL     1      21.235   4.014  49.112  1.00  0.00     0.075 A 
HETATM   23  C16 UNL     1      20.499   5.186  49.026  1.00  0.00     0.033 A 
HETATM   24  C20 UNL     1      21.293   3.256  47.964  1.00  0.00     0.035 A 
HETATM   25  C17 UNL     1      19.892   5.509  47.846  1.00  0.00     0.002 A 
HETATM   26  C18 UNL     1      19.932   4.770  46.678  1.00  0.00     0.002 A 
HETATM   27  C19 UNL     1      20.671   3.593  46.764  1.00  0.00     0.021 A 
HETATM   28  S1  UNL     1      22.299   1.894  48.491  1.00  0.00    -0.067 SA
ENDBRANCH   6  20
TORSDOF 6
ENDMDL
MODEL 4
REMARK VINA RESULT:      -7.9      6.152      8.247
REMARK  6 active torsions:
REMARK  status: ('A' for Active; 'I' for Inactive)
REMARK    1  A    between atoms: O1_2  and  C2_3 
REMARK    2  A    between atoms: C4_5  and  N1_6 
REMARK    3  A    between atoms: N1_6  and  C6_8 
REMARK    4  A    between atoms: C9_13  and  C10_14 
REMARK    5  A    between atoms: C10_14  and  O2_15 
REMARK    6  A    between atoms: C13_18  and  C14_19 
ROOT
HETATM    1  C2  UNL     1      22.620   0.986  52.546  1.00  0.00     0.083 A 
HETATM    2  C3  UNL     1      23.485   0.359  53.414  1.00  0.00     0.067 A 
HETATM    3  C4  UNL     1      24.857   0.376  53.284  1.00  0.00     0.038 A 
HETATM    4  C11 UNL     1      25.361   1.074  52.206  1.00  0.00     0.031 A 
HETATM    5  C12 UNL     1      24.544   1.722  51.304  1.00  0.00     0.019 A 
HETATM    6  C13 UNL     1      23.177   1.673  51.480  1.00  0.00     0.033 A 
ENDROOT
BRANCH   3   7
HETATM    7  N1  UNL     1      25.713  -0.295  54.216  1.00  0.00    -0.335 N 
HETATM    8  C5  UNL     1      25.079  -1.038  55.300  1.00  0.00     0.158 C 
BRANCH   7   9
HETATM    9  C6  UNL     1      27.118  -0.185  54.017  1.00  0.00     0.141 A 
HETATM   10  N2  UNL     1      27.665   0.919  54.585  1.00  0.00    -0.224 NA
HETATM   11  C7  UNL     1      29.000   1.161  54.473  1.00  0.00     0.234 A 
HETATM   12  N3  UNL     1      29.827   0.322  53.798  1.00  0.00    -0.253 NA
HETATM   13  C8  UNL     1      29.277  -0.775  53.232  1.00  0.00     0.131 A 
HETATM   14  C9  UNL     1      27.915  -1.067  53.320  1.00  0.00     0.029 A 
BRANCH  14  15
HETATM   15  C10 UNL     1      27.267  -2.253  52.728  1.00  0.00     0.208 C 
BRANCH  15  16
HETATM   16  O2  UNL     1      28.187  -3.307  52.815  1.00  0.00    -0.396 OA
HETATM   17  H12 UNL     1      28.973  -3.001  52.286  1.00  0.00     0.209 HD
ENDBRANCH  15  16
ENDBRANCH  14  15
ENDBRANCH   7   9
ENDBRANCH   3   7
BRANCH   1  18
HETATM   18  O1  UNL     1      21.237   0.986  52.651  1.00  0.00    -0.355 OA
HETATM   19  C1  UNL     1      20.441  -0.124  52.914  1.00  0.00     0.210 C 
ENDBRANCH   1  18
BRANCH   6  20
HETATM   20  C14 UNL     1      22.266   2.348  50.543  1.00  0.00     0.112 A 
HETATM   21  N4  UNL     1      21.784   3.394  50.372  1.00  0.00    -0.239 NA
HETATM   22  C15 UNL     1      20.958   3.764  49.408  1.00  0.00     0.075 A 
HETATM   23  C16 UNL     1      20.393   5.016  49.221  1.00  0.00     0.033 A 
HETATM   24  C20 UNL     1      20.616   2.806  48.481  1.00  0.00     0.035 A 
HETATM   25  C17 UNL     1      19.556   5.221  48.163  1.00  0.00     0.002 A 
HETATM   26  C18 UNL     1      19.192   4.281  47.216  1.00  0.00     0.002 A 
HETATM   27  C19 UNL     1      19.759   3.022  47.403  1.00  0.00     0.021 A 
HETATM   28  S1  UNL     1      21.524   1.402  49.071  1.00  0.00    -0.067 SA
ENDBRANCH   6  20
TORSDOF 6
ENDMDL
MODEL 5
REMARK VINA RESULT:      -7.6      4.641      8.018
REMARK  6 active torsions:
REMARK  status: ('A' for Active; 'I' for Inactive)
REMARK    1  A    between atoms: O1_2  and  C2_3 
REMARK    2  A    between atoms: C4_5  and  N1_6 
REMARK    3  A    between atoms: N1_6  and  C6_8 
REMARK    4  A    between atoms: C9_13  and  C10_14 
REMARK    5  A    between atoms: C10_14  and  O2_15 
REMARK    6  A    between atoms: C13_18  and  C14_19 
ROOT
HETATM    1  C2  UNL     1      24.659   2.675  50.895  1.00  0.00     0.083 A 
HETATM    2  C3  UNL     1      23.523   3.377  50.555  1.00  0.00     0.067 A 
HETATM    3  C4  UNL     1      22.326   3.283  51.232  1.00  0.00     0.038 A 
HETATM    4  C11 UNL     1      22.298   2.424  52.311  1.00  0.00     0.031 A 
HETATM    5  C12 UNL     1      23.403   1.696  52.698  1.00  0.00     0.019 A 
HETATM    6  C13 UNL     1      24.577   1.827  51.986  1.00  0.00     0.033 A 
ENDROOT
BRANCH   3   7
HETATM    7  N1  UNL     1      21.174   4.035  50.835  1.00  0.00    -0.335 N 
HETATM    8  C5  UNL     1      21.338   5.472  50.646  1.00  0.00     0.158 C 
BRANCH   7   9
HETATM    9  C6  UNL     1      19.953   3.325  50.657  1.00  0.00     0.141 A 
HETATM   10  N2  UNL     1      19.069   3.496  51.672  1.00  0.00    -0.224 NA
HETATM   11  C7  UNL     1      17.858   2.873  51.643  1.00  0.00     0.234 A 
HETATM   12  N3  UNL     1      17.492   2.066  50.615  1.00  0.00    -0.253 NA
HETATM   13  C8  UNL     1      18.376   1.898  49.607  1.00  0.00     0.131 A 
HETATM   14  C9  UNL     1      19.628   2.515  49.590  1.00  0.00     0.029 A 
BRANCH  14  15
HETATM   15  C10 UNL     1      20.626   2.371  48.512  1.00  0.00     0.208 C 
BRANCH  15  16
HETATM   16  O2  UNL     1      21.194   1.097  48.651  1.00  0.00    -0.396 OA
HETATM   17  H12 UNL     1      22.083   1.167  48.209  1.00  0.00     0.209 HD
ENDBRANCH  15  16
ENDBRANCH  14  15
ENDBRANCH   7   9
ENDBRANCH   3   7
BRANCH   1  18
HETATM   18  O1  UNL     1      25.875   2.749  50.234  1.00  0.00    -0.355 OA
HETATM   19  C1  UNL     1      26.396   3.879  49.611  1.00  0.00     0.210 C 
ENDBRANCH   1  18
BRANCH   6  20
HETATM   20  C14 UNL     1      25.781   1.069  52.363  1.00  0.00     0.112 A 
HETATM   21  N4  UNL     1      26.178  -0.025  52.361  1.00  0.00    -0.239 NA
HETATM   22  C15 UNL     1      27.353  -0.467  52.773  1.00  0.00     0.075 A 
HETATM   23  C16 UNL     1      27.808  -1.777  52.764  1.00  0.00     0.033 A 
HETATM   24  C20 UNL     1      28.232   0.469  53.269  1.00  0.00     0.035 A 
HETATM   25  C17 UNL     1      29.060  -2.054  53.232  1.00  0.00     0.002 A 
HETATM   26  C18 UNL     1      29.965  -1.137  53.735  1.00  0.00     0.002 A 
HETATM   27  C19 UNL     1      29.509   0.179  53.746  1.00  0.00     0.021 A 
HETATM   28  S1  UNL     1      27.287   1.961  53.106  1.00  0.00    -0.067 SA
ENDBRANCH   6  20
TORSDOF 6
ENDMDL
MODEL 6
REMARK VINA RESULT:      -7.6      6.083      7.703
REMARK  6 active torsions:
REMARK  status: ('A' for Active; 'I' for Inactive)
REMARK    1  A    between atoms: O1_2  and  C2_3 
REMARK    2  A    between atoms: C4_5  and  N1_6 
REMARK    3  A    between atoms: N1_6  and  C6_8 
REMARK    4  A    between atoms: C9_13  and  C10_14 
REMARK    5  A    between atoms: C10_14  and  O2_15 
REMARK    6  A    between atoms: C13_18  and  C14_19 
ROOT
HETATM    1  C2  UNL     1      23.232   0.750  52.887  1.00  0.00     0.083 A 
HETATM    2  C3  UNL     1      22.028   1.334  52.559  1.00  0.00     0.067 A 
HETATM    3  C4  UNL     1      21.877   2.295  51.582  1.00  0.00     0.038 A 
HETATM    4  C11 UNL     1      23.022   2.671  50.910  1.00  0.00     0.031 A 
HETATM    5  C12 UNL     1      24.254   2.121  51.195  1.00  0.00     0.019 A 
HETATM    6  C13 UNL     1      24.350   1.163  52.183  1.00  0.00     0.033 A 
ENDROOT
BRANCH   3   7
HETATM    7  N1  UNL     1      20.602   2.871  51.281  1.00  0.00    -0.335 N 
HETATM    8  C5  UNL     1      19.438   2.337  51.980  1.00  0.00     0.158 C 
BRANCH   7   9
HETATM    9  C6  UNL     1      20.563   3.921  50.321  1.00  0.00     0.141 A 
HETATM   10  N2  UNL     1      20.737   5.156  50.857  1.00  0.00    -0.224 NA
HETATM   11  C7  UNL     1      20.719   6.261  50.062  1.00  0.00     0.234 A 
HETATM   12  N3  UNL     1      20.528   6.175  48.720  1.00  0.00    -0.253 NA
HETATM   13  C8  UNL     1      20.356   4.944  48.192  1.00  0.00     0.131 A 
HETATM   14  C9  UNL     1      20.367   3.782  48.964  1.00  0.00     0.029 A 
BRANCH  14  15
HETATM   15  C10 UNL     1      20.190   2.415  48.437  1.00  0.00     0.208 C 
BRANCH  15  16
HETATM   16  O2  UNL     1      18.811   2.179  48.369  1.00  0.00    -0.396 OA
HETATM   17  H12 UNL     1      18.634   1.983  47.409  1.00  0.00     0.209 HD
ENDBRANCH  15  16
ENDBRANCH  14  15
ENDBRANCH   7   9
ENDBRANCH   3   7
BRANCH   1  18
HETATM   18  O1  UNL     1      23.415  -0.217  53.864  1.00  0.00    -0.355 OA
HETATM   19  C1  UNL     1      22.406  -0.936  54.496  1.00  0.00     0.210 C 
ENDBRANCH   1  18
BRANCH   6  20
HETATM   20  C14 UNL     1      25.644   0.549  52.521  1.00  0.00     0.112 A 
HETATM   21  N4  UNL     1      26.168  -0.490  52.492  1.00  0.00    -0.239 NA
HETATM   22  C15 UNL     1      27.397  -0.795  52.872  1.00  0.00     0.075 A 
HETATM   23  C16 UNL     1      28.003  -2.041  52.831  1.00  0.00     0.033 A 
HETATM   24  C20 UNL     1      28.168   0.232  53.365  1.00  0.00     0.035 A 
HETATM   25  C17 UNL     1      29.290  -2.173  53.268  1.00  0.00     0.002 A 
HETATM   26  C18 UNL     1      30.090  -1.163  53.768  1.00  0.00     0.002 A 
HETATM   27  C19 UNL     1      29.481   0.090  53.810  1.00  0.00     0.021 A 
HETATM   28  S1  UNL     1      27.049   1.602  53.248  1.00  0.00    -0.067 SA
ENDBRANCH   6  20
TORSDOF 6
ENDMDL
MODEL 7
REMARK VINA RESULT:      -7.5      3.661      7.680
REMARK  6 active torsions:
REMARK  status: ('A' for Active; 'I' for Inactive)
REMARK    1  A    between atoms: O1_2  and  C2_3 
REMARK    2  A    between atoms: C4_5  and  N1_6 
REMARK    3  A    between atoms: N1_6  and  C6_8 
REMARK    4  A    between atoms: C9_13  and  C10_14 
REMARK    5  A    between atoms: C10_14  and  O2_15 
REMARK    6  A    between atoms: C13_18  and  C14_19 
ROOT
HETATM    1  C2  UNL     1      28.436   7.163  47.681  1.00  0.00     0.083 A 
HETATM    2  C3  UNL     1      27.099   7.496  47.719  1.00  0.00     0.067 A 
HETATM    3  C4  UNL     1      26.111   6.666  48.202  1.00  0.00     0.038 A 
HETATM    4  C11 UNL     1      26.519   5.433  48.668  1.00  0.00     0.031 A 
HETATM    5  C12 UNL     1      27.842   5.045  48.656  1.00  0.00     0.019 A 
HETATM    6  C13 UNL     1      28.792   5.914  48.162  1.00  0.00     0.033 A 
ENDROOT
BRANCH   3   7
HETATM    7  N1  UNL     1      24.734   7.061  48.218  1.00  0.00    -0.335 N 
HETATM    8  C5  UNL     1      24.382   8.308  47.547  1.00  0.00     0.158 C 
BRANCH   7   9
HETATM    9  C6  UNL     1      23.812   6.208  48.887  1.00  0.00     0.141 A 
HETATM   10  N2  UNL     1      23.286   5.243  48.092  1.00  0.00    -0.224 NA
HETATM   11  C7  UNL     1      22.383   4.355  48.593  1.00  0.00     0.234 A 
HETATM   12  N3  UNL     1      21.977   4.398  49.888  1.00  0.00    -0.253 NA
HETATM   13  C8  UNL     1      22.503   5.362  50.675  1.00  0.00     0.131 A 
HETATM   14  C9  UNL     1      23.432   6.295  50.209  1.00  0.00     0.029 A 
BRANCH  14  15
HETATM   15  C10 UNL     1      24.041   7.360  51.028  1.00  0.00     0.208 C 
BRANCH  15  16
HETATM   16  O2  UNL     1      24.385   6.783  52.257  1.00  0.00    -0.396 OA
HETATM   17  H12 UNL     1      24.820   5.920  52.020  1.00  0.00     0.209 HD
ENDBRANCH  15  16
ENDBRANCH  14  15
ENDBRANCH   7   9
ENDBRANCH   3   7
BRANCH   1  18
HETATM   18  O1  UNL     1      29.452   7.976  47.202  1.00  0.00    -0.355 OA
HETATM   19  C1  UNL     1      29.481   9.365  47.264  1.00  0.00     0.210 C 
ENDBRANCH   1  18
BRANCH   6  20
HETATM   20  C14 UNL     1      30.216   5.543  48.128  1.00  0.00     0.112 A 
HETATM   21  N4  UNL     1      30.911   4.733  47.663  1.00  0.00    -0.239 NA
HETATM   22  C15 UNL     1      32.221   4.612  47.791  1.00  0.00     0.075 A 
HETATM   23  C16 UNL     1      33.033   3.638  47.229  1.00  0.00     0.033 A 
HETATM   24  C20 UNL     1      32.860   5.553  48.565  1.00  0.00     0.035 A 
HETATM   25  C17 UNL     1      34.376   3.668  47.469  1.00  0.00     0.002 A 
HETATM   26  C18 UNL     1      35.047   4.598  48.241  1.00  0.00     0.002 A 
HETATM   27  C19 UNL     1      34.233   5.576  48.806  1.00  0.00     0.021 A 
HETATM   28  S1  UNL     1      31.503   6.574  49.072  1.00  0.00    -0.067 SA
ENDBRANCH   6  20
TORSDOF 6
ENDMDL
MODEL 8
REMARK VINA RESULT:      -7.5      4.485      8.126
REMARK  6 active torsions:
REMARK  status: ('A' for Active; 'I' for Inactive)
REMARK    1  A    between atoms: O1_2  and  C2_3 
REMARK    2  A    between atoms: C4_5  and  N1_6 
REMARK    3  A    between atoms: N1_6  and  C6_8 
REMARK    4  A    between atoms: C9_13  and  C10_14 
REMARK    5  A    between atoms: C10_14  and  O2_15 
REMARK    6  A    between atoms: C13_18  and  C14_19 
ROOT
HETATM    1  C2  UNL     1      24.197   2.781  51.082  1.00  0.00     0.083 A 
HETATM    2  C3  UNL     1      24.719   1.656  51.682  1.00  0.00     0.067 A 
HETATM    3  C4  UNL     1      25.023   1.567  53.023  1.00  0.00     0.038 A 
HETATM    4  C11 UNL     1      24.778   2.693  53.783  1.00  0.00     0.031 A 
HETATM    5  C12 UNL     1      24.257   3.847  53.237  1.00  0.00     0.019 A 
HETATM    6  C13 UNL     1      23.970   3.883  51.889  1.00  0.00     0.033 A 
ENDROOT
BRANCH   3   7
HETATM    7  N1  UNL     1      25.565   0.372  53.597  1.00  0.00    -0.335 N 
HETATM    8  C5  UNL     1      24.623  -0.618  54.107  1.00  0.00     0.158 C 
BRANCH   7   9
HETATM    9  C6  UNL     1      26.981   0.240  53.628  1.00  0.00     0.141 A 
HETATM   10  N2  UNL     1      27.616   1.299  54.192  1.00  0.00    -0.224 NA
HETATM   11  C7  UNL     1      28.974   1.318  54.287  1.00  0.00     0.234 A 
HETATM   12  N3  UNL     1      29.739   0.295  53.826  1.00  0.00    -0.253 NA
HETATM   13  C8  UNL     1      29.102  -0.756  53.264  1.00  0.00     0.131 A 
HETATM   14  C9  UNL     1      27.714  -0.823  53.145  1.00  0.00     0.029 A 
BRANCH  14  15
HETATM   15  C10 UNL     1      26.970  -1.949  52.548  1.00  0.00     0.208 C 
BRANCH  15  16
HETATM   16  O2  UNL     1      27.757  -3.095  52.724  1.00  0.00    -0.396 OA
HETATM   17  H12 UNL     1      28.679  -2.809  52.483  1.00  0.00     0.209 HD
ENDBRANCH  15  16
ENDBRANCH  14  15
ENDBRANCH   7   9
ENDBRANCH   3   7
BRANCH   1  18
HETATM   18  O1  UNL     1      23.882   2.900  49.737  1.00  0.00    -0.355 OA
HETATM   19  C1  UNL     1      22.772   2.343  49.109  1.00  0.00     0.210 C 
ENDBRANCH   1  18
BRANCH   6  20
HETATM   20  C14 UNL     1      23.414   5.093  51.264  1.00  0.00     0.112 A 
HETATM   21  N4  UNL     1      23.774   6.050  50.706  1.00  0.00    -0.239 NA
HETATM   22  C15 UNL     1      23.039   7.035  50.220  1.00  0.00     0.075 A 
HETATM   23  C16 UNL     1      23.488   8.168  49.558  1.00  0.00     0.033 A 
HETATM   24  C20 UNL     1      21.677   6.935  50.383  1.00  0.00     0.035 A 
HETATM   25  C17 UNL     1      22.580   9.090  49.121  1.00  0.00     0.002 A 
HETATM   26  C18 UNL     1      21.207   9.018  49.269  1.00  0.00     0.002 A 
HETATM   27  C19 UNL     1      20.756   7.880  49.935  1.00  0.00     0.021 A 
HETATM   28  S1  UNL     1      21.537   5.393  51.247  1.00  0.00    -0.067 SA
ENDBRANCH   6  20
TORSDOF 6
ENDMDL
MODEL 9
REMARK VINA RESULT:      -7.5      4.296      6.377
REMARK  6 active torsions:
REMARK  status: ('A' for Active; 'I' for Inactive)
REMARK    1  A    between atoms: O1_2  and  C2_3 
REMARK    2  A    between atoms: C4_5  and  N1_6 
REMARK    3  A    between atoms: N1_6  and  C6_8 
REMARK    4  A    between atoms: C9_13  and  C10_14 
REMARK    5  A    between atoms: C10_14  and  O2_15 
REMARK    6  A    between atoms: C13_18  and  C14_19 
ROOT
HETATM    1  C2  UNL     1      24.703   2.675  50.897  1.00  0.00     0.083 A 
HETATM    2  C3  UNL     1      23.570   3.378  50.549  1.00  0.00     0.067 A 
HETATM    3  C4  UNL     1      22.365   3.276  51.211  1.00  0.00     0.038 A 
HETATM    4  C11 UNL     1      22.327   2.407  52.282  1.00  0.00     0.031 A 
HETATM    5  C12 UNL     1      23.429   1.678  52.676  1.00  0.00     0.019 A 
HETATM    6  C13 UNL     1      24.611   1.818  51.980  1.00  0.00     0.033 A 
ENDROOT
BRANCH   3   7
HETATM    7  N1  UNL     1      21.216   4.029  50.807  1.00  0.00    -0.335 N 
HETATM    8  C5  UNL     1      19.998   3.874  51.594  1.00  0.00     0.158 C 
BRANCH   7   9
HETATM    9  C6  UNL     1      21.348   4.871  49.668  1.00  0.00     0.141 A 
HETATM   10  N2  UNL     1      21.219   4.216  48.487  1.00  0.00    -0.224 NA
HETATM   11  C7  UNL     1      21.327   4.891  47.309  1.00  0.00     0.234 A 
HETATM   12  N3  UNL     1      21.566   6.227  47.268  1.00  0.00    -0.253 NA
HETATM   13  C8  UNL     1      21.694   6.874  48.447  1.00  0.00     0.131 A 
HETATM   14  C9  UNL     1      21.591   6.228  49.679  1.00  0.00     0.029 A 
BRANCH  14  15
HETATM   15  C10 UNL     1      21.716   6.889  50.993  1.00  0.00     0.208 C 
BRANCH  15  16
HETATM   16  O2  UNL     1      23.081   6.915  51.307  1.00  0.00    -0.396 OA
HETATM   17  H12 UNL     1      23.178   6.281  52.068  1.00  0.00     0.209 HD
ENDBRANCH  15  16
ENDBRANCH  14  15
ENDBRANCH   7   9
ENDBRANCH   3   7
BRANCH   1  18
HETATM   18  O1  UNL     1      25.928   2.757  50.251  1.00  0.00    -0.355 OA
HETATM   19  C1  UNL     1      26.451   3.892  49.639  1.00  0.00     0.210 C 
ENDBRANCH   1  18
BRANCH   6  20
HETATM   20  C14 UNL     1      25.812   1.059  52.364  1.00  0.00     0.112 A 
HETATM   21  N4  UNL     1      26.212  -0.033  52.355  1.00  0.00    -0.239 NA
HETATM   22  C15 UNL     1      27.383  -0.477  52.778  1.00  0.00     0.075 A 
HETATM   23  C16 UNL     1      27.842  -1.785  52.759  1.00  0.00     0.033 A 
HETATM   24  C20 UNL     1      28.251   0.456  53.297  1.00  0.00     0.035 A 
HETATM   25  C17 UNL     1      29.088  -2.064  53.241  1.00  0.00     0.002 A 
HETATM   26  C18 UNL     1      29.983  -1.150  53.768  1.00  0.00     0.002 A 
HETATM   27  C19 UNL     1      29.522   0.165  53.788  1.00  0.00     0.021 A 
HETATM   28  S1  UNL     1      27.304   1.946  53.139  1.00  0.00    -0.067 SA
ENDBRANCH   6  20
TORSDOF 6
ENDMDL
