MODEL 1
REMARK VINA RESULT:      -7.4      0.000      0.000
REMARK  11 active torsions:
REMARK  status: ('A' for Active; 'I' for Inactive)
REMARK    1  A    between atoms: C2_2  and  O1_3 
REMARK    2  A    between atoms: O1_3  and  C3_4 
REMARK    3  A    between atoms: C3_4  and  C4_5 
REMARK    4  A    between atoms: C4_5  and  N1_6 
REMARK    5  A    between atoms: N1_6  and  C5_7 
REMARK    6  A    between atoms: C5_7  and  C6_8 
REMARK    7  A    between atoms: C6_8  and  C7_9 
REMARK    8  A    between atoms: C7_9  and  O2_10 
REMARK    9  A    between atoms: O2_10  and  C8_11 
REMARK   10  A    between atoms: C8_11  and  C9_12 
REMARK   11  A    between atoms: C11_16  and  C12_17 
ROOT
HETATM    1  C9  UNL     1      24.077   4.814  49.957  1.00  0.00     0.171 C 
HETATM    2  N2  UNL     1      23.527   5.974  50.687  1.00  0.00    -0.271 NA
HETATM    3  C10 UNL     1      23.270   5.791  51.934  1.00  0.00     0.228 C 
HETATM    4  N3  UNL     1      23.436   4.605  52.693  1.00  0.00    -0.241 NA
HETATM    5  C11 UNL     1      23.868   3.480  52.231  1.00  0.00     0.079 C 
HETATM    6  C18 UNL     1      23.703   3.630  50.755  1.00  0.00     0.030 C 
HETATM    7  C19 UNL     1      23.115   2.663  49.988  1.00  0.00     0.081 C 
HETATM    8  C20 UNL     1      22.933   2.885  48.540  1.00  0.00     0.232 C 
HETATM    9  O3  UNL     1      22.455   1.712  47.948  1.00  0.00    -0.383 OA
HETATM   10  C21 UNL     1      21.170   1.407  48.383  1.00  0.00     0.194 C 
HETATM   11  C22 UNL     1      21.304   1.008  49.849  1.00  0.00     0.201 C 
HETATM   12  O4  UNL     1      22.592   1.398  50.283  1.00  0.00    -0.350 OA
ENDROOT
BRANCH   1  13
HETATM   13  C8  UNL     1      25.596   5.026  50.036  1.00  0.00     0.200 C 
BRANCH  13  14
HETATM   14  O2  UNL     1      26.267   4.063  49.319  1.00  0.00    -0.389 OA
BRANCH  14  15
HETATM   15  C7  UNL     1      27.423   4.614  48.778  1.00  0.00     0.169 C 
BRANCH  15  16
HETATM   16  C6  UNL     1      27.217   6.098  48.452  1.00  0.00     0.056 C 
BRANCH  16  17
HETATM   17  C5  UNL     1      28.558   6.629  48.042  1.00  0.00     0.272 C 
BRANCH  17  18
HETATM   18  N1  UNL     1      29.591   6.076  48.843  1.00  0.00     0.085 N 
HETATM   19  H10 UNL     1      29.315   5.831  49.814  1.00  0.00     0.315 HD
BRANCH  18  20
HETATM   20  C4  UNL     1      30.864   6.761  48.778  1.00  0.00     0.295 C 
BRANCH  20  21
HETATM   21  C3  UNL     1      31.993   5.977  49.335  1.00  0.00     0.197 C 
BRANCH  21  22
HETATM   22  O1  UNL     1      31.940   4.649  48.965  1.00  0.00    -0.390 OA
BRANCH  22  23
HETATM   23  C2  UNL     1      32.722   4.384  47.857  1.00  0.00     0.163 C 
HETATM   24  C1  UNL     1      31.943   3.574  46.821  1.00  0.00     0.033 C 
ENDBRANCH  22  23
ENDBRANCH  21  22
ENDBRANCH  20  21
ENDBRANCH  18  20
ENDBRANCH  17  18
ENDBRANCH  16  17
ENDBRANCH  15  16
ENDBRANCH  14  15
ENDBRANCH  13  14
ENDBRANCH   1  13
BRANCH   5  25
HETATM   25  C12 UNL     1      24.182   2.128  52.658  1.00  0.00    -0.005 A 
HETATM   26  C13 UNL     1      23.381   1.148  53.123  1.00  0.00     0.017 A 
HETATM   27  C14 UNL     1      23.997  -0.023  53.503  1.00  0.00     0.045 A 
HETATM   28  C15 UNL     1      25.356  -0.238  53.434  1.00  0.00     0.138 A 
HETATM   29  F1  UNL     1      25.890  -1.420  53.829  1.00  0.00    -0.204 F 
HETATM   30  C16 UNL     1      26.172   0.761  52.958  1.00  0.00     0.073 A 
HETATM   31 CL1  UNL     1      27.890   0.450  52.884  1.00  0.00    -0.081 Cl
HETATM   32  C17 UNL     1      25.570   1.963  52.565  1.00  0.00     0.041 A 
ENDBRANCH   5  25
TORSDOF 11
ENDMDL
MODEL 2
REMARK VINA RESULT:      -7.2      2.069      2.927
REMARK  11 active torsions:
REMARK  status: ('A' for Active; 'I' for Inactive)
REMARK    1  A    between atoms: C2_2  and  O1_3 
REMARK    2  A    between atoms: O1_3  and  C3_4 
REMARK    3  A    between atoms: C3_4  and  C4_5 
REMARK    4  A    between atoms: C4_5  and  N1_6 
REMARK    5  A    between atoms: N1_6  and  C5_7 
REMARK    6  A    between atoms: C5_7  and  C6_8 
REMARK    7  A    between atoms: C6_8  and  C7_9 
REMARK    8  A    between atoms: C7_9  and  O2_10 
REMARK    9  A    between atoms: O2_10  and  C8_11 
REMARK   10  A    between atoms: C8_11  and  C9_12 
REMARK   11  A    between atoms: C11_16  and  C12_17 
ROOT
HETATM    1  C9  UNL     1      24.406   4.610  49.616  1.00  0.00     0.171 C 
HETATM    2  N2  UNL     1      24.050   5.892  50.257  1.00  0.00    -0.271 NA
HETATM    3  C10 UNL     1      23.802   5.847  51.518  1.00  0.00     0.228 C 
HETATM    4  N3  UNL     1      23.816   4.713  52.369  1.00  0.00    -0.241 NA
HETATM    5  C11 UNL     1      24.068   3.504  51.995  1.00  0.00     0.079 C 
HETATM    6  C18 UNL     1      23.886   3.559  50.513  1.00  0.00     0.030 C 
HETATM    7  C19 UNL     1      23.144   2.632  49.838  1.00  0.00     0.081 C 
HETATM    8  C20 UNL     1      22.957   2.763  48.380  1.00  0.00     0.232 C 
HETATM    9  O3  UNL     1      22.299   1.630  47.893  1.00  0.00    -0.383 OA
HETATM   10  C21 UNL     1      20.995   1.552  48.371  1.00  0.00     0.194 C 
HETATM   11  C22 UNL     1      21.110   1.254  49.862  1.00  0.00     0.201 C 
HETATM   12  O4  UNL     1      22.452   1.484  50.243  1.00  0.00    -0.350 OA
ENDROOT
BRANCH   1  13
HETATM   13  C8  UNL     1      25.942   4.602  49.654  1.00  0.00     0.200 C 
BRANCH  13  14
HETATM   14  O2  UNL     1      26.463   5.413  48.673  1.00  0.00    -0.389 OA
BRANCH  14  15
HETATM   15  C7  UNL     1      27.824   5.159  48.541  1.00  0.00     0.169 C 
BRANCH  15  16
HETATM   16  C6  UNL     1      28.561   6.400  48.026  1.00  0.00     0.056 C 
BRANCH  16  17
HETATM   17  C5  UNL     1      27.657   7.567  48.290  1.00  0.00     0.272 C 
BRANCH  17  18
HETATM   18  N1  UNL     1      27.568   7.838  49.680  1.00  0.00     0.085 N 
HETATM   19  H10 UNL     1      27.307   7.027  50.274  1.00  0.00     0.315 HD
BRANCH  18  20
HETATM   20  C4  UNL     1      26.852   9.045  50.035  1.00  0.00     0.295 C 
BRANCH  20  21
HETATM   21  C3  UNL     1      26.890  10.092  48.985  1.00  0.00     0.197 C 
BRANCH  21  22
HETATM   22  O1  UNL     1      27.711  11.145  49.327  1.00  0.00    -0.390 OA
BRANCH  22  23
HETATM   23  C2  UNL     1      28.766  11.293  48.447  1.00  0.00     0.163 C 
HETATM   24  C1  UNL     1      30.018  10.594  48.976  1.00  0.00     0.033 C 
ENDBRANCH  22  23
ENDBRANCH  21  22
ENDBRANCH  20  21
ENDBRANCH  18  20
ENDBRANCH  17  18
ENDBRANCH  16  17
ENDBRANCH  15  16
ENDBRANCH  14  15
ENDBRANCH  13  14
ENDBRANCH   1  13
BRANCH   5  25
HETATM   25  C12 UNL     1      24.194   2.159  52.526  1.00  0.00    -0.005 A 
HETATM   26  C13 UNL     1      23.284   1.364  53.125  1.00  0.00     0.017 A 
HETATM   27  C14 UNL     1      23.734   0.144  53.576  1.00  0.00     0.045 A 
HETATM   28  C15 UNL     1      25.033  -0.296  53.448  1.00  0.00     0.138 A 
HETATM   29  F1  UNL     1      25.401  -1.514  53.919  1.00  0.00    -0.204 F 
HETATM   30  C16 UNL     1      25.960   0.514  52.835  1.00  0.00     0.073 A 
HETATM   31 CL1  UNL     1      27.597  -0.080  52.691  1.00  0.00    -0.081 Cl
HETATM   32  C17 UNL     1      25.528   1.762  52.368  1.00  0.00     0.041 A 
ENDBRANCH   5  25
TORSDOF 11
ENDMDL
MODEL 3
REMARK VINA RESULT:      -7.0      3.103      4.420
REMARK  11 active torsions:
REMARK  status: ('A' for Active; 'I' for Inactive)
REMARK    1  A    between atoms: C2_2  and  O1_3 
REMARK    2  A    between atoms: O1_3  and  C3_4 
REMARK    3  A    between atoms: C3_4  and  C4_5 
REMARK    4  A    between atoms: C4_5  and  N1_6 
REMARK    5  A    between atoms: N1_6  and  C5_7 
REMARK    6  A    between atoms: C5_7  and  C6_8 
REMARK    7  A    between atoms: C6_8  and  C7_9 
REMARK    8  A    between atoms: C7_9  and  O2_10 
REMARK    9  A    between atoms: O2_10  and  C8_11 
REMARK   10  A    between atoms: C8_11  and  C9_12 
REMARK   11  A    between atoms: C11_16  and  C12_17 
ROOT
HETATM    1  C9  UNL     1      22.373   2.268  51.733  1.00  0.00     0.171 C 
HETATM    2  N2  UNL     1      22.380   3.663  52.218  1.00  0.00    -0.271 NA
HETATM    3  C10 UNL     1      23.471   4.069  52.765  1.00  0.00     0.228 C 
HETATM    4  N3  UNL     1      24.667   3.335  52.973  1.00  0.00    -0.241 NA
HETATM    5  C11 UNL     1      24.847   2.099  52.653  1.00  0.00     0.079 C 
HETATM    6  C18 UNL     1      23.456   1.586  52.469  1.00  0.00     0.030 C 
HETATM    7  C19 UNL     1      23.031   0.418  53.036  1.00  0.00     0.081 C 
HETATM    8  C20 UNL     1      21.631  -0.016  52.861  1.00  0.00     0.232 C 
HETATM    9  O3  UNL     1      21.473  -1.297  53.395  1.00  0.00    -0.383 OA
HETATM   10  C21 UNL     1      21.631  -1.298  54.777  1.00  0.00     0.194 C 
HETATM   11  C22 UNL     1      23.107  -1.013  55.032  1.00  0.00     0.201 C 
HETATM   12  O4  UNL     1      23.670  -0.550  53.820  1.00  0.00    -0.350 OA
ENDROOT
BRANCH   1  13
HETATM   13  C8  UNL     1      22.763   2.400  50.253  1.00  0.00     0.200 C 
BRANCH  13  14
HETATM   14  O2  UNL     1      22.308   3.587  49.727  1.00  0.00    -0.389 OA
BRANCH  14  15
HETATM   15  C7  UNL     1      23.317   4.170  48.968  1.00  0.00     0.169 C 
BRANCH  15  16
HETATM   16  C6  UNL     1      24.674   3.533  49.287  1.00  0.00     0.056 C 
BRANCH  16  17
HETATM   17  C5  UNL     1      25.679   4.645  49.254  1.00  0.00     0.272 C 
BRANCH  17  18
HETATM   18  N1  UNL     1      25.670   5.376  50.471  1.00  0.00     0.085 N 
HETATM   19  H10 UNL     1      25.191   4.908  51.264  1.00  0.00     0.315 HD
BRANCH  18  20
HETATM   20  C4  UNL     1      25.322   6.776  50.354  1.00  0.00     0.295 C 
BRANCH  20  21
HETATM   21  C3  UNL     1      25.950   7.452  49.192  1.00  0.00     0.197 C 
BRANCH  21  22
HETATM   22  O1  UNL     1      27.235   7.872  49.462  1.00  0.00    -0.390 OA
BRANCH  22  23
HETATM   23  C2  UNL     1      27.262   9.114  50.067  1.00  0.00     0.163 C 
HETATM   24  C1  UNL     1      27.117  10.228  49.030  1.00  0.00     0.033 C 
ENDBRANCH  22  23
ENDBRANCH  21  22
ENDBRANCH  20  21
ENDBRANCH  18  20
ENDBRANCH  17  18
ENDBRANCH  16  17
ENDBRANCH  15  16
ENDBRANCH  14  15
ENDBRANCH  13  14
ENDBRANCH   1  13
BRANCH   5  25
HETATM   25  C12 UNL     1      25.862   1.060  52.677  1.00  0.00    -0.005 A 
HETATM   26  C13 UNL     1      25.974  -0.073  51.955  1.00  0.00     0.017 A 
HETATM   27  C14 UNL     1      27.038  -0.892  52.256  1.00  0.00     0.045 A 
HETATM   28  C15 UNL     1      27.971  -0.619  53.232  1.00  0.00     0.138 A 
HETATM   29  F1  UNL     1      28.993  -1.478  53.472  1.00  0.00    -0.204 F 
HETATM   30  C16 UNL     1      27.857   0.537  53.968  1.00  0.00     0.073 A 
HETATM   31 CL1  UNL     1      29.060   0.848  55.196  1.00  0.00    -0.081 Cl
HETATM   32  C17 UNL     1      26.782   1.389  53.681  1.00  0.00     0.041 A 
ENDBRANCH   5  25
TORSDOF 11
ENDMDL
MODEL 4
REMARK VINA RESULT:      -7.0      3.266      5.150
REMARK  11 active torsions:
REMARK  status: ('A' for Active; 'I' for Inactive)
REMARK    1  A    between atoms: C2_2  and  O1_3 
REMARK    2  A    between atoms: O1_3  and  C3_4 
REMARK    3  A    between atoms: C3_4  and  C4_5 
REMARK    4  A    between atoms: C4_5  and  N1_6 
REMARK    5  A    between atoms: N1_6  and  C5_7 
REMARK    6  A    between atoms: C5_7  and  C6_8 
REMARK    7  A    between atoms: C6_8  and  C7_9 
REMARK    8  A    between atoms: C7_9  and  O2_10 
REMARK    9  A    between atoms: O2_10  and  C8_11 
REMARK   10  A    between atoms: C8_11  and  C9_12 
REMARK   11  A    between atoms: C11_16  and  C12_17 
ROOT
HETATM    1  C9  UNL     1      22.385   1.829  51.691  1.00  0.00     0.171 C 
HETATM    2  N2  UNL     1      22.227   3.248  52.071  1.00  0.00    -0.271 NA
HETATM    3  C10 UNL     1      23.262   3.819  52.577  1.00  0.00     0.228 C 
HETATM    4  N3  UNL     1      24.535   3.249  52.830  1.00  0.00    -0.241 NA
HETATM    5  C11 UNL     1      24.860   2.022  52.601  1.00  0.00     0.079 C 
HETATM    6  C18 UNL     1      23.540   1.336  52.467  1.00  0.00     0.030 C 
HETATM    7  C19 UNL     1      23.255   0.172  53.123  1.00  0.00     0.081 C 
HETATM    8  C20 UNL     1      21.917  -0.435  52.992  1.00  0.00     0.232 C 
HETATM    9  O3  UNL     1      21.910  -1.683  53.622  1.00  0.00    -0.383 OA
HETATM   10  C21 UNL     1      22.066  -1.562  54.999  1.00  0.00     0.194 C 
HETATM   11  C22 UNL     1      23.499  -1.086  55.220  1.00  0.00     0.201 C 
HETATM   12  O4  UNL     1      24.004  -0.652  53.972  1.00  0.00    -0.350 OA
ENDROOT
BRANCH   1  13
HETATM   13  C8  UNL     1      22.757   1.894  50.202  1.00  0.00     0.200 C 
BRANCH  13  14
HETATM   14  O2  UNL     1      21.648   2.137  49.426  1.00  0.00    -0.389 OA
BRANCH  14  15
HETATM   15  C7  UNL     1      21.995   2.035  48.083  1.00  0.00     0.169 C 
BRANCH  15  16
HETATM   16  C6  UNL     1      21.132   2.970  47.227  1.00  0.00     0.056 C 
BRANCH  16  17
HETATM   17  C5  UNL     1      21.149   4.303  47.912  1.00  0.00     0.272 C 
BRANCH  17  18
HETATM   18  N1  UNL     1      22.472   4.807  48.015  1.00  0.00     0.085 N 
HETATM   19  H10 UNL     1      23.220   4.085  48.032  1.00  0.00     0.315 HD
BRANCH  18  20
HETATM   20  C4  UNL     1      22.670   5.841  49.007  1.00  0.00     0.295 C 
BRANCH  20  21
HETATM   21  C3  UNL     1      23.990   5.778  49.680  1.00  0.00     0.197 C 
BRANCH  21  22
HETATM   22  O1  UNL     1      24.877   4.957  49.016  1.00  0.00    -0.390 OA
BRANCH  22  23
HETATM   23  C2  UNL     1      26.007   4.694  49.766  1.00  0.00     0.163 C 
HETATM   24  C1  UNL     1      26.477   3.254  49.558  1.00  0.00     0.033 C 
ENDBRANCH  22  23
ENDBRANCH  21  22
ENDBRANCH  20  21
ENDBRANCH  18  20
ENDBRANCH  17  18
ENDBRANCH  16  17
ENDBRANCH  15  16
ENDBRANCH  14  15
ENDBRANCH  13  14
ENDBRANCH   1  13
BRANCH   5  25
HETATM   25  C12 UNL     1      25.991   1.115  52.695  1.00  0.00    -0.005 A 
HETATM   26  C13 UNL     1      26.169  -0.120  52.183  1.00  0.00     0.017 A 
HETATM   27  C14 UNL     1      27.348  -0.755  52.501  1.00  0.00     0.045 A 
HETATM   28  C15 UNL     1      28.331  -0.205  53.295  1.00  0.00     0.138 A 
HETATM   29  F1  UNL     1      29.468  -0.895  53.565  1.00  0.00    -0.204 F 
HETATM   30  C16 UNL     1      28.150   1.054  53.815  1.00  0.00     0.073 A 
HETATM   31 CL1  UNL     1      29.420   1.717  54.816  1.00  0.00    -0.081 Cl
HETATM   32  C17 UNL     1      26.958   1.722  53.507  1.00  0.00     0.041 A 
ENDBRANCH   5  25
TORSDOF 11
ENDMDL
MODEL 5
REMARK VINA RESULT:      -6.7      3.198      7.107
REMARK  11 active torsions:
REMARK  status: ('A' for Active; 'I' for Inactive)
REMARK    1  A    between atoms: C2_2  and  O1_3 
REMARK    2  A    between atoms: O1_3  and  C3_4 
REMARK    3  A    between atoms: C3_4  and  C4_5 
REMARK    4  A    between atoms: C4_5  and  N1_6 
REMARK    5  A    between atoms: N1_6  and  C5_7 
REMARK    6  A    between atoms: C5_7  and  C6_8 
REMARK    7  A    between atoms: C6_8  and  C7_9 
REMARK    8  A    between atoms: C7_9  and  O2_10 
REMARK    9  A    between atoms: O2_10  and  C8_11 
REMARK   10  A    between atoms: C8_11  and  C9_12 
REMARK   11  A    between atoms: C11_16  and  C12_17 
ROOT
HETATM    1  C9  UNL     1      22.551   4.846  48.441  1.00  0.00     0.171 C 
HETATM    2  N2  UNL     1      21.978   3.860  47.503  1.00  0.00    -0.271 NA
HETATM    3  C10 UNL     1      22.046   2.627  47.861  1.00  0.00     0.228 C 
HETATM    4  N3  UNL     1      22.618   2.095  49.045  1.00  0.00    -0.241 NA
HETATM    5  C11 UNL     1      23.197   2.785  49.968  1.00  0.00     0.079 C 
HETATM    6  C18 UNL     1      23.487   4.086  49.293  1.00  0.00     0.030 C 
HETATM    7  C19 UNL     1      24.713   4.683  49.363  1.00  0.00     0.081 C 
HETATM    8  C20 UNL     1      24.959   5.943  48.635  1.00  0.00     0.232 C 
HETATM    9  O3  UNL     1      26.221   6.437  48.975  1.00  0.00    -0.383 OA
HETATM   10  C21 UNL     1      27.237   5.606  48.513  1.00  0.00     0.194 C 
HETATM   11  C22 UNL     1      27.145   4.329  49.342  1.00  0.00     0.201 C 
HETATM   12  O4  UNL     1      25.904   4.345  50.019  1.00  0.00    -0.350 OA
ENDROOT
BRANCH   1  13
HETATM   13  C8  UNL     1      21.342   5.291  49.278  1.00  0.00     0.200 C 
BRANCH  13  14
HETATM   14  O2  UNL     1      20.180   4.729  48.804  1.00  0.00    -0.389 OA
BRANCH  14  15
HETATM   15  C7  UNL     1      19.272   4.599  49.850  1.00  0.00     0.169 C 
BRANCH  15  16
HETATM   16  C6  UNL     1      19.644   3.413  50.748  1.00  0.00     0.056 C 
BRANCH  16  17
HETATM   17  C5  UNL     1      19.105   2.188  50.071  1.00  0.00     0.272 C 
BRANCH  17  18
HETATM   18  N1  UNL     1      19.873   1.042  50.406  1.00  0.00     0.085 N 
HETATM   19  H10 UNL     1      19.440   0.131  50.157  1.00  0.00     0.315 HD
BRANCH  18  20
HETATM   20  C4  UNL     1      20.448   1.044  51.733  1.00  0.00     0.295 C 
BRANCH  20  21
HETATM   21  C3  UNL     1      19.808   0.081  52.663  1.00  0.00     0.197 C 
BRANCH  21  22
HETATM   22  O1  UNL     1      20.576  -0.154  53.783  1.00  0.00    -0.390 OA
BRANCH  22  23
HETATM   23  C2  UNL     1      21.874   0.295  53.630  1.00  0.00     0.163 C 
HETATM   24  C1  UNL     1      22.873  -0.734  54.162  1.00  0.00     0.033 C 
ENDBRANCH  22  23
ENDBRANCH  21  22
ENDBRANCH  20  21
ENDBRANCH  18  20
ENDBRANCH  17  18
ENDBRANCH  16  17
ENDBRANCH  15  16
ENDBRANCH  14  15
ENDBRANCH  13  14
ENDBRANCH   1  13
BRANCH   5  25
HETATM   25  C12 UNL     1      23.847   2.630  51.257  1.00  0.00    -0.005 A 
HETATM   26  C13 UNL     1      23.763   3.375  52.378  1.00  0.00     0.017 A 
HETATM   27  C14 UNL     1      24.560   2.994  53.433  1.00  0.00     0.045 A 
HETATM   28  C15 UNL     1      25.417   1.916  53.403  1.00  0.00     0.138 A 
HETATM   29  F1  UNL     1      26.173   1.603  54.485  1.00  0.00    -0.204 F 
HETATM   30  C16 UNL     1      25.501   1.155  52.261  1.00  0.00     0.073 A 
HETATM   31 CL1  UNL     1      26.599  -0.205  52.263  1.00  0.00    -0.081 Cl
HETATM   32  C17 UNL     1      24.701   1.522  51.172  1.00  0.00     0.041 A 
ENDBRANCH   5  25
TORSDOF 11
ENDMDL
MODEL 6
REMARK VINA RESULT:      -6.7      3.680      5.748
REMARK  11 active torsions:
REMARK  status: ('A' for Active; 'I' for Inactive)
REMARK    1  A    between atoms: C2_2  and  O1_3 
REMARK    2  A    between atoms: O1_3  and  C3_4 
REMARK    3  A    between atoms: C3_4  and  C4_5 
REMARK    4  A    between atoms: C4_5  and  N1_6 
REMARK    5  A    between atoms: N1_6  and  C5_7 
REMARK    6  A    between atoms: C5_7  and  C6_8 
REMARK    7  A    between atoms: C6_8  and  C7_9 
REMARK    8  A    between atoms: C7_9  and  O2_10 
REMARK    9  A    between atoms: O2_10  and  C8_11 
REMARK   10  A    between atoms: C8_11  and  C9_12 
REMARK   11  A    between atoms: C11_16  and  C12_17 
ROOT
HETATM    1  C9  UNL     1      22.369   1.856  51.788  1.00  0.00     0.171 C 
HETATM    2  N2  UNL     1      22.227   3.268  52.197  1.00  0.00    -0.271 NA
HETATM    3  C10 UNL     1      23.271   3.820  52.706  1.00  0.00     0.228 C 
HETATM    4  N3  UNL     1      24.541   3.233  52.936  1.00  0.00    -0.241 NA
HETATM    5  C11 UNL     1      24.853   2.008  52.681  1.00  0.00     0.079 C 
HETATM    6  C18 UNL     1      23.526   1.338  52.544  1.00  0.00     0.030 C 
HETATM    7  C19 UNL     1      23.235   0.164  53.179  1.00  0.00     0.081 C 
HETATM    8  C20 UNL     1      21.890  -0.429  53.048  1.00  0.00     0.232 C 
HETATM    9  O3  UNL     1      21.877  -1.689  53.653  1.00  0.00    -0.383 OA
HETATM   10  C21 UNL     1      22.046  -1.596  55.031  1.00  0.00     0.194 C 
HETATM   11  C22 UNL     1      23.484  -1.138  55.249  1.00  0.00     0.201 C 
HETATM   12  O4  UNL     1      23.983  -0.685  54.006  1.00  0.00    -0.350 OA
ENDROOT
BRANCH   1  13
HETATM   13  C8  UNL     1      22.730   1.947  50.298  1.00  0.00     0.200 C 
BRANCH  13  14
HETATM   14  O2  UNL     1      22.828   3.258  49.893  1.00  0.00    -0.389 OA
BRANCH  14  15
HETATM   15  C7  UNL     1      23.818   3.367  48.923  1.00  0.00     0.169 C 
BRANCH  15  16
HETATM   16  C6  UNL     1      25.094   3.978  49.515  1.00  0.00     0.056 C 
BRANCH  16  17
HETATM   17  C5  UNL     1      25.084   5.428  49.131  1.00  0.00     0.272 C 
BRANCH  17  18
HETATM   18  N1  UNL     1      23.782   5.980  49.261  1.00  0.00     0.085 N 
HETATM   19  H10 UNL     1      23.399   6.416  48.399  1.00  0.00     0.315 HD
BRANCH  18  20
HETATM   20  C4  UNL     1      23.563   6.785  50.442  1.00  0.00     0.295 C 
BRANCH  20  21
HETATM   21  C3  UNL     1      22.160   7.243  50.600  1.00  0.00     0.197 C 
BRANCH  21  22
HETATM   22  O1  UNL     1      21.304   6.207  50.906  1.00  0.00    -0.390 OA
BRANCH  22  23
HETATM   23  C2  UNL     1      20.305   6.060  49.962  1.00  0.00     0.163 C 
HETATM   24  C1  UNL     1      19.498   4.786  50.217  1.00  0.00     0.033 C 
ENDBRANCH  22  23
ENDBRANCH  21  22
ENDBRANCH  20  21
ENDBRANCH  18  20
ENDBRANCH  17  18
ENDBRANCH  16  17
ENDBRANCH  15  16
ENDBRANCH  14  15
ENDBRANCH  13  14
ENDBRANCH   1  13
BRANCH   5  25
HETATM   25  C12 UNL     1      25.976   1.089  52.747  1.00  0.00    -0.005 A 
HETATM   26  C13 UNL     1      26.129  -0.147  52.231  1.00  0.00     0.017 A 
HETATM   27  C14 UNL     1      27.308  -0.794  52.521  1.00  0.00     0.045 A 
HETATM   28  C15 UNL     1      28.316  -0.256  53.291  1.00  0.00     0.138 A 
HETATM   29  F1  UNL     1      29.451  -0.957  53.533  1.00  0.00    -0.204 F 
HETATM   30  C16 UNL     1      28.160   1.006  53.815  1.00  0.00     0.073 A 
HETATM   31 CL1  UNL     1      29.461   1.655  54.785  1.00  0.00    -0.081 Cl
HETATM   32  C17 UNL     1      26.968   1.686  53.536  1.00  0.00     0.041 A 
ENDBRANCH   5  25
TORSDOF 11
ENDMDL
MODEL 7
REMARK VINA RESULT:      -6.5      4.500      7.042
REMARK  11 active torsions:
REMARK  status: ('A' for Active; 'I' for Inactive)
REMARK    1  A    between atoms: C2_2  and  O1_3 
REMARK    2  A    between atoms: O1_3  and  C3_4 
REMARK    3  A    between atoms: C3_4  and  C4_5 
REMARK    4  A    between atoms: C4_5  and  N1_6 
REMARK    5  A    between atoms: N1_6  and  C5_7 
REMARK    6  A    between atoms: C5_7  and  C6_8 
REMARK    7  A    between atoms: C6_8  and  C7_9 
REMARK    8  A    between atoms: C7_9  and  O2_10 
REMARK    9  A    between atoms: O2_10  and  C8_11 
REMARK   10  A    between atoms: C8_11  and  C9_12 
REMARK   11  A    between atoms: C11_16  and  C12_17 
ROOT
HETATM    1  C9  UNL     1      24.047   3.156  50.874  1.00  0.00     0.171 C 
HETATM    2  N2  UNL     1      25.159   2.207  50.668  1.00  0.00    -0.271 NA
HETATM    3  C10 UNL     1      26.250   2.703  50.202  1.00  0.00     0.228 C 
HETATM    4  N3  UNL     1      26.513   4.051  49.847  1.00  0.00    -0.241 NA
HETATM    5  C11 UNL     1      25.664   5.019  49.920  1.00  0.00     0.079 C 
HETATM    6  C18 UNL     1      24.349   4.316  50.012  1.00  0.00     0.030 C 
HETATM    7  C19 UNL     1      23.283   4.665  49.233  1.00  0.00     0.081 C 
HETATM    8  C20 UNL     1      22.022   3.903  49.330  1.00  0.00     0.232 C 
HETATM    9  O3  UNL     1      21.040   4.531  48.559  1.00  0.00    -0.383 OA
HETATM   10  C21 UNL     1      21.339   4.470  47.202  1.00  0.00     0.194 C 
HETATM   11  C22 UNL     1      22.551   5.373  46.996  1.00  0.00     0.201 C 
HETATM   12  O4  UNL     1      23.090   5.664  48.271  1.00  0.00    -0.350 OA
ENDROOT
BRANCH   1  13
HETATM   13  C8  UNL     1      24.188   3.563  52.349  1.00  0.00     0.200 C 
BRANCH  13  14
HETATM   14  O2  UNL     1      23.986   2.485  53.179  1.00  0.00    -0.389 OA
BRANCH  14  15
HETATM   15  C7  UNL     1      22.768   1.889  52.871  1.00  0.00     0.169 C 
BRANCH  15  16
HETATM   16  C6  UNL     1      22.863   0.364  52.997  1.00  0.00     0.056 C 
BRANCH  16  17
HETATM   17  C5  UNL     1      24.196   0.075  53.619  1.00  0.00     0.272 C 
BRANCH  17  18
HETATM   18  N1  UNL     1      25.188  -0.130  52.624  1.00  0.00     0.085 N 
HETATM   19  H10 UNL     1      24.889  -0.706  51.813  1.00  0.00     0.315 HD
BRANCH  18  20
HETATM   20  C4  UNL     1      26.498  -0.497  53.118  1.00  0.00     0.295 C 
BRANCH  20  21
HETATM   21  C3  UNL     1      26.707  -0.176  54.551  1.00  0.00     0.197 C 
BRANCH  21  22
HETATM   22  O1  UNL     1      28.041  -0.185  54.899  1.00  0.00    -0.390 OA
BRANCH  22  23
HETATM   23  C2  UNL     1      28.867   0.026  53.812  1.00  0.00     0.163 C 
HETATM   24  C1  UNL     1      29.970  -1.032  53.751  1.00  0.00     0.033 C 
ENDBRANCH  22  23
ENDBRANCH  21  22
ENDBRANCH  20  21
ENDBRANCH  18  20
ENDBRANCH  17  18
ENDBRANCH  16  17
ENDBRANCH  15  16
ENDBRANCH  14  15
ENDBRANCH  13  14
ENDBRANCH   1  13
BRANCH   5  25
HETATM   25  C12 UNL     1      25.556   6.448  49.688  1.00  0.00    -0.005 A 
HETATM   26  C13 UNL     1      24.960   7.413  50.418  1.00  0.00     0.017 A 
HETATM   27  C14 UNL     1      24.982   8.685  49.894  1.00  0.00     0.045 A 
HETATM   28  C15 UNL     1      25.568   9.015  48.692  1.00  0.00     0.138 A 
HETATM   29  F1  UNL     1      25.548  10.294  48.240  1.00  0.00    -0.204 F 
HETATM   30  C16 UNL     1      26.177   8.031  47.948  1.00  0.00     0.073 A 
HETATM   31 CL1  UNL     1      26.911   8.489  46.430  1.00  0.00    -0.081 Cl
HETATM   32  C17 UNL     1      26.168   6.727  48.459  1.00  0.00     0.041 A 
ENDBRANCH   5  25
TORSDOF 11
ENDMDL
MODEL 8
REMARK VINA RESULT:      -6.5      1.383      1.659
REMARK  11 active torsions:
REMARK  status: ('A' for Active; 'I' for Inactive)
REMARK    1  A    between atoms: C2_2  and  O1_3 
REMARK    2  A    between atoms: O1_3  and  C3_4 
REMARK    3  A    between atoms: C3_4  and  C4_5 
REMARK    4  A    between atoms: C4_5  and  N1_6 
REMARK    5  A    between atoms: N1_6  and  C5_7 
REMARK    6  A    between atoms: C5_7  and  C6_8 
REMARK    7  A    between atoms: C6_8  and  C7_9 
REMARK    8  A    between atoms: C7_9  and  O2_10 
REMARK    9  A    between atoms: O2_10  and  C8_11 
REMARK   10  A    between atoms: C8_11  and  C9_12 
REMARK   11  A    between atoms: C11_16  and  C12_17 
ROOT
HETATM    1  C9  UNL     1      24.165   5.016  49.569  1.00  0.00     0.171 C 
HETATM    2  N2  UNL     1      23.650   6.202  50.282  1.00  0.00    -0.271 NA
HETATM    3  C10 UNL     1      23.439   6.059  51.543  1.00  0.00     0.228 C 
HETATM    4  N3  UNL     1      23.628   4.896  52.332  1.00  0.00    -0.241 NA
HETATM    5  C11 UNL     1      24.037   3.755  51.891  1.00  0.00     0.079 C 
HETATM    6  C18 UNL     1      23.816   3.859  50.417  1.00  0.00     0.030 C 
HETATM    7  C19 UNL     1      23.195   2.873  49.704  1.00  0.00     0.081 C 
HETATM    8  C20 UNL     1      22.959   3.050  48.258  1.00  0.00     0.232 C 
HETATM    9  O3  UNL     1      22.453   1.862  47.722  1.00  0.00    -0.383 OA
HETATM   10  C21 UNL     1      21.184   1.579  48.214  1.00  0.00     0.194 C 
HETATM   11  C22 UNL     1      21.372   1.225  49.686  1.00  0.00     0.201 C 
HETATM   12  O4  UNL     1      22.677   1.620  50.058  1.00  0.00    -0.350 OA
ENDROOT
BRANCH   1  13
HETATM   13  C8  UNL     1      25.688   5.221  49.584  1.00  0.00     0.200 C 
BRANCH  13  14
HETATM   14  O2  UNL     1      26.099   5.948  48.491  1.00  0.00    -0.389 OA
BRANCH  14  15
HETATM   15  C7  UNL     1      27.487   5.920  48.415  1.00  0.00     0.169 C 
BRANCH  15  16
HETATM   16  C6  UNL     1      28.024   7.219  47.802  1.00  0.00     0.056 C 
BRANCH  16  17
HETATM   17  C5  UNL     1      29.355   7.469  48.446  1.00  0.00     0.272 C 
BRANCH  17  18
HETATM   18  N1  UNL     1      29.940   6.255  48.893  1.00  0.00     0.085 N 
HETATM   19  H10 UNL     1      30.177   6.224  49.904  1.00  0.00     0.315 HD
BRANCH  18  20
HETATM   20  C4  UNL     1      30.994   5.726  48.054  1.00  0.00     0.295 C 
BRANCH  20  21
HETATM   21  C3  UNL     1      32.219   5.350  48.801  1.00  0.00     0.197 C 
BRANCH  21  22
HETATM   22  O1  UNL     1      33.028   4.495  48.083  1.00  0.00    -0.390 OA
BRANCH  22  23
HETATM   23  C2  UNL     1      32.306   3.707  47.206  1.00  0.00     0.163 C 
HETATM   24  C1  UNL     1      32.851   2.279  47.181  1.00  0.00     0.033 C 
ENDBRANCH  22  23
ENDBRANCH  21  22
ENDBRANCH  20  21
ENDBRANCH  18  20
ENDBRANCH  17  18
ENDBRANCH  16  17
ENDBRANCH  15  16
ENDBRANCH  14  15
ENDBRANCH  13  14
ENDBRANCH   1  13
BRANCH   5  25
HETATM   25  C12 UNL     1      24.359   2.415  52.348  1.00  0.00    -0.005 A 
HETATM   26  C13 UNL     1      25.481   1.682  52.193  1.00  0.00     0.017 A 
HETATM   27  C14 UNL     1      25.456   0.404  52.703  1.00  0.00     0.045 A 
HETATM   28  C15 UNL     1      24.372  -0.150  53.348  1.00  0.00     0.138 A 
HETATM   29  F1  UNL     1      24.424  -1.419  53.823  1.00  0.00    -0.204 F 
HETATM   30  C16 UNL     1      23.230   0.599  53.507  1.00  0.00     0.073 A 
HETATM   31 CL1  UNL     1      21.876  -0.138  54.331  1.00  0.00    -0.081 Cl
HETATM   32  C17 UNL     1      23.228   1.903  52.996  1.00  0.00     0.041 A 
ENDBRANCH   5  25
TORSDOF 11
ENDMDL
MODEL 9
REMARK VINA RESULT:      -6.4      5.787     10.584
REMARK  11 active torsions:
REMARK  status: ('A' for Active; 'I' for Inactive)
REMARK    1  A    between atoms: C2_2  and  O1_3 
REMARK    2  A    between atoms: O1_3  and  C3_4 
REMARK    3  A    between atoms: C3_4  and  C4_5 
REMARK    4  A    between atoms: C4_5  and  N1_6 
REMARK    5  A    between atoms: N1_6  and  C5_7 
REMARK    6  A    between atoms: C5_7  and  C6_8 
REMARK    7  A    between atoms: C6_8  and  C7_9 
REMARK    8  A    between atoms: C7_9  and  O2_10 
REMARK    9  A    between atoms: O2_10  and  C8_11 
REMARK   10  A    between atoms: C8_11  and  C9_12 
REMARK   11  A    between atoms: C11_16  and  C12_17 
ROOT
HETATM    1  C9  UNL     1      20.072   3.349  50.343  1.00  0.00     0.171 C 
HETATM    2  N2  UNL     1      19.794   2.823  48.992  1.00  0.00    -0.271 NA
HETATM    3  C10 UNL     1      20.509   1.824  48.612  1.00  0.00     0.228 C 
HETATM    4  N3  UNL     1      21.545   1.172  49.328  1.00  0.00    -0.241 NA
HETATM    5  C11 UNL     1      21.959   1.503  50.504  1.00  0.00     0.079 C 
HETATM    6  C18 UNL     1      21.436   2.891  50.674  1.00  0.00     0.030 C 
HETATM    7  C19 UNL     1      22.225   3.915  51.117  1.00  0.00     0.081 C 
HETATM    8  C20 UNL     1      21.668   5.279  51.219  1.00  0.00     0.232 C 
HETATM    9  O3  UNL     1      22.604   6.117  51.832  1.00  0.00    -0.383 OA
HETATM   10  C21 UNL     1      23.729   6.296  51.034  1.00  0.00     0.194 C 
HETATM   11  C22 UNL     1      24.450   4.952  51.014  1.00  0.00     0.201 C 
HETATM   12  O4  UNL     1      23.561   3.981  51.530  1.00  0.00    -0.350 OA
ENDROOT
BRANCH   1  13
HETATM   13  C8  UNL     1      19.056   2.615  51.232  1.00  0.00     0.200 C 
BRANCH  13  14
HETATM   14  O2  UNL     1      18.257   3.508  51.908  1.00  0.00    -0.389 OA
BRANCH  14  15
HETATM   15  C7  UNL     1      16.939   3.352  51.492  1.00  0.00     0.169 C 
BRANCH  15  16
HETATM   16  C6  UNL     1      16.027   4.372  52.183  1.00  0.00     0.056 C 
BRANCH  16  17
HETATM   17  C5  UNL     1      15.083   3.582  53.038  1.00  0.00     0.272 C 
BRANCH  17  18
HETATM   18  N1  UNL     1      14.382   4.427  53.938  1.00  0.00     0.085 N 
HETATM   19  H10 UNL     1      14.625   4.304  54.940  1.00  0.00     0.315 HD
BRANCH  18  20
HETATM   20  C4  UNL     1      12.955   4.526  53.716  1.00  0.00     0.295 C 
BRANCH  20  21
HETATM   21  C3  UNL     1      12.139   3.913  54.792  1.00  0.00     0.197 C 
BRANCH  21  22
HETATM   22  O1  UNL     1      12.108   2.538  54.706  1.00  0.00    -0.390 OA
BRANCH  22  23
HETATM   23  C2  UNL     1      10.817   2.045  54.674  1.00  0.00     0.163 C 
HETATM   24  C1  UNL     1      10.526   1.199  55.914  1.00  0.00     0.033 C 
ENDBRANCH  22  23
ENDBRANCH  21  22
ENDBRANCH  20  21
ENDBRANCH  18  20
ENDBRANCH  17  18
ENDBRANCH  16  17
ENDBRANCH  15  16
ENDBRANCH  14  15
ENDBRANCH  13  14
ENDBRANCH   1  13
BRANCH   5  25
HETATM   25  C12 UNL     1      22.917   1.102  51.520  1.00  0.00    -0.005 A 
HETATM   26  C13 UNL     1      24.261   1.206  51.547  1.00  0.00     0.017 A 
HETATM   27  C14 UNL     1      24.898   0.674  52.645  1.00  0.00     0.045 A 
HETATM   28  C15 UNL     1      24.248   0.057  53.691  1.00  0.00     0.138 A 
HETATM   29  F1  UNL     1      24.946  -0.445  54.740  1.00  0.00    -0.204 F 
HETATM   30  C16 UNL     1      22.877  -0.047  53.664  1.00  0.00     0.073 A 
HETATM   31 CL1  UNL     1      22.088  -0.834  55.010  1.00  0.00    -0.081 Cl
HETATM   32  C17 UNL     1      22.204   0.487  52.557  1.00  0.00     0.041 A 
ENDBRANCH   5  25
TORSDOF 11
ENDMDL
