MODEL 1
REMARK VINA RESULT:      -7.9      0.000      0.000
REMARK  10 active torsions:
REMARK  status: ('A' for Active; 'I' for Inactive)
REMARK       I    between atoms: C1_2  and  N1_3 
REMARK       I    between atoms: C1_2  and  N2_10 
REMARK    1  A    between atoms: N1_3  and  C2_4 
REMARK    2  A    between atoms: N2_10  and  C8_11 
REMARK    3  A    between atoms: N2_10  and  C15_21 
REMARK    4  A    between atoms: C8_11  and  C9_12 
REMARK    5  A    between atoms: C9_12  and  C14_19 
REMARK    6  A    between atoms: C10_13  and  C11_14 
REMARK    7  A    between atoms: C12_16  and  C13_17 
REMARK    8  A    between atoms: C14_19  and  O2_20 
REMARK    9  A    between atoms: C15_21  and  C16_22 
REMARK   10  A    between atoms: C19_25  and  O3_26 
ROOT
HETATM    1  O1  UNL     1      22.867   4.817  50.352  1.00  0.00    -0.247 OA
HETATM    2  C1  UNL     1      23.713   4.344  51.201  1.00  0.00     0.323 C 
HETATM    3  N1  UNL     1      24.753   5.322  51.210  1.00  0.00    -0.309 N 
HETATM    4  N2  UNL     1      23.679   3.125  51.988  1.00  0.00    -0.326 N 
HETATM    5  H1  UNL     1      25.576   5.195  51.812  1.00  0.00     0.170 HD
ENDROOT
BRANCH   4   6
HETATM    6  C8  UNL     1      24.775   2.882  52.837  1.00  0.00     0.164 C 
BRANCH   6   7
HETATM    7  C9  UNL     1      25.833   1.972  52.446  1.00  0.00    -0.037 C 
HETATM    8  C10 UNL     1      26.263   0.963  53.234  1.00  0.00     0.025 C 
BRANCH   8   9
HETATM    9  C11 UNL     1      27.234  -0.128  53.249  1.00  0.00     0.009 C 
HETATM   10 BR1  UNL     1      27.016  -1.933  52.593  1.00  0.00    -0.051 Br
HETATM   11  C12 UNL     1      28.461   0.067  53.771  1.00  0.00     0.023 C 
BRANCH  11  12
HETATM   12  C13 UNL     1      29.188   1.198  54.405  1.00  0.00     0.251 C 
HETATM   13  F1  UNL     1      29.185   2.317  53.608  1.00  0.00    -0.251 F 
ENDBRANCH  11  12
ENDBRANCH   8   9
BRANCH   7  14
HETATM   14  C14 UNL     1      26.464   2.174  51.142  1.00  0.00     0.200 C 
BRANCH  14  15
HETATM   15  O2  UNL     1      27.199   3.371  51.085  1.00  0.00    -0.397 OA
HETATM   16  H15 UNL     1      27.125   3.882  51.910  1.00  0.00     0.209 HD
ENDBRANCH  14  15
ENDBRANCH   7  14
ENDBRANCH   6   7
ENDBRANCH   4   6
BRANCH   4  17
HETATM   17  C15 UNL     1      22.473   2.406  51.640  1.00  0.00     0.166 C 
BRANCH  17  18
HETATM   18  C16 UNL     1      22.125   1.257  52.476  1.00  0.00    -0.040 A 
HETATM   19  C17 UNL     1      21.079   1.336  53.404  1.00  0.00     0.011 A 
HETATM   20  C18 UNL     1      20.667   0.317  54.238  1.00  0.00     0.037 A 
HETATM   21  C19 UNL     1      21.324  -0.892  54.177  1.00  0.00     0.065 A 
HETATM   22  C20 UNL     1      22.349  -1.030  53.296  1.00  0.00     0.037 A 
HETATM   23  C21 UNL     1      22.722   0.017  52.483  1.00  0.00     0.011 A 
BRANCH  21  24
HETATM   24  O3  UNL     1      20.911  -1.902  55.008  1.00  0.00    -0.361 OA
HETATM   25  H20 UNL     1      21.347  -2.139  55.874  1.00  0.00     0.217 HD
ENDBRANCH  21  24
ENDBRANCH  17  18
ENDBRANCH   4  17
BRANCH   3  26
HETATM   26  C2  UNL     1      24.420   6.384  50.296  1.00  0.00     0.036 A 
HETATM   27  C3  UNL     1      23.691   7.501  50.652  1.00  0.00     0.029 A 
HETATM   28  C4  UNL     1      23.429   8.468  49.677  1.00  0.00     0.002 A 
HETATM   29  C5  UNL     1      23.895   8.295  48.391  1.00  0.00     0.000 A 
HETATM   30  C6  UNL     1      24.620   7.169  48.063  1.00  0.00     0.002 A 
HETATM   31  C7  UNL     1      24.897   6.196  49.001  1.00  0.00     0.029 A 
ENDBRANCH   3  26
TORSDOF 10
ENDMDL
MODEL 2
REMARK VINA RESULT:      -7.8      3.056      7.840
REMARK  10 active torsions:
REMARK  status: ('A' for Active; 'I' for Inactive)
REMARK       I    between atoms: C1_2  and  N1_3 
REMARK       I    between atoms: C1_2  and  N2_10 
REMARK    1  A    between atoms: N1_3  and  C2_4 
REMARK    2  A    between atoms: N2_10  and  C8_11 
REMARK    3  A    between atoms: N2_10  and  C15_21 
REMARK    4  A    between atoms: C8_11  and  C9_12 
REMARK    5  A    between atoms: C9_12  and  C14_19 
REMARK    6  A    between atoms: C10_13  and  C11_14 
REMARK    7  A    between atoms: C12_16  and  C13_17 
REMARK    8  A    between atoms: C14_19  and  O2_20 
REMARK    9  A    between atoms: C15_21  and  C16_22 
REMARK   10  A    between atoms: C19_25  and  O3_26 
ROOT
HETATM    1  O1  UNL     1      26.943   1.561  51.159  1.00  0.00    -0.247 OA
HETATM    2  C1  UNL     1      26.013   2.216  51.763  1.00  0.00     0.323 C 
HETATM    3  N1  UNL     1      26.130   1.780  53.117  1.00  0.00    -0.309 N 
HETATM    4  N2  UNL     1      25.049   3.175  51.254  1.00  0.00    -0.326 N 
HETATM    5  H1  UNL     1      25.495   2.150  53.835  1.00  0.00     0.170 HD
ENDROOT
BRANCH   4   6
HETATM    6  C8  UNL     1      24.145   3.725  52.182  1.00  0.00     0.164 C 
BRANCH   6   7
HETATM    7  C9  UNL     1      22.790   3.220  52.290  1.00  0.00    -0.037 C 
HETATM    8  C10 UNL     1      22.505   1.913  52.477  1.00  0.00     0.025 C 
BRANCH   8   9
HETATM    9  C11 UNL     1      21.366   1.013  52.635  1.00  0.00     0.009 C 
HETATM   10 BR1  UNL     1      20.736   0.153  54.247  1.00  0.00    -0.051 Br
HETATM   11  C12 UNL     1      20.608   0.689  51.569  1.00  0.00     0.023 C 
BRANCH  11  12
HETATM   12  C13 UNL     1      20.598   1.023  50.121  1.00  0.00     0.251 C 
HETATM   13  F1  UNL     1      21.709   0.534  49.476  1.00  0.00    -0.251 F 
ENDBRANCH  11  12
ENDBRANCH   8   9
BRANCH   7  14
HETATM   14  C14 UNL     1      21.691   4.178  52.178  1.00  0.00     0.200 C 
BRANCH  14  15
HETATM   15  O2  UNL     1      22.144   5.509  52.162  1.00  0.00    -0.397 OA
HETATM   16  H15 UNL     1      21.985   5.957  53.011  1.00  0.00     0.209 HD
ENDBRANCH  14  15
ENDBRANCH   7  14
ENDBRANCH   6   7
ENDBRANCH   4   6
BRANCH   4  17
HETATM   17  C15 UNL     1      25.251   3.290  49.826  1.00  0.00     0.166 C 
BRANCH  17  18
HETATM   18  C16 UNL     1      25.960   4.481  49.355  1.00  0.00    -0.040 A 
HETATM   19  C17 UNL     1      27.285   4.396  48.909  1.00  0.00     0.011 A 
HETATM   20  C18 UNL     1      28.045   5.450  48.444  1.00  0.00     0.037 A 
HETATM   21  C19 UNL     1      27.477   6.705  48.404  1.00  0.00     0.065 A 
HETATM   22  C20 UNL     1      26.193   6.850  48.824  1.00  0.00     0.037 A 
HETATM   23  C21 UNL     1      25.476   5.767  49.280  1.00  0.00     0.011 A 
BRANCH  21  24
HETATM   24  O3  UNL     1      28.235   7.750  47.942  1.00  0.00    -0.361 OA
HETATM   25  H20 UNL     1      28.056   8.712  48.134  1.00  0.00     0.217 HD
ENDBRANCH  21  24
ENDBRANCH  17  18
ENDBRANCH   4  17
BRANCH   3  26
HETATM   26  C2  UNL     1      27.205   0.827  53.223  1.00  0.00     0.036 A 
HETATM   27  C3  UNL     1      27.059  -0.523  52.977  1.00  0.00     0.029 A 
HETATM   28  C4  UNL     1      28.176  -1.353  53.111  1.00  0.00     0.002 A 
HETATM   29  C5  UNL     1      29.391  -0.819  53.484  1.00  0.00     0.000 A 
HETATM   30  C6  UNL     1      29.508   0.534  53.725  1.00  0.00     0.002 A 
HETATM   31  C7  UNL     1      28.426   1.381  53.600  1.00  0.00     0.029 A 
ENDBRANCH   3  26
TORSDOF 10
ENDMDL
MODEL 3
REMARK VINA RESULT:      -7.7      2.716      7.587
REMARK  10 active torsions:
REMARK  status: ('A' for Active; 'I' for Inactive)
REMARK       I    between atoms: C1_2  and  N1_3 
REMARK       I    between atoms: C1_2  and  N2_10 
REMARK    1  A    between atoms: N1_3  and  C2_4 
REMARK    2  A    between atoms: N2_10  and  C8_11 
REMARK    3  A    between atoms: N2_10  and  C15_21 
REMARK    4  A    between atoms: C8_11  and  C9_12 
REMARK    5  A    between atoms: C9_12  and  C14_19 
REMARK    6  A    between atoms: C10_13  and  C11_14 
REMARK    7  A    between atoms: C12_16  and  C13_17 
REMARK    8  A    between atoms: C14_19  and  O2_20 
REMARK    9  A    between atoms: C15_21  and  C16_22 
REMARK   10  A    between atoms: C19_25  and  O3_26 
ROOT
HETATM    1  O1  UNL     1      26.904   1.647  51.237  1.00  0.00    -0.247 OA
HETATM    2  C1  UNL     1      25.865   2.151  51.806  1.00  0.00     0.323 C 
HETATM    3  N1  UNL     1      25.975   1.699  53.155  1.00  0.00    -0.309 N 
HETATM    4  N2  UNL     1      24.804   2.984  51.267  1.00  0.00    -0.326 N 
HETATM    5  H1  UNL     1      25.261   1.958  53.847  1.00  0.00     0.170 HD
ENDROOT
BRANCH   4   6
HETATM    6  C8  UNL     1      23.788   3.379  52.159  1.00  0.00     0.164 C 
BRANCH   6   7
HETATM    7  C9  UNL     1      22.504   2.706  52.169  1.00  0.00    -0.037 C 
HETATM    8  C10 UNL     1      22.346   1.428  52.572  1.00  0.00     0.025 C 
BRANCH   8   9
HETATM    9  C11 UNL     1      21.310   0.412  52.742  1.00  0.00     0.009 C 
HETATM   10 BR1  UNL     1      19.648   0.226  51.775  1.00  0.00    -0.051 Br
HETATM   11  C12 UNL     1      21.456  -0.553  53.672  1.00  0.00     0.023 C 
BRANCH  11  12
HETATM   12  C13 UNL     1      22.481  -0.918  54.684  1.00  0.00     0.251 C 
HETATM   13  F1  UNL     1      23.738  -0.999  54.132  1.00  0.00    -0.251 F 
ENDBRANCH  11  12
ENDBRANCH   8   9
BRANCH   7  14
HETATM   14  C14 UNL     1      21.336   3.455  51.707  1.00  0.00     0.200 C 
BRANCH  14  15
HETATM   15  O2  UNL     1      20.380   3.631  52.723  1.00  0.00    -0.397 OA
HETATM   16  H15 UNL     1      20.791   3.687  53.604  1.00  0.00     0.209 HD
ENDBRANCH  14  15
ENDBRANCH   7  14
ENDBRANCH   6   7
ENDBRANCH   4   6
BRANCH   4  17
HETATM   17  C15 UNL     1      25.057   3.166  49.855  1.00  0.00     0.166 C 
BRANCH  17  18
HETATM   18  C16 UNL     1      25.782   4.376  49.466  1.00  0.00    -0.040 A 
HETATM   19  C17 UNL     1      27.083   4.298  48.952  1.00  0.00     0.011 A 
HETATM   20  C18 UNL     1      27.855   5.370  48.554  1.00  0.00     0.037 A 
HETATM   21  C19 UNL     1      27.326   6.638  48.660  1.00  0.00     0.065 A 
HETATM   22  C20 UNL     1      26.067   6.778  49.151  1.00  0.00     0.037 A 
HETATM   23  C21 UNL     1      25.336   5.676  49.535  1.00  0.00     0.011 A 
BRANCH  21  24
HETATM   24  O3  UNL     1      28.096   7.701  48.263  1.00  0.00    -0.361 OA
HETATM   25  H20 UNL     1      28.258   8.521  48.807  1.00  0.00     0.217 HD
ENDBRANCH  21  24
ENDBRANCH  17  18
ENDBRANCH   4  17
BRANCH   3  26
HETATM   26  C2  UNL     1      27.165   0.898  53.296  1.00  0.00     0.036 A 
HETATM   27  C3  UNL     1      28.394   1.409  53.657  1.00  0.00     0.029 A 
HETATM   28  C4  UNL     1      29.479   0.533  53.762  1.00  0.00     0.002 A 
HETATM   29  C5  UNL     1      29.307  -0.811  53.506  1.00  0.00     0.000 A 
HETATM   30  C6  UNL     1      28.067  -1.294  53.145  1.00  0.00     0.002 A 
HETATM   31  C7  UNL     1      26.976  -0.457  53.033  1.00  0.00     0.029 A 
ENDBRANCH   3  26
TORSDOF 10
ENDMDL
MODEL 4
REMARK VINA RESULT:      -7.6      3.036      5.894
REMARK  10 active torsions:
REMARK  status: ('A' for Active; 'I' for Inactive)
REMARK       I    between atoms: C1_2  and  N1_3 
REMARK       I    between atoms: C1_2  and  N2_10 
REMARK    1  A    between atoms: N1_3  and  C2_4 
REMARK    2  A    between atoms: N2_10  and  C8_11 
REMARK    3  A    between atoms: N2_10  and  C15_21 
REMARK    4  A    between atoms: C8_11  and  C9_12 
REMARK    5  A    between atoms: C9_12  and  C14_19 
REMARK    6  A    between atoms: C10_13  and  C11_14 
REMARK    7  A    between atoms: C12_16  and  C13_17 
REMARK    8  A    between atoms: C14_19  and  O2_20 
REMARK    9  A    between atoms: C15_21  and  C16_22 
REMARK   10  A    between atoms: C19_25  and  O3_26 
ROOT
HETATM    1  O1  UNL     1      25.080   0.553  52.584  1.00  0.00    -0.247 OA
HETATM    2  C1  UNL     1      24.445   1.673  52.617  1.00  0.00     0.323 C 
HETATM    3  N1  UNL     1      25.320   2.526  53.354  1.00  0.00    -0.309 N 
HETATM    4  N2  UNL     1      23.156   2.044  52.062  1.00  0.00    -0.326 N 
HETATM    5  H1  UNL     1      25.056   3.502  53.536  1.00  0.00     0.170 HD
ENDROOT
BRANCH   4   6
HETATM    6  C8  UNL     1      22.727   3.368  52.273  1.00  0.00     0.164 C 
BRANCH   6   7
HETATM    7  C9  UNL     1      23.207   4.448  51.434  1.00  0.00    -0.037 C 
HETATM    8  C10 UNL     1      23.253   4.369  50.087  1.00  0.00     0.025 C 
BRANCH   8   9
HETATM    9  C11 UNL     1      23.633   5.157  48.918  1.00  0.00     0.009 C 
HETATM   10 BR1  UNL     1      22.481   5.951  47.585  1.00  0.00    -0.051 Br
HETATM   11  C12 UNL     1      24.933   5.406  48.664  1.00  0.00     0.023 C 
BRANCH  11  12
HETATM   12  C13 UNL     1      26.232   5.071  49.304  1.00  0.00     0.251 C 
HETATM   13  F1  UNL     1      27.246   4.973  48.382  1.00  0.00    -0.251 F 
ENDBRANCH  11  12
ENDBRANCH   8   9
BRANCH   7  14
HETATM   14  C14 UNL     1      23.672   5.670  52.091  1.00  0.00     0.200 C 
BRANCH  14  15
HETATM   15  O2  UNL     1      24.029   5.452  53.433  1.00  0.00    -0.397 OA
HETATM   16  H15 UNL     1      24.994   5.436  53.554  1.00  0.00     0.209 HD
ENDBRANCH  14  15
ENDBRANCH   7  14
ENDBRANCH   6   7
ENDBRANCH   4   6
BRANCH   4  17
HETATM   17  C15 UNL     1      22.589   0.870  51.436  1.00  0.00     0.166 C 
BRANCH  17  18
HETATM   18  C16 UNL     1      21.344   0.353  52.007  1.00  0.00    -0.040 A 
HETATM   19  C17 UNL     1      21.351  -0.362  53.212  1.00  0.00     0.011 A 
HETATM   20  C18 UNL     1      20.241  -0.890  53.838  1.00  0.00     0.037 A 
HETATM   21  C19 UNL     1      19.007  -0.715  53.251  1.00  0.00     0.065 A 
HETATM   22  C20 UNL     1      18.937  -0.030  52.080  1.00  0.00     0.037 A 
HETATM   23  C21 UNL     1      20.074   0.479  51.494  1.00  0.00     0.011 A 
BRANCH  21  24
HETATM   24  O3  UNL     1      17.906  -1.242  53.876  1.00  0.00    -0.361 OA
HETATM   25  H20 UNL     1      17.897  -2.101  54.383  1.00  0.00     0.217 HD
ENDBRANCH  21  24
ENDBRANCH  17  18
ENDBRANCH   4  17
BRANCH   3  26
HETATM   26  C2  UNL     1      26.500   1.792  53.731  1.00  0.00     0.036 A 
HETATM   27  C3  UNL     1      26.507   0.780  54.669  1.00  0.00     0.029 A 
HETATM   28  C4  UNL     1      27.716   0.138  54.953  1.00  0.00     0.002 A 
HETATM   29  C5  UNL     1      28.869   0.520  54.302  1.00  0.00     0.000 A 
HETATM   30  C6  UNL     1      28.834   1.535  53.370  1.00  0.00     0.002 A 
HETATM   31  C7  UNL     1      27.658   2.189  53.066  1.00  0.00     0.029 A 
ENDBRANCH   3  26
TORSDOF 10
ENDMDL
MODEL 5
REMARK VINA RESULT:      -7.4      3.145      5.179
REMARK  10 active torsions:
REMARK  status: ('A' for Active; 'I' for Inactive)
REMARK       I    between atoms: C1_2  and  N1_3 
REMARK       I    between atoms: C1_2  and  N2_10 
REMARK    1  A    between atoms: N1_3  and  C2_4 
REMARK    2  A    between atoms: N2_10  and  C8_11 
REMARK    3  A    between atoms: N2_10  and  C15_21 
REMARK    4  A    between atoms: C8_11  and  C9_12 
REMARK    5  A    between atoms: C9_12  and  C14_19 
REMARK    6  A    between atoms: C10_13  and  C11_14 
REMARK    7  A    between atoms: C12_16  and  C13_17 
REMARK    8  A    between atoms: C14_19  and  O2_20 
REMARK    9  A    between atoms: C15_21  and  C16_22 
REMARK   10  A    between atoms: C19_25  and  O3_26 
ROOT
HETATM    1  O1  UNL     1      25.517   4.141  50.960  1.00  0.00    -0.247 OA
HETATM    2  C1  UNL     1      24.453   3.541  50.551  1.00  0.00     0.323 C 
HETATM    3  N1  UNL     1      24.271   4.055  49.232  1.00  0.00    -0.309 N 
HETATM    4  N2  UNL     1      23.601   2.571  51.215  1.00  0.00    -0.326 N 
HETATM    5  H1  UNL     1      23.477   3.741  48.660  1.00  0.00     0.170 HD
ENDROOT
BRANCH   4   6
HETATM    6  C8  UNL     1      22.491   2.095  50.492  1.00  0.00     0.164 C 
BRANCH   6   7
HETATM    7  C9  UNL     1      21.237   1.807  51.159  1.00  0.00    -0.037 C 
HETATM    8  C10 UNL     1      20.961   0.611  51.721  1.00  0.00     0.025 C 
BRANCH   8   9
HETATM    9  C11 UNL     1      19.902  -0.081  52.451  1.00  0.00     0.009 C 
HETATM   10 BR1  UNL     1      18.072  -0.380  51.907  1.00  0.00    -0.051 Br
HETATM   11  C12 UNL     1      20.151  -0.606  53.668  1.00  0.00     0.023 C 
BRANCH  11  12
HETATM   12  C13 UNL     1      21.324  -0.690  54.577  1.00  0.00     0.251 C 
HETATM   13  F1  UNL     1      21.884  -1.946  54.574  1.00  0.00    -0.251 F 
ENDBRANCH  11  12
ENDBRANCH   8   9
BRANCH   7  14
HETATM   14  C14 UNL     1      20.227   2.864  51.206  1.00  0.00     0.200 C 
BRANCH  14  15
HETATM   15  O2  UNL     1      20.023   3.349  52.509  1.00  0.00    -0.397 OA
HETATM   16  H15 UNL     1      20.845   3.345  53.031  1.00  0.00     0.209 HD
ENDBRANCH  14  15
ENDBRANCH   7  14
ENDBRANCH   6   7
ENDBRANCH   4   6
BRANCH   4  17
HETATM   17  C15 UNL     1      24.121   2.366  52.549  1.00  0.00     0.166 C 
BRANCH  17  18
HETATM   18  C16 UNL     1      24.892   1.143  52.776  1.00  0.00    -0.040 A 
HETATM   19  C17 UNL     1      25.957   0.801  51.934  1.00  0.00     0.011 A 
HETATM   20  C18 UNL     1      26.748  -0.323  52.056  1.00  0.00     0.037 A 
HETATM   21  C19 UNL     1      26.491  -1.202  53.085  1.00  0.00     0.065 A 
HETATM   22  C20 UNL     1      25.469  -0.924  53.936  1.00  0.00     0.037 A 
HETATM   23  C21 UNL     1      24.707   0.212  53.773  1.00  0.00     0.011 A 
BRANCH  21  24
HETATM   24  O3  UNL     1      27.280  -2.318  53.203  1.00  0.00    -0.361 OA
HETATM   25  H20 UNL     1      27.718  -2.618  54.047  1.00  0.00     0.217 HD
ENDBRANCH  21  24
ENDBRANCH  17  18
ENDBRANCH   4  17
BRANCH   3  26
HETATM   26  C2  UNL     1      25.323   4.993  48.934  1.00  0.00     0.036 A 
HETATM   27  C3  UNL     1      26.660   4.657  48.887  1.00  0.00     0.029 A 
HETATM   28  C4  UNL     1      27.592   5.655  48.586  1.00  0.00     0.002 A 
HETATM   29  C5  UNL     1      27.168   6.944  48.346  1.00  0.00     0.000 A 
HETATM   30  C6  UNL     1      25.825   7.253  48.400  1.00  0.00     0.002 A 
HETATM   31  C7  UNL     1      24.880   6.292  48.693  1.00  0.00     0.029 A 
ENDBRANCH   3  26
TORSDOF 10
ENDMDL
MODEL 6
REMARK VINA RESULT:      -7.4      3.318      6.327
REMARK  10 active torsions:
REMARK  status: ('A' for Active; 'I' for Inactive)
REMARK       I    between atoms: C1_2  and  N1_3 
REMARK       I    between atoms: C1_2  and  N2_10 
REMARK    1  A    between atoms: N1_3  and  C2_4 
REMARK    2  A    between atoms: N2_10  and  C8_11 
REMARK    3  A    between atoms: N2_10  and  C15_21 
REMARK    4  A    between atoms: C8_11  and  C9_12 
REMARK    5  A    between atoms: C9_12  and  C14_19 
REMARK    6  A    between atoms: C10_13  and  C11_14 
REMARK    7  A    between atoms: C12_16  and  C13_17 
REMARK    8  A    between atoms: C14_19  and  O2_20 
REMARK    9  A    between atoms: C15_21  and  C16_22 
REMARK   10  A    between atoms: C19_25  and  O3_26 
ROOT
HETATM    1  O1  UNL     1      25.172   0.656  52.576  1.00  0.00    -0.247 OA
HETATM    2  C1  UNL     1      24.585   1.802  52.613  1.00  0.00     0.323 C 
HETATM    3  N1  UNL     1      25.491   2.612  53.362  1.00  0.00    -0.309 N 
HETATM    4  N2  UNL     1      23.317   2.231  52.053  1.00  0.00    -0.326 N 
HETATM    5  H1  UNL     1      25.267   3.597  53.550  1.00  0.00     0.170 HD
ENDROOT
BRANCH   4   6
HETATM    6  C8  UNL     1      22.943   3.571  52.271  1.00  0.00     0.164 C 
BRANCH   6   7
HETATM    7  C9  UNL     1      22.606   4.440  51.161  1.00  0.00    -0.037 C 
HETATM    8  C10 UNL     1      23.071   4.248  49.909  1.00  0.00     0.025 C 
BRANCH   8   9
HETATM    9  C11 UNL     1      22.999   4.829  48.570  1.00  0.00     0.009 C 
HETATM   10 BR1  UNL     1      23.611   6.566  47.986  1.00  0.00    -0.051 Br
HETATM   11  C12 UNL     1      22.446   4.129  47.559  1.00  0.00     0.023 C 
BRANCH  11  12
HETATM   12  C13 UNL     1      21.823   2.789  47.400  1.00  0.00     0.251 C 
HETATM   13  F1  UNL     1      22.756   1.781  47.461  1.00  0.00    -0.251 F 
ENDBRANCH  11  12
ENDBRANCH   8   9
BRANCH   7  14
HETATM   14  C14 UNL     1      21.730   5.581  51.427  1.00  0.00     0.200 C 
BRANCH  14  15
HETATM   15  O2  UNL     1      22.441   6.791  51.511  1.00  0.00    -0.397 OA
HETATM   16  H15 UNL     1      23.217   6.716  52.095  1.00  0.00     0.209 HD
ENDBRANCH  14  15
ENDBRANCH   7  14
ENDBRANCH   6   7
ENDBRANCH   4   6
BRANCH   4  17
HETATM   17  C15 UNL     1      22.704   1.087  51.414  1.00  0.00     0.166 C 
BRANCH  17  18
HETATM   18  C16 UNL     1      21.569   0.475  52.105  1.00  0.00    -0.040 A 
HETATM   19  C17 UNL     1      20.276   0.556  51.571  1.00  0.00     0.011 A 
HETATM   20  C18 UNL     1      19.139   0.017  52.136  1.00  0.00     0.037 A 
HETATM   21  C19 UNL     1      19.254  -0.665  53.327  1.00  0.00     0.065 A 
HETATM   22  C20 UNL     1      20.483  -0.777  53.895  1.00  0.00     0.037 A 
HETATM   23  C21 UNL     1      21.589  -0.221  53.292  1.00  0.00     0.011 A 
BRANCH  21  24
HETATM   24  O3  UNL     1      18.121  -1.200  53.886  1.00  0.00    -0.361 OA
HETATM   25  H20 UNL     1      17.330  -1.521  53.370  1.00  0.00     0.217 HD
ENDBRANCH  21  24
ENDBRANCH  17  18
ENDBRANCH   4  17
BRANCH   3  26
HETATM   26  C2  UNL     1      26.636   1.826  53.742  1.00  0.00     0.036 A 
HETATM   27  C3  UNL     1      26.593   0.806  54.670  1.00  0.00     0.029 A 
HETATM   28  C4  UNL     1      27.771   0.111  54.957  1.00  0.00     0.002 A 
HETATM   29  C5  UNL     1      28.945   0.450  54.319  1.00  0.00     0.000 A 
HETATM   30  C6  UNL     1      28.960   1.475  53.396  1.00  0.00     0.002 A 
HETATM   31  C7  UNL     1      27.815   2.180  53.088  1.00  0.00     0.029 A 
ENDBRANCH   3  26
TORSDOF 10
ENDMDL
MODEL 7
REMARK VINA RESULT:      -7.3      3.160      6.100
REMARK  10 active torsions:
REMARK  status: ('A' for Active; 'I' for Inactive)
REMARK       I    between atoms: C1_2  and  N1_3 
REMARK       I    between atoms: C1_2  and  N2_10 
REMARK    1  A    between atoms: N1_3  and  C2_4 
REMARK    2  A    between atoms: N2_10  and  C8_11 
REMARK    3  A    between atoms: N2_10  and  C15_21 
REMARK    4  A    between atoms: C8_11  and  C9_12 
REMARK    5  A    between atoms: C9_12  and  C14_19 
REMARK    6  A    between atoms: C10_13  and  C11_14 
REMARK    7  A    between atoms: C12_16  and  C13_17 
REMARK    8  A    between atoms: C14_19  and  O2_20 
REMARK    9  A    between atoms: C15_21  and  C16_22 
REMARK   10  A    between atoms: C19_25  and  O3_26 
ROOT
HETATM    1  O1  UNL     1      25.383   2.019  53.323  1.00  0.00    -0.247 OA
HETATM    2  C1  UNL     1      25.301   2.654  52.206  1.00  0.00     0.323 C 
HETATM    3  N1  UNL     1      26.620   2.551  51.670  1.00  0.00    -0.309 N 
HETATM    4  N2  UNL     1      24.177   3.332  51.585  1.00  0.00    -0.326 N 
HETATM    5  H1  UNL     1      26.845   2.981  50.764  1.00  0.00     0.170 HD
ENDROOT
BRANCH   4   6
HETATM    6  C8  UNL     1      24.410   3.946  50.340  1.00  0.00     0.164 C 
BRANCH   6   7
HETATM    7  C9  UNL     1      24.753   5.352  50.256  1.00  0.00    -0.037 C 
HETATM    8  C10 UNL     1      25.803   5.811  49.542  1.00  0.00     0.025 C 
BRANCH   8   9
HETATM    9  C11 UNL     1      26.478   7.059  49.193  1.00  0.00     0.009 C 
HETATM   10 BR1  UNL     1      25.855   8.869  49.455  1.00  0.00    -0.051 Br
HETATM   11  C12 UNL     1      27.692   7.030  48.609  1.00  0.00     0.023 C 
BRANCH  11  12
HETATM   12  C13 UNL     1      28.645   5.976  48.172  1.00  0.00     0.251 C 
HETATM   13  F1  UNL     1      28.083   4.723  48.229  1.00  0.00    -0.251 F 
ENDBRANCH  11  12
ENDBRANCH   8   9
BRANCH   7  14
HETATM   14  C14 UNL     1      23.923   6.304  50.992  1.00  0.00     0.200 C 
BRANCH  14  15
HETATM   15  O2  UNL     1      24.522   6.715  52.196  1.00  0.00    -0.397 OA
HETATM   16  H15 UNL     1      25.240   7.354  52.044  1.00  0.00     0.209 HD
ENDBRANCH  14  15
ENDBRANCH   7  14
ENDBRANCH   6   7
ENDBRANCH   4   6
BRANCH   4  17
HETATM   17  C15 UNL     1      23.049   3.233  52.484  1.00  0.00     0.166 C 
BRANCH  17  18
HETATM   18  C16 UNL     1      21.975   2.316  52.097  1.00  0.00    -0.040 A 
HETATM   19  C17 UNL     1      20.655   2.545  52.507  1.00  0.00     0.011 A 
HETATM   20  C18 UNL     1      19.571   1.749  52.200  1.00  0.00     0.037 A 
HETATM   21  C19 UNL     1      19.773   0.628  51.427  1.00  0.00     0.065 A 
HETATM   22  C20 UNL     1      21.033   0.353  50.999  1.00  0.00     0.037 A 
HETATM   23  C21 UNL     1      22.084   1.178  51.331  1.00  0.00     0.011 A 
BRANCH  21  24
HETATM   24  O3  UNL     1      18.692  -0.160  51.124  1.00  0.00    -0.361 OA
HETATM   25  H20 UNL     1      18.314  -0.280  50.209  1.00  0.00     0.217 HD
ENDBRANCH  21  24
ENDBRANCH  17  18
ENDBRANCH   4  17
BRANCH   3  26
HETATM   26  C2  UNL     1      27.449   1.803  52.580  1.00  0.00     0.036 A 
HETATM   27  C3  UNL     1      28.306   2.384  53.491  1.00  0.00     0.029 A 
HETATM   28  C4  UNL     1      29.062   1.554  54.325  1.00  0.00     0.002 A 
HETATM   29  C5  UNL     1      28.944   0.184  54.224  1.00  0.00     0.000 A 
HETATM   30  C6  UNL     1      28.081  -0.370  53.302  1.00  0.00     0.002 A 
HETATM   31  C7  UNL     1      27.320   0.420  52.466  1.00  0.00     0.029 A 
ENDBRANCH   3  26
TORSDOF 10
ENDMDL
MODEL 8
REMARK VINA RESULT:      -7.2      2.832      4.882
REMARK  10 active torsions:
REMARK  status: ('A' for Active; 'I' for Inactive)
REMARK       I    between atoms: C1_2  and  N1_3 
REMARK       I    between atoms: C1_2  and  N2_10 
REMARK    1  A    between atoms: N1_3  and  C2_4 
REMARK    2  A    between atoms: N2_10  and  C8_11 
REMARK    3  A    between atoms: N2_10  and  C15_21 
REMARK    4  A    between atoms: C8_11  and  C9_12 
REMARK    5  A    between atoms: C9_12  and  C14_19 
REMARK    6  A    between atoms: C10_13  and  C11_14 
REMARK    7  A    between atoms: C12_16  and  C13_17 
REMARK    8  A    between atoms: C14_19  and  O2_20 
REMARK    9  A    between atoms: C15_21  and  C16_22 
REMARK   10  A    between atoms: C19_25  and  O3_26 
ROOT
HETATM    1  O1  UNL     1      26.192   4.804  49.448  1.00  0.00    -0.247 OA
HETATM    2  C1  UNL     1      25.422   4.616  50.462  1.00  0.00     0.323 C 
HETATM    3  N1  UNL     1      24.762   5.873  50.613  1.00  0.00    -0.309 N 
HETATM    4  N2  UNL     1      25.224   3.442  51.293  1.00  0.00    -0.326 N 
HETATM    5  H1  UNL     1      24.076   6.009  51.365  1.00  0.00     0.170 HD
ENDROOT
BRANCH   4   6
HETATM    6  C8  UNL     1      24.297   3.554  52.346  1.00  0.00     0.164 C 
BRANCH   6   7
HETATM    7  C9  UNL     1      22.989   2.934  52.257  1.00  0.00    -0.037 C 
HETATM    8  C10 UNL     1      22.804   1.598  52.305  1.00  0.00     0.025 C 
BRANCH   8   9
HETATM    9  C11 UNL     1      21.740   0.598  52.259  1.00  0.00     0.009 C 
HETATM   10 BR1  UNL     1      20.194   0.551  51.102  1.00  0.00    -0.051 Br
HETATM   11  C12 UNL     1      21.766  -0.455  53.099  1.00  0.00     0.023 C 
BRANCH  11  12
HETATM   12  C13 UNL     1      22.666  -0.944  54.176  1.00  0.00     0.251 C 
HETATM   13  F1  UNL     1      22.051  -0.922  55.405  1.00  0.00    -0.251 F 
ENDBRANCH  11  12
ENDBRANCH   8   9
BRANCH   7  14
HETATM   14  C14 UNL     1      21.827   3.807  52.096  1.00  0.00     0.200 C 
BRANCH  14  15
HETATM   15  O2  UNL     1      21.920   4.612  50.946  1.00  0.00    -0.397 OA
HETATM   16  H15 UNL     1      22.229   4.107  50.174  1.00  0.00     0.209 HD
ENDBRANCH  14  15
ENDBRANCH   7  14
ENDBRANCH   6   7
ENDBRANCH   4   6
BRANCH   4  17
HETATM   17  C15 UNL     1      26.120   2.410  50.821  1.00  0.00     0.166 C 
BRANCH  17  18
HETATM   18  C16 UNL     1      26.763   1.579  51.840  1.00  0.00    -0.040 A 
HETATM   19  C17 UNL     1      27.687   2.131  52.737  1.00  0.00     0.011 A 
HETATM   20  C18 UNL     1      28.349   1.442  53.733  1.00  0.00     0.037 A 
HETATM   21  C19 UNL     1      28.100   0.096  53.881  1.00  0.00     0.065 A 
HETATM   22  C20 UNL     1      27.212  -0.497  53.040  1.00  0.00     0.037 A 
HETATM   23  C21 UNL     1      26.577   0.233  52.061  1.00  0.00     0.011 A 
BRANCH  21  24
HETATM   24  O3  UNL     1      28.760  -0.584  54.873  1.00  0.00    -0.361 OA
HETATM   25  H20 UNL     1      28.367  -0.822  55.758  1.00  0.00     0.217 HD
ENDBRANCH  21  24
ENDBRANCH  17  18
ENDBRANCH   4  17
BRANCH   3  26
HETATM   26  C2  UNL     1      25.226   6.782  49.596  1.00  0.00     0.036 A 
HETATM   27  C3  UNL     1      24.761   6.783  48.298  1.00  0.00     0.029 A 
HETATM   28  C4  UNL     1      25.287   7.715  47.398  1.00  0.00     0.002 A 
HETATM   29  C5  UNL     1      26.251   8.608  47.815  1.00  0.00     0.000 A 
HETATM   30  C6  UNL     1      26.699   8.584  49.119  1.00  0.00     0.002 A 
HETATM   31  C7  UNL     1      26.200   7.678  50.032  1.00  0.00     0.029 A 
ENDBRANCH   3  26
TORSDOF 10
ENDMDL
MODEL 9
REMARK VINA RESULT:      -7.1      2.671      5.966
REMARK  10 active torsions:
REMARK  status: ('A' for Active; 'I' for Inactive)
REMARK       I    between atoms: C1_2  and  N1_3 
REMARK       I    between atoms: C1_2  and  N2_10 
REMARK    1  A    between atoms: N1_3  and  C2_4 
REMARK    2  A    between atoms: N2_10  and  C8_11 
REMARK    3  A    between atoms: N2_10  and  C15_21 
REMARK    4  A    between atoms: C8_11  and  C9_12 
REMARK    5  A    between atoms: C9_12  and  C14_19 
REMARK    6  A    between atoms: C10_13  and  C11_14 
REMARK    7  A    between atoms: C12_16  and  C13_17 
REMARK    8  A    between atoms: C14_19  and  O2_20 
REMARK    9  A    between atoms: C15_21  and  C16_22 
REMARK   10  A    between atoms: C19_25  and  O3_26 
ROOT
HETATM    1  O1  UNL     1      25.322   1.266  53.482  1.00  0.00    -0.247 OA
HETATM    2  C1  UNL     1      25.000   1.506  52.258  1.00  0.00     0.323 C 
HETATM    3  N1  UNL     1      26.189   1.188  51.535  1.00  0.00    -0.309 N 
HETATM    4  N2  UNL     1      23.754   1.984  51.686  1.00  0.00    -0.326 N 
HETATM    5  H1  UNL     1      26.216   1.292  50.514  1.00  0.00     0.170 HD
ENDROOT
BRANCH   4   6
HETATM    6  C8  UNL     1      23.716   2.151  50.289  1.00  0.00     0.164 C 
BRANCH   6   7
HETATM    7  C9  UNL     1      24.040   3.428  49.683  1.00  0.00    -0.037 C 
HETATM    8  C10 UNL     1      25.173   4.107  49.960  1.00  0.00     0.025 C 
BRANCH   8   9
HETATM    9  C11 UNL     1      25.869   5.343  49.608  1.00  0.00     0.009 C 
HETATM   10 BR1  UNL     1      27.476   5.553  48.557  1.00  0.00    -0.051 Br
HETATM   11  C12 UNL     1      25.394   6.530  50.035  1.00  0.00     0.023 C 
BRANCH  11  12
HETATM   12  C13 UNL     1      24.239   6.991  50.848  1.00  0.00     0.251 C 
HETATM   13  F1  UNL     1      24.122   6.281  52.019  1.00  0.00    -0.251 F 
ENDBRANCH  11  12
ENDBRANCH   8   9
BRANCH   7  14
HETATM   14  C14 UNL     1      23.080   4.000  48.739  1.00  0.00     0.200 C 
BRANCH  14  15
HETATM   15  O2  UNL     1      22.478   3.020  47.930  1.00  0.00    -0.397 OA
HETATM   16  H15 UNL     1      22.920   2.940  47.067  1.00  0.00     0.209 HD
ENDBRANCH  14  15
ENDBRANCH   7  14
ENDBRANCH   6   7
ENDBRANCH   4   6
BRANCH   4  17
HETATM   17  C15 UNL     1      22.830   2.223  52.773  1.00  0.00     0.166 C 
BRANCH  17  18
HETATM   18  C16 UNL     1      21.806   1.203  53.004  1.00  0.00    -0.040 A 
HETATM   19  C17 UNL     1      21.985   0.216  53.982  1.00  0.00     0.011 A 
HETATM   20  C18 UNL     1      21.087  -0.788  54.283  1.00  0.00     0.037 A 
HETATM   21  C19 UNL     1      19.906  -0.850  53.577  1.00  0.00     0.065 A 
HETATM   22  C20 UNL     1      19.676   0.081  52.615  1.00  0.00     0.037 A 
HETATM   23  C21 UNL     1      20.603   1.065  52.351  1.00  0.00     0.011 A 
BRANCH  21  24
HETATM   24  O3  UNL     1      19.017  -1.849  53.879  1.00  0.00    -0.361 OA
HETATM   25  H20 UNL     1      19.037  -2.766  53.488  1.00  0.00     0.217 HD
ENDBRANCH  21  24
ENDBRANCH  17  18
ENDBRANCH   4  17
BRANCH   3  26
HETATM   26  C2  UNL     1      27.206   0.747  52.456  1.00  0.00     0.036 A 
HETATM   27  C3  UNL     1      27.430  -0.576  52.775  1.00  0.00     0.029 A 
HETATM   28  C4  UNL     1      28.448  -0.883  53.683  1.00  0.00     0.002 A 
HETATM   29  C5  UNL     1      29.202   0.127  54.241  1.00  0.00     0.000 A 
HETATM   30  C6  UNL     1      28.955   1.442  53.905  1.00  0.00     0.002 A 
HETATM   31  C7  UNL     1      27.960   1.779  53.012  1.00  0.00     0.029 A 
ENDBRANCH   3  26
TORSDOF 10
ENDMDL
