MODEL 1
REMARK VINA RESULT:      -8.2      0.000      0.000
REMARK  6 active torsions:
REMARK  status: ('A' for Active; 'I' for Inactive)
REMARK    1  A    between atoms: O1_2  and  C2_3 
REMARK    2  A    between atoms: C2_3  and  C3_4 
REMARK    3  A    between atoms: C8_9  and  O2_10 
REMARK    4  A    between atoms: C11_13  and  N1_14 
REMARK    5  A    between atoms: C11_13  and  N3_16 
REMARK    6  A    between atoms: N3_16  and  C12_17 
ROOT
HETATM    1  C3  UNL     1      26.821   0.262  53.024  1.00  0.00    -0.001 A 
HETATM    2  C4  UNL     1      26.504   0.801  51.786  1.00  0.00     0.020 A 
HETATM    3  C5  UNL     1      25.661   1.872  51.584  1.00  0.00    -0.047 A 
HETATM    4  C6  UNL     1      25.080   2.464  52.697  1.00  0.00    -0.045 A 
HETATM    5  C7  UNL     1      25.374   1.954  53.939  1.00  0.00     0.045 A 
HETATM    6  C8  UNL     1      26.231   0.868  54.116  1.00  0.00     0.074 A 
HETATM    7  C9  UNL     1      24.191   3.609  52.368  1.00  0.00     0.077 C 
HETATM    8  C10 UNL     1      24.668   3.910  50.981  1.00  0.00    -0.024 C 
HETATM    9  C11 UNL     1      24.576   5.173  50.530  1.00  0.00     0.152 C 
HETATM   10  C18 UNL     1      25.173   2.618  50.392  1.00  0.00     0.077 C 
ENDROOT
BRANCH   9  11
HETATM   11  N1  UNL     1      23.997   5.965  51.583  1.00  0.00    -0.139 NA
HETATM   12  N2  UNL     1      24.529   7.043  51.935  1.00  0.00    -0.202 NA
HETATM   13  H11 UNL     1      24.238   7.704  52.656  1.00  0.00     0.212 HD
ENDBRANCH   9  11
BRANCH   9  14
HETATM   14  N3  UNL     1      25.017   5.503  49.226  1.00  0.00    -0.339 N 
HETATM   15  H12 UNL     1      24.282   5.336  48.478  1.00  0.00     0.167 HD
BRANCH  14  16
HETATM   16  C12 UNL     1      26.307   6.014  48.861  1.00  0.00     0.036 A 
HETATM   17  C13 UNL     1      26.474   7.395  48.812  1.00  0.00     0.029 A 
HETATM   18  C14 UNL     1      27.732   7.833  48.456  1.00  0.00     0.005 A 
HETATM   19  C15 UNL     1      28.748   6.947  48.168  1.00  0.00     0.042 A 
HETATM   20  C16 UNL     1      28.562   5.583  48.222  1.00  0.00     0.118 A 
HETATM   21  F1  UNL     1      29.607   4.771  47.927  1.00  0.00    -0.206 F 
HETATM   22  C17 UNL     1      27.309   5.132  48.578  1.00  0.00     0.071 A 
ENDBRANCH  14  16
ENDBRANCH   9  14
BRANCH   6  23
HETATM   23  O2  UNL     1      26.534   0.347  55.374  1.00  0.00    -0.360 OA
HETATM   24  H8  UNL     1      25.874  -0.309  55.802  1.00  0.00     0.217 HD
ENDBRANCH   6  23
BRANCH   1  25
HETATM   25  C2  UNL     1      27.752  -0.895  53.080  1.00  0.00     0.208 C 
BRANCH  25  26
HETATM   26  O1  UNL     1      28.643  -0.842  54.143  1.00  0.00    -0.391 OA
HETATM   27  C1  UNL     1      29.850  -0.348  53.608  1.00  0.00     0.201 C 
ENDBRANCH  25  26
ENDBRANCH   1  25
TORSDOF 6
ENDMDL
MODEL 2
REMARK VINA RESULT:      -7.9      5.756      7.960
REMARK  6 active torsions:
REMARK  status: ('A' for Active; 'I' for Inactive)
REMARK    1  A    between atoms: O1_2  and  C2_3 
REMARK    2  A    between atoms: C2_3  and  C3_4 
REMARK    3  A    between atoms: C8_9  and  O2_10 
REMARK    4  A    between atoms: C11_13  and  N1_14 
REMARK    5  A    between atoms: C11_13  and  N3_16 
REMARK    6  A    between atoms: N3_16  and  C12_17 
ROOT
HETATM    1  C3  UNL     1      18.990   0.270  51.302  1.00  0.00    -0.001 A 
HETATM    2  C4  UNL     1      20.294   0.714  51.138  1.00  0.00     0.020 A 
HETATM    3  C5  UNL     1      21.297   0.583  52.075  1.00  0.00    -0.047 A 
HETATM    4  C6  UNL     1      20.989  -0.039  53.276  1.00  0.00    -0.045 A 
HETATM    5  C7  UNL     1      19.705  -0.491  53.471  1.00  0.00     0.045 A 
HETATM    6  C8  UNL     1      18.709  -0.345  52.506  1.00  0.00     0.074 A 
HETATM    7  C9  UNL     1      22.139  -0.129  54.213  1.00  0.00     0.077 C 
HETATM    8  C10 UNL     1      23.266   0.100  53.254  1.00  0.00    -0.024 C 
HETATM    9  C11 UNL     1      24.461  -0.453  53.523  1.00  0.00     0.152 C 
HETATM   10  C18 UNL     1      22.733   0.963  52.139  1.00  0.00     0.077 C 
ENDROOT
BRANCH   9  11
HETATM   11  N1  UNL     1      24.332  -1.178  54.759  1.00  0.00    -0.139 NA
HETATM   12  N2  UNL     1      25.215  -1.092  55.643  1.00  0.00    -0.202 NA
HETATM   13  H11 UNL     1      25.262  -1.540  56.559  1.00  0.00     0.212 HD
ENDBRANCH   9  11
BRANCH   9  14
HETATM   14  N3  UNL     1      25.553  -0.264  52.641  1.00  0.00    -0.339 N 
HETATM   15  H12 UNL     1      25.286  -0.347  51.618  1.00  0.00     0.167 HD
BRANCH  14  16
HETATM   16  C12 UNL     1      26.912   0.017  53.008  1.00  0.00     0.036 A 
HETATM   17  C13 UNL     1      27.792  -1.055  53.129  1.00  0.00     0.029 A 
HETATM   18  C14 UNL     1      29.084  -0.730  53.484  1.00  0.00     0.005 A 
HETATM   19  C15 UNL     1      29.464   0.577  53.702  1.00  0.00     0.042 A 
HETATM   20  C16 UNL     1      28.577   1.623  53.577  1.00  0.00     0.118 A 
HETATM   21  F1  UNL     1      29.021   2.883  53.807  1.00  0.00    -0.206 F 
HETATM   22  C17 UNL     1      27.282   1.312  53.222  1.00  0.00     0.071 A 
ENDBRANCH  14  16
ENDBRANCH   9  14
BRANCH   6  23
HETATM   23  O2  UNL     1      17.405  -0.803  52.697  1.00  0.00    -0.360 OA
HETATM   24  H8  UNL     1      17.260  -1.631  53.282  1.00  0.00     0.217 HD
ENDBRANCH   6  23
BRANCH   1  25
HETATM   25  C2  UNL     1      18.021   0.483  50.195  1.00  0.00     0.208 C 
BRANCH  25  26
HETATM   26  O1  UNL     1      17.149  -0.580  50.009  1.00  0.00    -0.391 OA
HETATM   27  C1  UNL     1      16.048  -0.054  49.302  1.00  0.00     0.201 C 
ENDBRANCH  25  26
ENDBRANCH   1  25
TORSDOF 6
ENDMDL
MODEL 3
REMARK VINA RESULT:      -7.8      5.268      7.378
REMARK  6 active torsions:
REMARK  status: ('A' for Active; 'I' for Inactive)
REMARK    1  A    between atoms: O1_2  and  C2_3 
REMARK    2  A    between atoms: C2_3  and  C3_4 
REMARK    3  A    between atoms: C8_9  and  O2_10 
REMARK    4  A    between atoms: C11_13  and  N1_14 
REMARK    5  A    between atoms: C11_13  and  N3_16 
REMARK    6  A    between atoms: N3_16  and  C12_17 
ROOT
HETATM    1  C3  UNL     1      19.462  -0.351  52.875  1.00  0.00    -0.001 A 
HETATM    2  C4  UNL     1      20.736  -0.763  53.241  1.00  0.00     0.020 A 
HETATM    3  C5  UNL     1      21.909  -0.189  52.798  1.00  0.00    -0.047 A 
HETATM    4  C6  UNL     1      21.820   0.882  51.921  1.00  0.00    -0.045 A 
HETATM    5  C7  UNL     1      20.573   1.315  51.538  1.00  0.00     0.045 A 
HETATM    6  C8  UNL     1      19.401   0.717  52.001  1.00  0.00     0.074 A 
HETATM    7  C9  UNL     1      23.140   1.426  51.508  1.00  0.00     0.077 C 
HETATM    8  C10 UNL     1      24.001   0.850  52.590  1.00  0.00    -0.024 C 
HETATM    9  C11 UNL     1      25.109   1.518  52.953  1.00  0.00     0.152 C 
HETATM   10  C18 UNL     1      23.356  -0.438  53.035  1.00  0.00     0.077 C 
ENDROOT
BRANCH   9  11
HETATM   11  N1  UNL     1      25.181   2.705  52.142  1.00  0.00    -0.139 NA
HETATM   12  N2  UNL     1      26.249   3.019  51.566  1.00  0.00    -0.202 NA
HETATM   13  H11 UNL     1      26.450   3.819  50.965  1.00  0.00     0.212 HD
ENDBRANCH   9  11
BRANCH   9  14
HETATM   14  N3  UNL     1      25.950   1.011  53.973  1.00  0.00    -0.339 N 
HETATM   15  H12 UNL     1      25.563   1.160  54.950  1.00  0.00     0.167 HD
BRANCH  14  16
HETATM   16  C12 UNL     1      27.211   0.349  53.795  1.00  0.00     0.036 A 
HETATM   17  C13 UNL     1      28.372   1.070  54.058  1.00  0.00     0.029 A 
HETATM   18  C14 UNL     1      29.555   0.387  53.870  1.00  0.00     0.005 A 
HETATM   19  C15 UNL     1      29.570  -0.925  53.447  1.00  0.00     0.042 A 
HETATM   20  C16 UNL     1      28.409  -1.620  53.192  1.00  0.00     0.118 A 
HETATM   21  F1  UNL     1      28.499  -2.908  52.779  1.00  0.00    -0.206 F 
HETATM   22  C17 UNL     1      27.218  -0.949  53.376  1.00  0.00     0.071 A 
ENDBRANCH  14  16
ENDBRANCH   9  14
BRANCH   6  23
HETATM   23  O2  UNL     1      18.132   1.152  51.617  1.00  0.00    -0.360 OA
HETATM   24  H8  UNL     1      18.029   1.612  50.708  1.00  0.00     0.217 HD
ENDBRANCH   6  23
BRANCH   1  25
HETATM   25  C2  UNL     1      18.292  -1.070  53.441  1.00  0.00     0.208 C 
BRANCH  25  26
HETATM   26  O1  UNL     1      18.589  -2.349  53.890  1.00  0.00    -0.391 OA
HETATM   27  C1  UNL     1      17.474  -3.144  53.553  1.00  0.00     0.201 C 
ENDBRANCH  25  26
ENDBRANCH   1  25
TORSDOF 6
ENDMDL
MODEL 4
REMARK VINA RESULT:      -7.7      3.932      4.936
REMARK  6 active torsions:
REMARK  status: ('A' for Active; 'I' for Inactive)
REMARK    1  A    between atoms: O1_2  and  C2_3 
REMARK    2  A    between atoms: C2_3  and  C3_4 
REMARK    3  A    between atoms: C8_9  and  O2_10 
REMARK    4  A    between atoms: C11_13  and  N1_14 
REMARK    5  A    between atoms: C11_13  and  N3_16 
REMARK    6  A    between atoms: N3_16  and  C12_17 
ROOT
HETATM    1  C3  UNL     1      20.771  -0.383  53.464  1.00  0.00    -0.001 A 
HETATM    2  C4  UNL     1      21.093   0.724  52.692  1.00  0.00     0.020 A 
HETATM    3  C5  UNL     1      22.346   1.293  52.612  1.00  0.00    -0.047 A 
HETATM    4  C6  UNL     1      23.369   0.724  53.357  1.00  0.00    -0.045 A 
HETATM    5  C7  UNL     1      23.083  -0.374  54.134  1.00  0.00     0.045 A 
HETATM    6  C8  UNL     1      21.806  -0.930  54.196  1.00  0.00     0.074 A 
HETATM    7  C9  UNL     1      24.677   1.413  53.199  1.00  0.00     0.077 C 
HETATM    8  C10 UNL     1      24.413   2.168  51.933  1.00  0.00    -0.024 C 
HETATM    9  C11 UNL     1      25.450   2.449  51.125  1.00  0.00     0.152 C 
HETATM   10  C18 UNL     1      22.933   2.447  51.880  1.00  0.00     0.077 C 
ENDROOT
BRANCH   9  11
HETATM   11  N1  UNL     1      26.633   1.905  51.738  1.00  0.00    -0.139 NA
HETATM   12  N2  UNL     1      27.584   2.654  52.061  1.00  0.00    -0.202 NA
HETATM   13  H11 UNL     1      28.475   2.417  52.499  1.00  0.00     0.212 HD
ENDBRANCH   9  11
BRANCH   9  14
HETATM   14  N3  UNL     1      25.246   3.159  49.917  1.00  0.00    -0.339 N 
HETATM   15  H12 UNL     1      24.503   2.725  49.295  1.00  0.00     0.167 HD
BRANCH  14  16
HETATM   16  C12 UNL     1      25.926   4.350  49.497  1.00  0.00     0.036 A 
HETATM   17  C13 UNL     1      25.295   5.573  49.707  1.00  0.00     0.029 A 
HETATM   18  C14 UNL     1      25.992   6.685  49.284  1.00  0.00     0.005 A 
HETATM   19  C15 UNL     1      27.233   6.576  48.693  1.00  0.00     0.042 A 
HETATM   20  C16 UNL     1      27.840   5.356  48.495  1.00  0.00     0.118 A 
HETATM   21  F1  UNL     1      29.061   5.325  47.909  1.00  0.00    -0.206 F 
HETATM   22  C17 UNL     1      27.154   4.235  48.914  1.00  0.00     0.071 A 
ENDBRANCH  14  16
ENDBRANCH   9  14
BRANCH   6  23
HETATM   23  O2  UNL     1      21.509  -2.045  54.981  1.00  0.00    -0.360 OA
HETATM   24  H8  UNL     1      21.378  -2.948  54.516  1.00  0.00     0.217 HD
ENDBRANCH   6  23
BRANCH   1  25
HETATM   25  C2  UNL     1      19.371  -0.883  53.442  1.00  0.00     0.208 C 
BRANCH  25  26
HETATM   26  O1  UNL     1      18.672  -0.528  52.297  1.00  0.00    -0.391 OA
HETATM   27  C1  UNL     1      17.319  -0.810  52.570  1.00  0.00     0.201 C 
ENDBRANCH  25  26
ENDBRANCH   1  25
TORSDOF 6
ENDMDL
MODEL 5
REMARK VINA RESULT:      -7.6      6.864      8.857
REMARK  6 active torsions:
REMARK  status: ('A' for Active; 'I' for Inactive)
REMARK    1  A    between atoms: O1_2  and  C2_3 
REMARK    2  A    between atoms: C2_3  and  C3_4 
REMARK    3  A    between atoms: C8_9  and  O2_10 
REMARK    4  A    between atoms: C11_13  and  N1_14 
REMARK    5  A    between atoms: C11_13  and  N3_16 
REMARK    6  A    between atoms: N3_16  and  C12_17 
ROOT
HETATM    1  C3  UNL     1      17.508  -0.333  50.984  1.00  0.00    -0.001 A 
HETATM    2  C4  UNL     1      18.825   0.102  50.977  1.00  0.00     0.020 A 
HETATM    3  C5  UNL     1      19.698  -0.007  52.038  1.00  0.00    -0.047 A 
HETATM    4  C6  UNL     1      19.234  -0.596  53.206  1.00  0.00    -0.045 A 
HETATM    5  C7  UNL     1      17.933  -1.039  53.245  1.00  0.00     0.045 A 
HETATM    6  C8  UNL     1      17.070  -0.916  52.157  1.00  0.00     0.074 A 
HETATM    7  C9  UNL     1      20.254  -0.665  54.285  1.00  0.00     0.077 C 
HETATM    8  C10 UNL     1      21.496  -0.465  53.473  1.00  0.00    -0.024 C 
HETATM    9  C11 UNL     1      22.643  -1.015  53.907  1.00  0.00     0.152 C 
HETATM   10  C18 UNL     1      21.117   0.370  52.276  1.00  0.00     0.077 C 
ENDROOT
BRANCH   9  11
HETATM   11  N1  UNL     1      22.351  -1.706  55.135  1.00  0.00    -0.139 NA
HETATM   12  N2  UNL     1      23.232  -1.838  56.017  1.00  0.00    -0.202 NA
HETATM   13  H11 UNL     1      23.174  -2.296  56.927  1.00  0.00     0.212 HD
ENDBRANCH   9  11
BRANCH   9  14
HETATM   14  N3  UNL     1      23.841  -0.852  53.169  1.00  0.00    -0.339 N 
HETATM   15  H12 UNL     1      23.920  -1.516  52.345  1.00  0.00     0.167 HD
BRANCH  14  16
HETATM   16  C12 UNL     1      24.891   0.087  53.436  1.00  0.00     0.036 A 
HETATM   17  C13 UNL     1      24.736   1.392  52.976  1.00  0.00     0.029 A 
HETATM   18  C14 UNL     1      25.775   2.253  53.259  1.00  0.00     0.005 A 
HETATM   19  C15 UNL     1      26.889   1.834  53.953  1.00  0.00     0.042 A 
HETATM   20  C16 UNL     1      27.024   0.538  54.399  1.00  0.00     0.118 A 
HETATM   21  F1  UNL     1      28.148   0.196  55.075  1.00  0.00    -0.206 F 
HETATM   22  C17 UNL     1      25.992  -0.334  54.124  1.00  0.00     0.071 A 
ENDBRANCH  14  16
ENDBRANCH   9  14
BRANCH   6  23
HETATM   23  O2  UNL     1      15.749  -1.364  52.191  1.00  0.00    -0.360 OA
HETATM   24  H8  UNL     1      15.002  -0.671  52.303  1.00  0.00     0.217 HD
ENDBRANCH   6  23
BRANCH   1  25
HETATM   25  C2  UNL     1      16.690  -0.147  49.757  1.00  0.00     0.208 C 
BRANCH  25  26
HETATM   26  O1  UNL     1      15.471   0.474  49.989  1.00  0.00    -0.391 OA
HETATM   27  C1  UNL     1      15.720   1.858  49.888  1.00  0.00     0.201 C 
ENDBRANCH  25  26
ENDBRANCH   1  25
TORSDOF 6
ENDMDL
MODEL 6
REMARK VINA RESULT:      -7.5      1.903      2.228
REMARK  6 active torsions:
REMARK  status: ('A' for Active; 'I' for Inactive)
REMARK    1  A    between atoms: O1_2  and  C2_3 
REMARK    2  A    between atoms: C2_3  and  C3_4 
REMARK    3  A    between atoms: C8_9  and  O2_10 
REMARK    4  A    between atoms: C11_13  and  N1_14 
REMARK    5  A    between atoms: C11_13  and  N3_16 
REMARK    6  A    between atoms: N3_16  and  C12_17 
ROOT
HETATM    1  C3  UNL     1      26.232   0.386  52.362  1.00  0.00    -0.001 A 
HETATM    2  C4  UNL     1      26.806   1.335  51.529  1.00  0.00     0.020 A 
HETATM    3  C5  UNL     1      26.148   2.425  51.000  1.00  0.00    -0.047 A 
HETATM    4  C6  UNL     1      24.809   2.595  51.321  1.00  0.00    -0.045 A 
HETATM    5  C7  UNL     1      24.209   1.673  52.145  1.00  0.00     0.045 A 
HETATM    6  C8  UNL     1      24.898   0.579  52.666  1.00  0.00     0.074 A 
HETATM    7  C9  UNL     1      24.195   3.799  50.701  1.00  0.00     0.077 C 
HETATM    8  C10 UNL     1      25.435   4.563  50.351  1.00  0.00    -0.024 C 
HETATM    9  C11 UNL     1      25.374   5.905  50.314  1.00  0.00     0.152 C 
HETATM   10  C18 UNL     1      26.528   3.553  50.108  1.00  0.00     0.077 C 
ENDROOT
BRANCH   9  11
HETATM   11  N1  UNL     1      24.027   6.284  50.648  1.00  0.00    -0.139 NA
HETATM   12  N2  UNL     1      23.808   7.250  51.415  1.00  0.00    -0.202 NA
HETATM   13  H11 UNL     1      22.919   7.632  51.739  1.00  0.00     0.212 HD
ENDBRANCH   9  11
BRANCH   9  14
HETATM   14  N3  UNL     1      26.523   6.666  49.989  1.00  0.00    -0.339 N 
HETATM   15  H12 UNL     1      27.154   6.851  50.822  1.00  0.00     0.167 HD
BRANCH  14  16
HETATM   16  C12 UNL     1      26.877   7.175  48.695  1.00  0.00     0.036 A 
HETATM   17  C13 UNL     1      28.203   7.060  48.286  1.00  0.00     0.029 A 
HETATM   18  C14 UNL     1      28.488   7.566  47.036  1.00  0.00     0.005 A 
HETATM   19  C15 UNL     1      27.513   8.144  46.253  1.00  0.00     0.042 A 
HETATM   20  C16 UNL     1      26.207   8.248  46.676  1.00  0.00     0.118 A 
HETATM   21  F1  UNL     1      25.300   8.830  45.853  1.00  0.00    -0.206 F 
HETATM   22  C17 UNL     1      25.907   7.746  47.925  1.00  0.00     0.071 A 
ENDBRANCH  14  16
ENDBRANCH   9  14
BRANCH   6  23
HETATM   23  O2  UNL     1      24.295  -0.360  53.504  1.00  0.00    -0.360 OA
HETATM   24  H8  UNL     1      23.317  -0.217  53.773  1.00  0.00     0.217 HD
ENDBRANCH   6  23
BRANCH   1  25
HETATM   25  C2  UNL     1      27.075  -0.733  52.855  1.00  0.00     0.208 C 
BRANCH  25  26
HETATM   26  O1  UNL     1      27.236  -0.744  54.233  1.00  0.00    -0.391 OA
HETATM   27  C1  UNL     1      28.480  -0.129  54.480  1.00  0.00     0.201 C 
ENDBRANCH  25  26
ENDBRANCH   1  25
TORSDOF 6
ENDMDL
MODEL 7
REMARK VINA RESULT:      -7.4      4.776      7.944
REMARK  6 active torsions:
REMARK  status: ('A' for Active; 'I' for Inactive)
REMARK    1  A    between atoms: O1_2  and  C2_3 
REMARK    2  A    between atoms: C2_3  and  C3_4 
REMARK    3  A    between atoms: C8_9  and  O2_10 
REMARK    4  A    between atoms: C11_13  and  N1_14 
REMARK    5  A    between atoms: C11_13  and  N3_16 
REMARK    6  A    between atoms: N3_16  and  C12_17 
ROOT
HETATM    1  C3  UNL     1      26.624   6.990  48.508  1.00  0.00    -0.001 A 
HETATM    2  C4  UNL     1      25.588   6.316  49.138  1.00  0.00     0.020 A 
HETATM    3  C5  UNL     1      25.613   4.984  49.493  1.00  0.00    -0.047 A 
HETATM    4  C6  UNL     1      26.757   4.254  49.203  1.00  0.00    -0.045 A 
HETATM    5  C7  UNL     1      27.802   4.892  48.579  1.00  0.00     0.045 A 
HETATM    6  C8  UNL     1      27.751   6.241  48.230  1.00  0.00     0.074 A 
HETATM    7  C9  UNL     1      26.680   2.831  49.628  1.00  0.00     0.077 C 
HETATM    8  C10 UNL     1      25.548   2.920  50.604  1.00  0.00    -0.024 C 
HETATM    9  C11 UNL     1      25.512   2.048  51.627  1.00  0.00     0.152 C 
HETATM   10  C18 UNL     1      24.661   4.054  50.157  1.00  0.00     0.077 C 
ENDROOT
BRANCH   9  11
HETATM   11  N1  UNL     1      26.663   1.194  51.504  1.00  0.00    -0.139 NA
HETATM   12  N2  UNL     1      26.745   0.136  52.171  1.00  0.00    -0.202 NA
HETATM   13  H11 UNL     1      27.489  -0.562  52.190  1.00  0.00     0.212 HD
ENDBRANCH   9  11
BRANCH   9  14
HETATM   14  N3  UNL     1      24.460   2.098  52.574  1.00  0.00    -0.339 N 
HETATM   15  H12 UNL     1      24.557   2.894  53.268  1.00  0.00     0.167 HD
BRANCH  14  16
HETATM   16  C12 UNL     1      23.340   1.205  52.658  1.00  0.00     0.036 A 
HETATM   17  C13 UNL     1      22.283   1.393  51.772  1.00  0.00     0.029 A 
HETATM   18  C14 UNL     1      21.233   0.508  51.897  1.00  0.00     0.005 A 
HETATM   19  C15 UNL     1      21.244  -0.493  52.845  1.00  0.00     0.042 A 
HETATM   20  C16 UNL     1      22.300  -0.662  53.712  1.00  0.00     0.118 A 
HETATM   21  F1  UNL     1      22.243  -1.669  54.618  1.00  0.00    -0.206 F 
HETATM   22  C17 UNL     1      23.357   0.215  53.598  1.00  0.00     0.071 A 
ENDBRANCH  14  16
ENDBRANCH   9  14
BRANCH   6  23
HETATM   23  O2  UNL     1      28.809   6.895  47.598  1.00  0.00    -0.360 OA
HETATM   24  H8  UNL     1      28.779   7.917  47.528  1.00  0.00     0.217 HD
ENDBRANCH   6  23
BRANCH   1  25
HETATM   25  C2  UNL     1      26.447   8.431  48.192  1.00  0.00     0.208 C 
BRANCH  25  26
HETATM   26  O1  UNL     1      27.521   9.221  48.579  1.00  0.00    -0.391 OA
HETATM   27  C1  UNL     1      27.376   9.412  49.969  1.00  0.00     0.201 C 
ENDBRANCH  25  26
ENDBRANCH   1  25
TORSDOF 6
ENDMDL
MODEL 8
REMARK VINA RESULT:      -7.4      2.408      3.205
REMARK  6 active torsions:
REMARK  status: ('A' for Active; 'I' for Inactive)
REMARK    1  A    between atoms: O1_2  and  C2_3 
REMARK    2  A    between atoms: C2_3  and  C3_4 
REMARK    3  A    between atoms: C8_9  and  O2_10 
REMARK    4  A    between atoms: C11_13  and  N1_14 
REMARK    5  A    between atoms: C11_13  and  N3_16 
REMARK    6  A    between atoms: N3_16  and  C12_17 
ROOT
HETATM    1  C3  UNL     1      26.477   0.665  54.045  1.00  0.00    -0.001 A 
HETATM    2  C4  UNL     1      26.243   1.807  53.292  1.00  0.00     0.020 A 
HETATM    3  C5  UNL     1      25.025   2.163  52.754  1.00  0.00    -0.047 A 
HETATM    4  C6  UNL     1      23.944   1.323  52.978  1.00  0.00    -0.045 A 
HETATM    5  C7  UNL     1      24.141   0.183  53.721  1.00  0.00     0.045 A 
HETATM    6  C8  UNL     1      25.385  -0.154  54.253  1.00  0.00     0.074 A 
HETATM    7  C9  UNL     1      22.680   1.800  52.357  1.00  0.00     0.077 C 
HETATM    8  C10 UNL     1      23.035   3.236  52.130  1.00  0.00    -0.024 C 
HETATM    9  C11 UNL     1      22.050   4.151  52.137  1.00  0.00     0.152 C 
HETATM   10  C18 UNL     1      24.529   3.301  51.935  1.00  0.00     0.077 C 
ENDROOT
BRANCH   9  11
HETATM   11  N1  UNL     1      20.816   3.452  52.381  1.00  0.00    -0.139 NA
HETATM   12  N2  UNL     1      19.742   3.861  51.880  1.00  0.00    -0.202 NA
HETATM   13  H11 UNL     1      18.801   3.476  51.962  1.00  0.00     0.212 HD
ENDBRANCH   9  11
BRANCH   9  14
HETATM   14  N3  UNL     1      22.342   5.521  51.928  1.00  0.00    -0.339 N 
HETATM   15  H12 UNL     1      21.887   6.161  52.642  1.00  0.00     0.167 HD
BRANCH  14  16
HETATM   16  C12 UNL     1      23.159   6.074  50.886  1.00  0.00     0.036 A 
HETATM   17  C13 UNL     1      22.786   5.836  49.566  1.00  0.00     0.029 A 
HETATM   18  C14 UNL     1      23.606   6.389  48.605  1.00  0.00     0.005 A 
HETATM   19  C15 UNL     1      24.719   7.127  48.946  1.00  0.00     0.042 A 
HETATM   20  C16 UNL     1      25.070   7.351  50.258  1.00  0.00     0.118 A 
HETATM   21  F1  UNL     1      26.179   8.086  50.519  1.00  0.00    -0.206 F 
HETATM   22  C17 UNL     1      24.259   6.804  51.230  1.00  0.00     0.071 A 
ENDBRANCH  14  16
ENDBRANCH   9  14
BRANCH   6  23
HETATM   23  O2  UNL     1      25.591  -1.309  55.008  1.00  0.00    -0.360 OA
HETATM   24  H8  UNL     1      25.898  -1.207  55.980  1.00  0.00     0.217 HD
ENDBRANCH   6  23
BRANCH   1  25
HETATM   25  C2  UNL     1      27.849   0.420  54.559  1.00  0.00     0.208 C 
BRANCH  25  26
HETATM   26  O1  UNL     1      28.286  -0.885  54.378  1.00  0.00    -0.391 OA
HETATM   27  C1  UNL     1      29.336  -0.811  53.440  1.00  0.00     0.201 C 
ENDBRANCH  25  26
ENDBRANCH   1  25
TORSDOF 6
ENDMDL
MODEL 9
REMARK VINA RESULT:      -7.3      6.220      8.821
REMARK  6 active torsions:
REMARK  status: ('A' for Active; 'I' for Inactive)
REMARK    1  A    between atoms: O1_2  and  C2_3 
REMARK    2  A    between atoms: C2_3  and  C3_4 
REMARK    3  A    between atoms: C8_9  and  O2_10 
REMARK    4  A    between atoms: C11_13  and  N1_14 
REMARK    5  A    between atoms: C11_13  and  N3_16 
REMARK    6  A    between atoms: N3_16  and  C12_17 
ROOT
HETATM    1  C3  UNL     1      24.887   3.812  50.264  1.00  0.00    -0.001 A 
HETATM    2  C4  UNL     1      23.607   3.307  50.441  1.00  0.00     0.020 A 
HETATM    3  C5  UNL     1      23.299   2.161  51.143  1.00  0.00    -0.047 A 
HETATM    4  C6  UNL     1      24.343   1.451  51.720  1.00  0.00    -0.045 A 
HETATM    5  C7  UNL     1      25.624   1.924  51.564  1.00  0.00     0.045 A 
HETATM    6  C8  UNL     1      25.907   3.087  50.848  1.00  0.00     0.074 A 
HETATM    7  C9  UNL     1      23.903   0.234  52.453  1.00  0.00     0.077 C 
HETATM    8  C10 UNL     1      22.451   0.555  52.626  1.00  0.00    -0.024 C 
HETATM    9  C11 UNL     1      21.805   0.052  53.693  1.00  0.00     0.152 C 
HETATM   10  C18 UNL     1      22.045   1.430  51.468  1.00  0.00     0.077 C 
ENDROOT
BRANCH   9  11
HETATM   11  N1  UNL     1      22.756  -0.722  54.446  1.00  0.00    -0.139 NA
HETATM   12  N2  UNL     1      22.381  -1.426  55.412  1.00  0.00    -0.202 NA
HETATM   13  H11 UNL     1      22.931  -2.022  56.032  1.00  0.00     0.212 HD
ENDBRANCH   9  11
BRANCH   9  14
HETATM   14  N3  UNL     1      20.432   0.331  53.897  1.00  0.00    -0.339 N 
HETATM   15  H12 UNL     1      20.262   1.185  54.504  1.00  0.00     0.167 HD
BRANCH  14  16
HETATM   16  C12 UNL     1      19.320  -0.410  53.374  1.00  0.00     0.036 A 
HETATM   17  C13 UNL     1      18.645   0.111  52.273  1.00  0.00     0.029 A 
HETATM   18  C14 UNL     1      17.584  -0.640  51.813  1.00  0.00     0.005 A 
HETATM   19  C15 UNL     1      17.227  -1.827  52.414  1.00  0.00     0.042 A 
HETATM   20  C16 UNL     1      17.908  -2.325  53.503  1.00  0.00     0.118 A 
HETATM   21  F1  UNL     1      17.501  -3.500  54.044  1.00  0.00    -0.206 F 
HETATM   22  C17 UNL     1      18.972  -1.585  53.974  1.00  0.00     0.071 A 
ENDBRANCH  14  16
ENDBRANCH   9  14
BRANCH   6  23
HETATM   23  O2  UNL     1      27.205   3.573  50.687  1.00  0.00    -0.360 OA
HETATM   24  H8  UNL     1      27.743   3.813  51.525  1.00  0.00     0.217 HD
ENDBRANCH   6  23
BRANCH   1  25
HETATM   25  C2  UNL     1      25.056   5.064  49.483  1.00  0.00     0.208 C 
BRANCH  25  26
HETATM   26  O1  UNL     1      25.658   6.089  50.199  1.00  0.00    -0.391 OA
HETATM   27  C1  UNL     1      26.179   6.976  49.235  1.00  0.00     0.201 C 
ENDBRANCH  25  26
ENDBRANCH   1  25
TORSDOF 6
ENDMDL
