MODEL 1
REMARK VINA RESULT:      -7.8      0.000      0.000
REMARK  10 active torsions:
REMARK  status: ('A' for Active; 'I' for Inactive)
REMARK    1  A    between atoms: O1_2  and  C2_3 
REMARK    2  A    between atoms: C2_3  and  C3_4 
REMARK    3  A    between atoms: C3_4  and  O2_5 
REMARK    4  A    between atoms: O2_5  and  C4_6 
REMARK    5  A    between atoms: C8_12  and  N3_13 
REMARK    6  A    between atoms: N3_13  and  C9_14 
REMARK    7  A    between atoms: C18_23  and  O3_24 
REMARK    8  A    between atoms: O3_24  and  C19_25 
REMARK    9  A    between atoms: C19_25  and  C20_26 
REMARK   10  A    between atoms: C20_26  and  O4_27 
ROOT
HETATM    1  C4  UNL     1      20.547  -0.404  53.243  1.00  0.00     0.104 A 
HETATM    2  C5  UNL     1      21.141  -0.921  54.375  1.00  0.00     0.072 A 
HETATM    3  C6  UNL     1      22.514  -0.941  54.634  1.00  0.00     0.075 A 
HETATM    4  N1  UNL     1      23.042  -1.465  55.747  1.00  0.00    -0.241 NA
HETATM    5  C7  UNL     1      24.380  -1.463  55.931  1.00  0.00     0.236 A 
HETATM    6  N2  UNL     1      25.196  -0.931  54.993  1.00  0.00    -0.224 NA
HETATM    7  C8  UNL     1      24.684  -0.401  53.872  1.00  0.00     0.141 A 
HETATM    8  C16 UNL     1      23.305  -0.379  53.632  1.00  0.00     0.042 A 
HETATM    9  C17 UNL     1      22.758   0.149  52.487  1.00  0.00     0.057 A 
HETATM   10  C18 UNL     1      21.397   0.153  52.265  1.00  0.00     0.103 A 
ENDROOT
BRANCH   7  11
HETATM   11  N3  UNL     1      25.468   0.163  52.834  1.00  0.00    -0.344 N 
HETATM   12  H10 UNL     1      25.348   0.633  51.935  1.00  0.00     0.167 HD
BRANCH  11  13
HETATM   13  C9  UNL     1      26.956   0.070  53.077  1.00  0.00     0.014 A 
HETATM   14  C10 UNL     1      27.733  -1.197  53.028  1.00  0.00     0.010 A 
HETATM   15  C11 UNL     1      29.523  -1.078  53.352  1.00  0.00     0.109 A 
HETATM   16  C12 UNL     1      29.193   0.202  53.483  1.00  0.00    -0.166 A 
HETATM   17  C13 UNL     1      28.917   1.177  53.579  1.00  0.00     0.045 A 
HETATM   18  C14 UNL     1      28.532   2.433  53.699  1.00  0.00     0.026 A 
HETATM   19  C15 UNL     1      27.390   1.584  53.377  1.00  0.00     0.063 A 
ENDBRANCH  11  13
ENDBRANCH   7  11
BRANCH  10  20
HETATM   20  O3  UNL     1      20.793   0.655  51.167  1.00  0.00    -0.346 OA
BRANCH  20  21
HETATM   21  C19 UNL     1      20.595   1.925  50.691  1.00  0.00     0.201 C 
BRANCH  21  22
HETATM   22  C20 UNL     1      19.500   2.702  51.357  1.00  0.00     0.193 C 
BRANCH  22  23
HETATM   23  O4  UNL     1      19.960   3.365  52.488  1.00  0.00    -0.394 OA
HETATM   24  C21 UNL     1      21.167   4.007  52.315  1.00  0.00     0.201 C 
ENDBRANCH  22  23
ENDBRANCH  21  22
ENDBRANCH  20  21
ENDBRANCH  10  20
BRANCH   1  25
HETATM   25  O2  UNL     1      19.224  -0.382  52.986  1.00  0.00    -0.346 OA
BRANCH  25  26
HETATM   26  C3  UNL     1      18.196  -1.268  53.152  1.00  0.00     0.201 C 
BRANCH  26  27
HETATM   27  C2  UNL     1      16.898  -0.967  52.469  1.00  0.00     0.193 C 
BRANCH  27  28
HETATM   28  O1  UNL     1      16.007  -0.248  53.256  1.00  0.00    -0.394 OA
HETATM   29  C1  UNL     1      15.077   0.409  52.494  1.00  0.00     0.201 C 
ENDBRANCH  27  28
ENDBRANCH  26  27
ENDBRANCH  25  26
ENDBRANCH   1  25
TORSDOF 10
ENDMDL
MODEL 2
REMARK VINA RESULT:      -7.6      2.487      4.685
REMARK  10 active torsions:
REMARK  status: ('A' for Active; 'I' for Inactive)
REMARK    1  A    between atoms: O1_2  and  C2_3 
REMARK    2  A    between atoms: C2_3  and  C3_4 
REMARK    3  A    between atoms: C3_4  and  O2_5 
REMARK    4  A    between atoms: O2_5  and  C4_6 
REMARK    5  A    between atoms: C8_12  and  N3_13 
REMARK    6  A    between atoms: N3_13  and  C9_14 
REMARK    7  A    between atoms: C18_23  and  O3_24 
REMARK    8  A    between atoms: O3_24  and  C19_25 
REMARK    9  A    between atoms: C19_25  and  C20_26 
REMARK   10  A    between atoms: C20_26  and  O4_27 
ROOT
HETATM    1  C4  UNL     1      22.053   1.778  51.037  1.00  0.00     0.104 A 
HETATM    2  C5  UNL     1      23.035   2.405  50.301  1.00  0.00     0.072 A 
HETATM    3  C6  UNL     1      24.379   2.513  50.665  1.00  0.00     0.075 A 
HETATM    4  N1  UNL     1      25.293   3.142  49.917  1.00  0.00    -0.241 NA
HETATM    5  C7  UNL     1      26.576   3.220  50.333  1.00  0.00     0.236 A 
HETATM    6  N2  UNL     1      26.947   2.662  51.507  1.00  0.00    -0.224 NA
HETATM    7  C8  UNL     1      26.044   2.026  52.269  1.00  0.00     0.141 A 
HETATM    8  C16 UNL     1      24.702   1.918  51.885  1.00  0.00     0.042 A 
HETATM    9  C17 UNL     1      23.758   1.281  52.654  1.00  0.00     0.057 A 
HETATM   10  C18 UNL     1      22.439   1.194  52.262  1.00  0.00     0.103 A 
ENDROOT
BRANCH   7  11
HETATM   11  N3  UNL     1      26.345   1.427  53.518  1.00  0.00    -0.344 N 
HETATM   12  H10 UNL     1      26.038   1.459  54.492  1.00  0.00     0.167 HD
BRANCH  11  13
HETATM   13  C9  UNL     1      27.464   0.415  53.453  1.00  0.00     0.014 A 
HETATM   14  C10 UNL     1      28.864   0.688  53.870  1.00  0.00     0.010 A 
HETATM   15  C11 UNL     1      30.056  -0.682  53.707  1.00  0.00     0.109 A 
HETATM   16  C12 UNL     1      28.965  -1.287  53.251  1.00  0.00    -0.166 A 
HETATM   17  C13 UNL     1      28.116  -1.731  52.905  1.00  0.00     0.045 A 
HETATM   18  C14 UNL     1      27.002  -2.280  52.461  1.00  0.00     0.026 A 
HETATM   19  C15 UNL     1      26.760  -0.896  52.856  1.00  0.00     0.063 A 
ENDBRANCH  11  13
ENDBRANCH   7  11
BRANCH  10  20
HETATM   20  O3  UNL     1      21.461   0.583  52.965  1.00  0.00    -0.346 OA
BRANCH  20  21
HETATM   21  C19 UNL     1      21.368   0.114  54.249  1.00  0.00     0.201 C 
BRANCH  21  22
HETATM   22  C20 UNL     1      21.322  -1.377  54.393  1.00  0.00     0.193 C 
BRANCH  22  23
HETATM   23  O4  UNL     1      22.120  -1.812  55.444  1.00  0.00    -0.394 OA
HETATM   24  C21 UNL     1      23.420  -1.359  55.392  1.00  0.00     0.201 C 
ENDBRANCH  22  23
ENDBRANCH  21  22
ENDBRANCH  20  21
ENDBRANCH  10  20
BRANCH   1  25
HETATM   25  O2  UNL     1      20.754   1.672  50.693  1.00  0.00    -0.346 OA
BRANCH  25  26
HETATM   26  C3  UNL     1      19.693   2.533  50.662  1.00  0.00     0.201 C 
BRANCH  26  27
HETATM   27  C2  UNL     1      19.948   3.965  51.018  1.00  0.00     0.193 C 
BRANCH  27  28
HETATM   28  O1  UNL     1      20.383   4.737  49.948  1.00  0.00    -0.394 OA
HETATM   29  C1  UNL     1      19.512   5.759  49.676  1.00  0.00     0.201 C 
ENDBRANCH  27  28
ENDBRANCH  26  27
ENDBRANCH  25  26
ENDBRANCH   1  25
TORSDOF 10
ENDMDL
MODEL 3
REMARK VINA RESULT:      -7.6      3.377      7.487
REMARK  10 active torsions:
REMARK  status: ('A' for Active; 'I' for Inactive)
REMARK    1  A    between atoms: O1_2  and  C2_3 
REMARK    2  A    between atoms: C2_3  and  C3_4 
REMARK    3  A    between atoms: C3_4  and  O2_5 
REMARK    4  A    between atoms: O2_5  and  C4_6 
REMARK    5  A    between atoms: C8_12  and  N3_13 
REMARK    6  A    between atoms: N3_13  and  C9_14 
REMARK    7  A    between atoms: C18_23  and  O3_24 
REMARK    8  A    between atoms: O3_24  and  C19_25 
REMARK    9  A    between atoms: C19_25  and  C20_26 
REMARK   10  A    between atoms: C20_26  and  O4_27 
ROOT
HETATM    1  C4  UNL     1      26.190  -0.197  52.927  1.00  0.00     0.104 A 
HETATM    2  C5  UNL     1      25.318  -0.857  53.765  1.00  0.00     0.072 A 
HETATM    3  C6  UNL     1      23.969  -0.540  53.946  1.00  0.00     0.075 A 
HETATM    4  N1  UNL     1      23.165  -1.207  54.782  1.00  0.00    -0.241 NA
HETATM    5  C7  UNL     1      21.871  -0.842  54.918  1.00  0.00     0.236 A 
HETATM    6  N2  UNL     1      21.379   0.200  54.211  1.00  0.00    -0.224 NA
HETATM    7  C8  UNL     1      22.171   0.880  53.367  1.00  0.00     0.141 A 
HETATM    8  C16 UNL     1      23.518   0.543  53.190  1.00  0.00     0.042 A 
HETATM    9  C17 UNL     1      24.351   1.231  52.340  1.00  0.00     0.057 A 
HETATM   10  C18 UNL     1      25.678   0.889  52.187  1.00  0.00     0.103 A 
ENDROOT
BRANCH   7  11
HETATM   11  N3  UNL     1      21.740   1.991  52.600  1.00  0.00    -0.344 N 
HETATM   12  H10 UNL     1      21.871   3.003  52.552  1.00  0.00     0.167 HD
BRANCH  11  13
HETATM   13  C9  UNL     1      20.784   1.628  51.488  1.00  0.00     0.014 A 
HETATM   14  C10 UNL     1      19.348   1.305  51.693  1.00  0.00     0.010 A 
HETATM   15  C11 UNL     1      18.376   0.895  50.205  1.00  0.00     0.109 A 
HETATM   16  C12 UNL     1      19.558   1.110  49.640  1.00  0.00    -0.166 A 
HETATM   17  C13 UNL     1      20.474   1.278  49.228  1.00  0.00     0.045 A 
HETATM   18  C14 UNL     1      21.671   1.503  48.721  1.00  0.00     0.026 A 
HETATM   19  C15 UNL     1      21.694   1.684  50.169  1.00  0.00     0.063 A 
ENDBRANCH  11  13
ENDBRANCH   7  11
BRANCH  10  20
HETATM   20  O3  UNL     1      26.550   1.518  51.371  1.00  0.00    -0.346 OA
BRANCH  20  21
HETATM   21  C19 UNL     1      26.735   2.827  51.009  1.00  0.00     0.201 C 
BRANCH  21  22
HETATM   22  C20 UNL     1      26.388   3.162  49.589  1.00  0.00     0.193 C 
BRANCH  22  23
HETATM   23  O4  UNL     1      25.017   3.318  49.423  1.00  0.00    -0.394 OA
HETATM   24  C21 UNL     1      24.455   4.276  50.238  1.00  0.00     0.201 C 
ENDBRANCH  22  23
ENDBRANCH  21  22
ENDBRANCH  20  21
ENDBRANCH  10  20
BRANCH   1  25
HETATM   25  O2  UNL     1      27.493  -0.496  52.749  1.00  0.00    -0.346 OA
BRANCH  25  26
HETATM   26  C3  UNL     1      28.656  -0.139  53.372  1.00  0.00     0.201 C 
BRANCH  26  27
HETATM   27  C2  UNL     1      28.581   0.256  54.815  1.00  0.00     0.193 C 
BRANCH  27  28
HETATM   28  O1  UNL     1      28.978   1.565  55.057  1.00  0.00    -0.394 OA
HETATM   29  C1  UNL     1      28.955   2.318  53.913  1.00  0.00     0.201 C 
ENDBRANCH  27  28
ENDBRANCH  26  27
ENDBRANCH  25  26
ENDBRANCH   1  25
TORSDOF 10
ENDMDL
MODEL 4
REMARK VINA RESULT:      -7.5      1.579      2.486
REMARK  10 active torsions:
REMARK  status: ('A' for Active; 'I' for Inactive)
REMARK    1  A    between atoms: O1_2  and  C2_3 
REMARK    2  A    between atoms: C2_3  and  C3_4 
REMARK    3  A    between atoms: C3_4  and  O2_5 
REMARK    4  A    between atoms: O2_5  and  C4_6 
REMARK    5  A    between atoms: C8_12  and  N3_13 
REMARK    6  A    between atoms: N3_13  and  C9_14 
REMARK    7  A    between atoms: C18_23  and  O3_24 
REMARK    8  A    between atoms: O3_24  and  C19_25 
REMARK    9  A    between atoms: C19_25  and  C20_26 
REMARK   10  A    between atoms: C20_26  and  O4_27 
ROOT
HETATM    1  C4  UNL     1      20.575   0.127  52.121  1.00  0.00     0.104 A 
HETATM    2  C5  UNL     1      20.835  -0.511  53.315  1.00  0.00     0.072 A 
HETATM    3  C6  UNL     1      22.097  -0.664  53.895  1.00  0.00     0.075 A 
HETATM    4  N1  UNL     1      22.298  -1.303  55.054  1.00  0.00    -0.241 NA
HETATM    5  C7  UNL     1      23.547  -1.425  55.555  1.00  0.00     0.236 A 
HETATM    6  N2  UNL     1      24.602  -0.904  54.891  1.00  0.00    -0.224 NA
HETATM    7  C8  UNL     1      24.419  -0.260  53.728  1.00  0.00     0.141 A 
HETATM    8  C16 UNL     1      23.147  -0.106  53.165  1.00  0.00     0.042 A 
HETATM    9  C17 UNL     1      22.936   0.540  51.970  1.00  0.00     0.057 A 
HETATM   10  C18 UNL     1      21.675   0.673  51.427  1.00  0.00     0.103 A 
ENDROOT
BRANCH   7  11
HETATM   11  N3  UNL     1      25.470   0.302  52.961  1.00  0.00    -0.344 N 
HETATM   12  H10 UNL     1      25.635   1.074  52.311  1.00  0.00     0.167 HD
BRANCH  11  13
HETATM   13  C9  UNL     1      26.787  -0.422  53.111  1.00  0.00     0.014 A 
HETATM   14  C10 UNL     1      27.026  -1.822  52.670  1.00  0.00     0.010 A 
HETATM   15  C11 UNL     1      28.695  -2.500  52.947  1.00  0.00     0.109 A 
HETATM   16  C12 UNL     1      28.868  -1.285  53.454  1.00  0.00    -0.166 A 
HETATM   17  C13 UNL     1      28.977  -0.348  53.837  1.00  0.00     0.045 A 
HETATM   18  C14 UNL     1      29.089   0.872  54.328  1.00  0.00     0.026 A 
HETATM   19  C15 UNL     1      27.740   0.657  53.818  1.00  0.00     0.063 A 
ENDBRANCH  11  13
ENDBRANCH   7  11
BRANCH  10  20
HETATM   20  O3  UNL     1      21.396   1.295  50.263  1.00  0.00    -0.346 OA
BRANCH  20  21
HETATM   21  C19 UNL     1      21.501   0.933  48.945  1.00  0.00     0.201 C 
BRANCH  21  22
HETATM   22  C20 UNL     1      22.199   1.918  48.057  1.00  0.00     0.193 C 
BRANCH  22  23
HETATM   23  O4  UNL     1      22.705   2.989  48.783  1.00  0.00    -0.394 OA
HETATM   24  C21 UNL     1      22.540   4.214  48.173  1.00  0.00     0.201 C 
ENDBRANCH  22  23
ENDBRANCH  21  22
ENDBRANCH  20  21
ENDBRANCH  10  20
BRANCH   1  25
HETATM   25  O2  UNL     1      19.361   0.277  51.555  1.00  0.00    -0.346 OA
BRANCH  25  26
HETATM   26  C3  UNL     1      18.261   1.042  51.826  1.00  0.00     0.201 C 
BRANCH  26  27
HETATM   27  C2  UNL     1      18.302   2.487  51.434  1.00  0.00     0.193 C 
BRANCH  27  28
HETATM   28  O1  UNL     1      19.172   3.249  52.204  1.00  0.00    -0.394 OA
HETATM   29  C1  UNL     1      19.947   4.069  51.428  1.00  0.00     0.201 C 
ENDBRANCH  27  28
ENDBRANCH  26  27
ENDBRANCH  25  26
ENDBRANCH   1  25
TORSDOF 10
ENDMDL
MODEL 5
REMARK VINA RESULT:      -7.4      4.383      7.005
REMARK  10 active torsions:
REMARK  status: ('A' for Active; 'I' for Inactive)
REMARK    1  A    between atoms: O1_2  and  C2_3 
REMARK    2  A    between atoms: C2_3  and  C3_4 
REMARK    3  A    between atoms: C3_4  and  O2_5 
REMARK    4  A    between atoms: O2_5  and  C4_6 
REMARK    5  A    between atoms: C8_12  and  N3_13 
REMARK    6  A    between atoms: N3_13  and  C9_14 
REMARK    7  A    between atoms: C18_23  and  O3_24 
REMARK    8  A    between atoms: O3_24  and  C19_25 
REMARK    9  A    between atoms: C19_25  and  C20_26 
REMARK   10  A    between atoms: C20_26  and  O4_27 
ROOT
HETATM    1  C4  UNL     1      23.659   1.249  52.997  1.00  0.00     0.104 A 
HETATM    2  C5  UNL     1      22.461   1.697  52.484  1.00  0.00     0.072 A 
HETATM    3  C6  UNL     1      22.187   3.008  52.086  1.00  0.00     0.075 A 
HETATM    4  N1  UNL     1      21.001   3.394  51.602  1.00  0.00    -0.241 NA
HETATM    5  C7  UNL     1      20.798   4.682  51.246  1.00  0.00     0.236 A 
HETATM    6  N2  UNL     1      21.792   5.589  51.375  1.00  0.00    -0.224 NA
HETATM    7  C8  UNL     1      22.988   5.219  51.857  1.00  0.00     0.141 A 
HETATM    8  C16 UNL     1      23.250   3.899  52.242  1.00  0.00     0.042 A 
HETATM    9  C17 UNL     1      24.463   3.498  52.748  1.00  0.00     0.057 A 
HETATM   10  C18 UNL     1      24.698   2.194  53.130  1.00  0.00     0.103 A 
ENDROOT
BRANCH   7  11
HETATM   11  N3  UNL     1      24.078   6.108  52.037  1.00  0.00    -0.344 N 
HETATM   12  H10 UNL     1      24.691   6.448  52.780  1.00  0.00     0.167 HD
BRANCH  11  13
HETATM   13  C9  UNL     1      24.515   6.798  50.768  1.00  0.00     0.014 A 
HETATM   14  C10 UNL     1      24.089   8.166  50.371  1.00  0.00     0.010 A 
HETATM   15  C11 UNL     1      24.741   8.806  48.793  1.00  0.00     0.109 A 
HETATM   16  C12 UNL     1      25.318   7.611  48.797  1.00  0.00    -0.166 A 
HETATM   17  C13 UNL     1      25.750   6.689  48.821  1.00  0.00     0.045 A 
HETATM   18  C14 UNL     1      26.296   5.489  48.877  1.00  0.00     0.026 A 
HETATM   19  C15 UNL     1      25.467   5.722  50.055  1.00  0.00     0.063 A 
ENDBRANCH  11  13
ENDBRANCH   7  11
BRANCH  10  20
HETATM   20  O3  UNL     1      25.863   1.732  53.632  1.00  0.00    -0.346 OA
BRANCH  20  21
HETATM   21  C19 UNL     1      27.087   1.452  53.082  1.00  0.00     0.201 C 
BRANCH  21  22
HETATM   22  C20 UNL     1      28.222   2.305  53.561  1.00  0.00     0.193 C 
BRANCH  22  23
HETATM   23  O4  UNL     1      28.871   1.728  54.645  1.00  0.00    -0.394 OA
HETATM   24  C21 UNL     1      28.836   0.350  54.657  1.00  0.00     0.201 C 
ENDBRANCH  22  23
ENDBRANCH  21  22
ENDBRANCH  20  21
ENDBRANCH  10  20
BRANCH   1  25
HETATM   25  O2  UNL     1      23.930  -0.014  53.384  1.00  0.00    -0.346 OA
BRANCH  25  26
HETATM   26  C3  UNL     1      23.175  -1.123  53.645  1.00  0.00     0.201 C 
BRANCH  26  27
HETATM   27  C2  UNL     1      22.699  -1.327  55.050  1.00  0.00     0.193 C 
BRANCH  27  28
HETATM   28  O1  UNL     1      21.376  -1.741  55.137  1.00  0.00    -0.394 OA
HETATM   29  C1  UNL     1      20.647  -1.330  54.053  1.00  0.00     0.201 C 
ENDBRANCH  27  28
ENDBRANCH  26  27
ENDBRANCH  25  26
ENDBRANCH   1  25
TORSDOF 10
ENDMDL
MODEL 6
REMARK VINA RESULT:      -7.2      1.557      1.911
REMARK  10 active torsions:
REMARK  status: ('A' for Active; 'I' for Inactive)
REMARK    1  A    between atoms: O1_2  and  C2_3 
REMARK    2  A    between atoms: C2_3  and  C3_4 
REMARK    3  A    between atoms: C3_4  and  O2_5 
REMARK    4  A    between atoms: O2_5  and  C4_6 
REMARK    5  A    between atoms: C8_12  and  N3_13 
REMARK    6  A    between atoms: N3_13  and  C9_14 
REMARK    7  A    between atoms: C18_23  and  O3_24 
REMARK    8  A    between atoms: O3_24  and  C19_25 
REMARK    9  A    between atoms: C19_25  and  C20_26 
REMARK   10  A    between atoms: C20_26  and  O4_27 
ROOT
HETATM    1  C4  UNL     1      20.663   1.197  52.625  1.00  0.00     0.104 A 
HETATM    2  C5  UNL     1      20.927   0.381  53.704  1.00  0.00     0.072 A 
HETATM    3  C6  UNL     1      22.182  -0.126  54.051  1.00  0.00     0.075 A 
HETATM    4  N1  UNL     1      22.384  -0.925  55.106  1.00  0.00    -0.241 NA
HETATM    5  C7  UNL     1      23.623  -1.389  55.380  1.00  0.00     0.236 A 
HETATM    6  N2  UNL     1      24.668  -1.051  54.591  1.00  0.00    -0.224 NA
HETATM    7  C8  UNL     1      24.484  -0.250  53.531  1.00  0.00     0.141 A 
HETATM    8  C16 UNL     1      23.221   0.258  53.202  1.00  0.00     0.042 A 
HETATM    9  C17 UNL     1      23.006   1.071  52.115  1.00  0.00     0.057 A 
HETATM   10  C18 UNL     1      21.753   1.553  51.803  1.00  0.00     0.103 A 
ENDROOT
BRANCH   7  11
HETATM   11  N3  UNL     1      25.520   0.142  52.646  1.00  0.00    -0.344 N 
HETATM   12  H10 UNL     1      25.665   0.743  51.833  1.00  0.00     0.167 HD
BRANCH  11  13
HETATM   13  C9  UNL     1      26.854  -0.498  52.951  1.00  0.00     0.014 A 
HETATM   14  C10 UNL     1      27.195  -1.910  52.638  1.00  0.00     0.010 A 
HETATM   15  C11 UNL     1      28.868  -2.475  53.094  1.00  0.00     0.109 A 
HETATM   16  C12 UNL     1      28.939  -1.219  53.518  1.00  0.00    -0.166 A 
HETATM   17  C13 UNL     1      28.971  -0.252  53.837  1.00  0.00     0.045 A 
HETATM   18  C14 UNL     1      28.984   1.004  54.242  1.00  0.00     0.026 A 
HETATM   19  C15 UNL     1      27.692   0.679  53.646  1.00  0.00     0.063 A 
ENDBRANCH  11  13
ENDBRANCH   7  11
BRANCH  10  20
HETATM   20  O3  UNL     1      21.471   2.355  50.755  1.00  0.00    -0.346 OA
BRANCH  20  21
HETATM   21  C19 UNL     1      22.004   3.528  50.288  1.00  0.00     0.201 C 
BRANCH  21  22
HETATM   22  C20 UNL     1      22.043   4.658  51.272  1.00  0.00     0.193 C 
BRANCH  22  23
HETATM   23  O4  UNL     1      23.311   5.220  51.353  1.00  0.00    -0.394 OA
HETATM   24  C21 UNL     1      24.313   4.432  50.829  1.00  0.00     0.201 C 
ENDBRANCH  22  23
ENDBRANCH  21  22
ENDBRANCH  20  21
ENDBRANCH  10  20
BRANCH   1  25
HETATM   25  O2  UNL     1      19.455   1.688  52.284  1.00  0.00    -0.346 OA
BRANCH  25  26
HETATM   26  C3  UNL     1      18.358   1.184  51.642  1.00  0.00     0.201 C 
BRANCH  26  27
HETATM   27  C2  UNL     1      18.216  -0.305  51.570  1.00  0.00     0.193 C 
BRANCH  27  28
HETATM   28  O1  UNL     1      17.245  -0.815  52.423  1.00  0.00    -0.394 OA
HETATM   29  C1  UNL     1      17.781  -1.683  53.337  1.00  0.00     0.201 C 
ENDBRANCH  27  28
ENDBRANCH  26  27
ENDBRANCH  25  26
ENDBRANCH   1  25
TORSDOF 10
ENDMDL
MODEL 7
REMARK VINA RESULT:      -7.2      3.560      8.172
REMARK  10 active torsions:
REMARK  status: ('A' for Active; 'I' for Inactive)
REMARK    1  A    between atoms: O1_2  and  C2_3 
REMARK    2  A    between atoms: C2_3  and  C3_4 
REMARK    3  A    between atoms: C3_4  and  O2_5 
REMARK    4  A    between atoms: O2_5  and  C4_6 
REMARK    5  A    between atoms: C8_12  and  N3_13 
REMARK    6  A    between atoms: N3_13  and  C9_14 
REMARK    7  A    between atoms: C18_23  and  O3_24 
REMARK    8  A    between atoms: O3_24  and  C19_25 
REMARK    9  A    between atoms: C19_25  and  C20_26 
REMARK   10  A    between atoms: C20_26  and  O4_27 
ROOT
HETATM    1  C4  UNL     1      26.301   0.710  52.542  1.00  0.00     0.104 A 
HETATM    2  C5  UNL     1      26.902   1.559  51.638  1.00  0.00     0.072 A 
HETATM    3  C6  UNL     1      26.266   2.598  50.953  1.00  0.00     0.075 A 
HETATM    4  N1  UNL     1      26.895   3.390  50.076  1.00  0.00    -0.241 NA
HETATM    5  C7  UNL     1      26.218   4.371  49.439  1.00  0.00     0.236 A 
HETATM    6  N2  UNL     1      24.902   4.561  49.684  1.00  0.00    -0.224 NA
HETATM    7  C8  UNL     1      24.257   3.777  50.561  1.00  0.00     0.141 A 
HETATM    8  C16 UNL     1      24.910   2.746  51.246  1.00  0.00     0.042 A 
HETATM    9  C17 UNL     1      24.268   1.924  52.141  1.00  0.00     0.057 A 
HETATM   10  C18 UNL     1      24.928   0.908  52.799  1.00  0.00     0.103 A 
ENDROOT
BRANCH   7  11
HETATM   11  N3  UNL     1      22.877   3.899  50.864  1.00  0.00    -0.344 N 
HETATM   12  H10 UNL     1      22.269   4.092  51.662  1.00  0.00     0.167 HD
BRANCH  11  13
HETATM   13  C9  UNL     1      21.972   3.687  49.674  1.00  0.00     0.014 A 
HETATM   14  C10 UNL     1      21.320   4.786  48.914  1.00  0.00     0.010 A 
HETATM   15  C11 UNL     1      20.266   4.302  47.507  1.00  0.00     0.109 A 
HETATM   16  C12 UNL     1      20.648   3.098  47.916  1.00  0.00    -0.166 A 
HETATM   17  C13 UNL     1      20.954   2.185  48.247  1.00  0.00     0.045 A 
HETATM   18  C14 UNL     1      21.366   1.015  48.698  1.00  0.00     0.026 A 
HETATM   19  C15 UNL     1      21.928   2.093  49.505  1.00  0.00     0.063 A 
ENDBRANCH  11  13
ENDBRANCH   7  11
BRANCH  10  20
HETATM   20  O3  UNL     1      24.361   0.067  53.690  1.00  0.00    -0.346 OA
BRANCH  20  21
HETATM   21  C19 UNL     1      23.178  -0.625  53.721  1.00  0.00     0.201 C 
BRANCH  21  22
HETATM   22  C20 UNL     1      22.848  -1.284  55.026  1.00  0.00     0.193 C 
BRANCH  22  23
HETATM   23  O4  UNL     1      21.498  -1.600  55.111  1.00  0.00    -0.394 OA
HETATM   24  C21 UNL     1      20.756  -1.207  54.018  1.00  0.00     0.201 C 
ENDBRANCH  22  23
ENDBRANCH  21  22
ENDBRANCH  20  21
ENDBRANCH  10  20
BRANCH   1  25
HETATM   25  O2  UNL     1      26.907  -0.296  53.205  1.00  0.00    -0.346 OA
BRANCH  25  26
HETATM   26  C3  UNL     1      28.207  -0.658  53.423  1.00  0.00     0.201 C 
BRANCH  26  27
HETATM   27  C2  UNL     1      28.867  -0.167  54.674  1.00  0.00     0.193 C 
BRANCH  27  28
HETATM   28  O1  UNL     1      28.558   1.150  54.988  1.00  0.00    -0.394 OA
HETATM   29  C1  UNL     1      29.399   2.030  54.358  1.00  0.00     0.201 C 
ENDBRANCH  27  28
ENDBRANCH  26  27
ENDBRANCH  25  26
ENDBRANCH   1  25
TORSDOF 10
ENDMDL
MODEL 8
REMARK VINA RESULT:      -7.0      4.523      6.729
REMARK  10 active torsions:
REMARK  status: ('A' for Active; 'I' for Inactive)
REMARK    1  A    between atoms: O1_2  and  C2_3 
REMARK    2  A    between atoms: C2_3  and  C3_4 
REMARK    3  A    between atoms: C3_4  and  O2_5 
REMARK    4  A    between atoms: O2_5  and  C4_6 
REMARK    5  A    between atoms: C8_12  and  N3_13 
REMARK    6  A    between atoms: N3_13  and  C9_14 
REMARK    7  A    between atoms: C18_23  and  O3_24 
REMARK    8  A    between atoms: O3_24  and  C19_25 
REMARK    9  A    between atoms: C19_25  and  C20_26 
REMARK   10  A    between atoms: C20_26  and  O4_27 
ROOT
HETATM    1  C4  UNL     1      22.981   1.010  51.803  1.00  0.00     0.104 A 
HETATM    2  C5  UNL     1      22.378   1.405  50.629  1.00  0.00     0.072 A 
HETATM    3  C6  UNL     1      22.649   2.587  49.934  1.00  0.00     0.075 A 
HETATM    4  N1  UNL     1      22.027   2.930  48.800  1.00  0.00    -0.241 NA
HETATM    5  C7  UNL     1      22.329   4.094  48.184  1.00  0.00     0.236 A 
HETATM    6  N2  UNL     1      23.263   4.919  48.706  1.00  0.00    -0.224 NA
HETATM    7  C8  UNL     1      23.898   4.591  49.842  1.00  0.00     0.141 A 
HETATM    8  C16 UNL     1      23.622   3.398  50.521  1.00  0.00     0.042 A 
HETATM    9  C17 UNL     1      24.251   3.045  51.690  1.00  0.00     0.057 A 
HETATM   10  C18 UNL     1      23.958   1.870  52.349  1.00  0.00     0.103 A 
ENDROOT
BRANCH   7  11
HETATM   11  N3  UNL     1      24.878   5.404  50.463  1.00  0.00    -0.344 N 
HETATM   12  H10 UNL     1      25.029   5.914  51.336  1.00  0.00     0.167 HD
BRANCH  11  13
HETATM   13  C9  UNL     1      26.111   5.623  49.619  1.00  0.00     0.014 A 
HETATM   14  C10 UNL     1      27.069   4.550  49.245  1.00  0.00     0.010 A 
HETATM   15  C11 UNL     1      28.493   5.038  48.216  1.00  0.00     0.109 A 
HETATM   16  C12 UNL     1      27.897   6.218  48.336  1.00  0.00    -0.166 A 
HETATM   17  C13 UNL     1      27.423   7.113  48.442  1.00  0.00     0.045 A 
HETATM   18  C14 UNL     1      26.789   8.260  48.597  1.00  0.00     0.026 A 
HETATM   19  C15 UNL     1      26.078   7.193  49.293  1.00  0.00     0.063 A 
ENDBRANCH  11  13
ENDBRANCH   7  11
BRANCH  10  20
HETATM   20  O3  UNL     1      24.537   1.461  53.497  1.00  0.00    -0.346 OA
BRANCH  20  21
HETATM   21  C19 UNL     1      25.821   1.129  53.846  1.00  0.00     0.201 C 
BRANCH  21  22
HETATM   22  C20 UNL     1      26.343  -0.146  53.256  1.00  0.00     0.193 C 
BRANCH  22  23
HETATM   23  O4  UNL     1      27.290  -0.739  54.082  1.00  0.00    -0.394 OA
HETATM   24  C21 UNL     1      28.585  -0.338  53.836  1.00  0.00     0.201 C 
ENDBRANCH  22  23
ENDBRANCH  21  22
ENDBRANCH  20  21
ENDBRANCH  10  20
BRANCH   1  25
HETATM   25  O2  UNL     1      22.724  -0.128  52.480  1.00  0.00    -0.346 OA
BRANCH  25  26
HETATM   26  C3  UNL     1      21.633  -0.634  53.130  1.00  0.00     0.201 C 
BRANCH  26  27
HETATM   27  C2  UNL     1      21.596  -0.519  54.623  1.00  0.00     0.193 C 
BRANCH  27  28
HETATM   28  O1  UNL     1      22.119  -1.625  55.281  1.00  0.00    -0.394 OA
HETATM   29  C1  UNL     1      23.442  -1.449  55.591  1.00  0.00     0.201 C 
ENDBRANCH  27  28
ENDBRANCH  26  27
ENDBRANCH  25  26
ENDBRANCH   1  25
TORSDOF 10
ENDMDL
MODEL 9
REMARK VINA RESULT:      -7.0      4.140      8.225
REMARK  10 active torsions:
REMARK  status: ('A' for Active; 'I' for Inactive)
REMARK    1  A    between atoms: O1_2  and  C2_3 
REMARK    2  A    between atoms: C2_3  and  C3_4 
REMARK    3  A    between atoms: C3_4  and  O2_5 
REMARK    4  A    between atoms: O2_5  and  C4_6 
REMARK    5  A    between atoms: C8_12  and  N3_13 
REMARK    6  A    between atoms: N3_13  and  C9_14 
REMARK    7  A    between atoms: C18_23  and  O3_24 
REMARK    8  A    between atoms: O3_24  and  C19_25 
REMARK    9  A    between atoms: C19_25  and  C20_26 
REMARK   10  A    between atoms: C20_26  and  O4_27 
ROOT
HETATM    1  C4  UNL     1      25.652   1.083  52.822  1.00  0.00     0.104 A 
HETATM    2  C5  UNL     1      26.543   1.751  52.010  1.00  0.00     0.072 A 
HETATM    3  C6  UNL     1      26.204   2.675  51.019  1.00  0.00     0.075 A 
HETATM    4  N1  UNL     1      27.109   3.291  50.249  1.00  0.00    -0.241 NA
HETATM    5  C7  UNL     1      26.712   4.166  49.300  1.00  0.00     0.236 A 
HETATM    6  N2  UNL     1      25.398   4.428  49.120  1.00  0.00    -0.224 NA
HETATM    7  C8  UNL     1      24.477   3.820  49.883  1.00  0.00     0.141 A 
HETATM    8  C16 UNL     1      24.834   2.904  50.880  1.00  0.00     0.042 A 
HETATM    9  C17 UNL     1      23.908   2.263  51.667  1.00  0.00     0.057 A 
HETATM   10  C18 UNL     1      24.280   1.356  52.637  1.00  0.00     0.103 A 
ENDROOT
BRANCH   7  11
HETATM   11  N3  UNL     1      23.081   4.026  49.751  1.00  0.00    -0.344 N 
HETATM   12  H10 UNL     1      22.242   4.075  50.333  1.00  0.00     0.167 HD
BRANCH  11  13
HETATM   13  C9  UNL     1      22.631   4.250  48.327  1.00  0.00     0.014 A 
HETATM   14  C10 UNL     1      22.348   3.159  47.358  1.00  0.00     0.010 A 
HETATM   15  C11 UNL     1      21.815   3.658  45.688  1.00  0.00     0.109 A 
HETATM   16  C12 UNL     1      21.967   4.858  46.234  1.00  0.00    -0.166 A 
HETATM   17  C13 UNL     1      22.091   5.768  46.674  1.00  0.00     0.045 A 
HETATM   18  C14 UNL     1      22.260   6.934  47.269  1.00  0.00     0.026 A 
HETATM   19  C15 UNL     1      22.566   5.847  48.193  1.00  0.00     0.063 A 
ENDBRANCH  11  13
ENDBRANCH   7  11
BRANCH  10  20
HETATM   20  O3  UNL     1      23.426   0.692  53.444  1.00  0.00    -0.346 OA
BRANCH  20  21
HETATM   21  C19 UNL     1      22.968  -0.599  53.483  1.00  0.00     0.201 C 
BRANCH  21  22
HETATM   22  C20 UNL     1      22.826  -1.194  54.852  1.00  0.00     0.193 C 
BRANCH  22  23
HETATM   23  O4  UNL     1      21.624  -1.878  54.987  1.00  0.00    -0.394 OA
HETATM   24  C21 UNL     1      20.620  -1.427  54.157  1.00  0.00     0.201 C 
ENDBRANCH  22  23
ENDBRANCH  21  22
ENDBRANCH  20  21
ENDBRANCH  10  20
BRANCH   1  25
HETATM   25  O2  UNL     1      25.972   0.189  53.779  1.00  0.00    -0.346 OA
BRANCH  25  26
HETATM   26  C3  UNL     1      26.699   0.238  54.936  1.00  0.00     0.201 C 
BRANCH  26  27
HETATM   27  C2  UNL     1      28.190   0.134  54.827  1.00  0.00     0.193 C 
BRANCH  27  28
HETATM   28  O1  UNL     1      28.621  -0.994  54.141  1.00  0.00    -0.394 OA
HETATM   29  C1  UNL     1      29.825  -0.779  53.523  1.00  0.00     0.201 C 
ENDBRANCH  27  28
ENDBRANCH  26  27
ENDBRANCH  25  26
ENDBRANCH   1  25
TORSDOF 10
ENDMDL
