MODEL 1
REMARK VINA RESULT:      -7.9      0.000      0.000
REMARK  4 active torsions:
REMARK  status: ('A' for Active; 'I' for Inactive)
REMARK    1  A    between atoms: C3_3  and  C5_5 
REMARK    2  A    between atoms: C6_7  and  N2_8 
REMARK    3  A    between atoms: N2_8  and  C7_9 
REMARK    4  A    between atoms: C10_12  and  O1_13 
ROOT
HETATM    1  C5  UNL     1      23.944   2.812  51.322  1.00  0.00     0.079 C 
HETATM    2  N1  UNL     1      24.882   2.702  52.226  1.00  0.00    -0.065 NA
HETATM    3  C6  UNL     1      26.284   2.511  51.996  1.00  0.00     0.730 C 
HETATM    4  N3  UNL     1      26.956   2.866  50.953  1.00  0.00    -0.031 NA
HETATM    5  C13 UNL     1      26.420   3.527  49.813  1.00  0.00     0.236 C 
HETATM    6 CL1  UNL     1      27.433   4.580  48.803  1.00  0.00    -0.041 Cl
HETATM    7  N4  UNL     1      25.224   3.483  49.352  1.00  0.00    -0.254 NA
HETATM    8  C14 UNL     1      24.097   2.759  49.850  1.00  0.00     0.212 C 
ENDROOT
BRANCH   3   9
HETATM    9  N2  UNL     1      27.059   1.867  52.996  1.00  0.00    -0.188 N 
HETATM   10  H8  UNL     1      27.401   2.472  53.777  1.00  0.00     0.184 HD
BRANCH   9  11
HETATM   11  C7  UNL     1      27.373   0.489  52.986  1.00  0.00     0.049 A 
HETATM   12  C8  UNL     1      26.591  -0.565  52.592  1.00  0.00     0.033 A 
HETATM   13  C9  UNL     1      26.992  -1.881  52.612  1.00  0.00     0.039 A 
HETATM   14  C10 UNL     1      28.257  -2.211  53.050  1.00  0.00     0.065 A 
HETATM   15  C11 UNL     1      29.096  -1.198  53.461  1.00  0.00     0.039 A 
HETATM   16  C12 UNL     1      28.631   0.096  53.415  1.00  0.00     0.033 A 
BRANCH  14  17
HETATM   17  O1  UNL     1      28.565  -3.563  53.032  1.00  0.00    -0.361 OA
HETATM   18  H11 UNL     1      28.430  -4.054  52.154  1.00  0.00     0.217 HD
ENDBRANCH  14  17
ENDBRANCH   9  11
ENDBRANCH   3   9
BRANCH   1  19
HETATM   19  C3  UNL     1      22.610   3.001  51.883  1.00  0.00    -0.039 C 
HETATM   20  C2  UNL     1      21.664   2.098  52.089  1.00  0.00    -0.022 C 
HETATM   21  C1  UNL     1      20.407   2.578  52.673  1.00  0.00     0.036 C 
HETATM   22  C4  UNL     1      22.157   4.347  52.310  1.00  0.00     0.050 C 
ENDBRANCH   1  19
TORSDOF 4
ENDMDL
MODEL 2
REMARK VINA RESULT:      -7.9      1.847      2.141
REMARK  4 active torsions:
REMARK  status: ('A' for Active; 'I' for Inactive)
REMARK    1  A    between atoms: C3_3  and  C5_5 
REMARK    2  A    between atoms: C6_7  and  N2_8 
REMARK    3  A    between atoms: N2_8  and  C7_9 
REMARK    4  A    between atoms: C10_12  and  O1_13 
ROOT
HETATM    1  C5  UNL     1      23.356   1.106  52.295  1.00  0.00     0.079 C 
HETATM    2  N1  UNL     1      24.544   1.281  52.812  1.00  0.00    -0.065 NA
HETATM    3  C6  UNL     1      25.656   1.957  52.211  1.00  0.00     0.730 C 
HETATM    4  N3  UNL     1      25.609   2.892  51.323  1.00  0.00    -0.031 NA
HETATM    5  C13 UNL     1      24.420   3.437  50.763  1.00  0.00     0.236 C 
HETATM    6 CL1  UNL     1      24.377   5.103  50.144  1.00  0.00    -0.041 Cl
HETATM    7  N4  UNL     1      23.276   2.879  50.615  1.00  0.00    -0.254 NA
HETATM    8  C14 UNL     1      22.873   1.553  50.969  1.00  0.00     0.212 C 
ENDROOT
BRANCH   3   9
HETATM    9  N2  UNL     1      26.970   1.594  52.603  1.00  0.00    -0.188 N 
HETATM   10  H8  UNL     1      27.636   2.381  52.777  1.00  0.00     0.184 HD
BRANCH   9  11
HETATM   11  C7  UNL     1      27.404   0.258  52.771  1.00  0.00     0.049 A 
HETATM   12  C8  UNL     1      26.762  -0.900  52.422  1.00  0.00     0.033 A 
HETATM   13  C9  UNL     1      27.273  -2.162  52.621  1.00  0.00     0.039 A 
HETATM   14  C10 UNL     1      28.511  -2.322  53.208  1.00  0.00     0.065 A 
HETATM   15  C11 UNL     1      29.210  -1.196  53.584  1.00  0.00     0.039 A 
HETATM   16  C12 UNL     1      28.641   0.035  53.356  1.00  0.00     0.033 A 
BRANCH  14  17
HETATM   17  O1  UNL     1      28.937  -3.632  53.364  1.00  0.00    -0.361 OA
HETATM   18  H11 UNL     1      28.885  -4.025  54.298  1.00  0.00     0.217 HD
ENDBRANCH  14  17
ENDBRANCH   9  11
ENDBRANCH   3   9
BRANCH   1  19
HETATM   19  C3  UNL     1      22.442   0.373  53.165  1.00  0.00    -0.039 C 
HETATM   20  C2  UNL     1      22.644  -0.770  53.802  1.00  0.00    -0.022 C 
HETATM   21  C1  UNL     1      21.534  -1.278  54.616  1.00  0.00     0.036 C 
HETATM   22  C4  UNL     1      21.080   0.895  53.435  1.00  0.00     0.050 C 
ENDBRANCH   1  19
TORSDOF 4
ENDMDL
MODEL 3
REMARK VINA RESULT:      -7.7      2.053      3.781
REMARK  4 active torsions:
REMARK  status: ('A' for Active; 'I' for Inactive)
REMARK    1  A    between atoms: C3_3  and  C5_5 
REMARK    2  A    between atoms: C6_7  and  N2_8 
REMARK    3  A    between atoms: N2_8  and  C7_9 
REMARK    4  A    between atoms: C10_12  and  O1_13 
ROOT
HETATM    1  C5  UNL     1      25.544   4.198  50.101  1.00  0.00     0.079 C 
HETATM    2  N1  UNL     1      26.188   3.282  50.774  1.00  0.00    -0.065 NA
HETATM    3  C6  UNL     1      25.629   2.325  51.683  1.00  0.00     0.730 C 
HETATM    4  N3  UNL     1      24.426   1.856  51.675  1.00  0.00    -0.031 NA
HETATM    5  C13 UNL     1      23.410   2.211  50.743  1.00  0.00     0.236 C 
HETATM    6 CL1  UNL     1      22.100   1.080  50.342  1.00  0.00    -0.041 Cl
HETATM    7  N4  UNL     1      23.269   3.305  50.091  1.00  0.00    -0.254 NA
HETATM    8  C14 UNL     1      24.090   4.476  50.116  1.00  0.00     0.212 C 
ENDROOT
BRANCH   3   9
HETATM    9  N2  UNL     1      26.447   1.806  52.719  1.00  0.00    -0.188 N 
HETATM   10  H8  UNL     1      26.697   2.470  53.488  1.00  0.00     0.184 HD
BRANCH   9  11
HETATM   11  C7  UNL     1      26.920   0.474  52.761  1.00  0.00     0.049 A 
HETATM   12  C8  UNL     1      26.291  -0.671  52.348  1.00  0.00     0.033 A 
HETATM   13  C9  UNL     1      26.840  -1.929  52.423  1.00  0.00     0.039 A 
HETATM   14  C10 UNL     1      28.107  -2.101  52.941  1.00  0.00     0.065 A 
HETATM   15  C11 UNL     1      28.795  -0.990  53.376  1.00  0.00     0.039 A 
HETATM   16  C12 UNL     1      28.187   0.240  53.272  1.00  0.00     0.033 A 
BRANCH  14  17
HETATM   17  O1  UNL     1      28.570  -3.407  52.974  1.00  0.00    -0.361 OA
HETATM   18  H11 UNL     1      28.971  -3.732  53.847  1.00  0.00     0.217 HD
ENDBRANCH  14  17
ENDBRANCH   9  11
ENDBRANCH   3   9
BRANCH   1  19
HETATM   19  C3  UNL     1      26.406   5.019  49.256  1.00  0.00    -0.039 C 
HETATM   20  C2  UNL     1      27.653   4.787  48.876  1.00  0.00    -0.022 C 
HETATM   21  C1  UNL     1      28.280   5.798  48.016  1.00  0.00     0.036 C 
HETATM   22  C4  UNL     1      25.914   6.303  48.700  1.00  0.00     0.050 C 
ENDBRANCH   1  19
TORSDOF 4
ENDMDL
MODEL 4
REMARK VINA RESULT:      -7.5      2.900      4.178
REMARK  4 active torsions:
REMARK  status: ('A' for Active; 'I' for Inactive)
REMARK    1  A    between atoms: C3_3  and  C5_5 
REMARK    2  A    between atoms: C6_7  and  N2_8 
REMARK    3  A    between atoms: N2_8  and  C7_9 
REMARK    4  A    between atoms: C10_12  and  O1_13 
ROOT
HETATM    1  C5  UNL     1      23.858   2.273  51.643  1.00  0.00     0.079 C 
HETATM    2  N1  UNL     1      24.309   1.149  52.134  1.00  0.00    -0.065 NA
HETATM    3  C6  UNL     1      23.686   0.332  53.134  1.00  0.00     0.730 C 
HETATM    4  N3  UNL     1      22.425   0.255  53.399  1.00  0.00    -0.031 NA
HETATM    5  C13 UNL     1      21.397   0.981  52.734  1.00  0.00     0.236 C 
HETATM    6 CL1  UNL     1      19.743   0.342  52.631  1.00  0.00    -0.041 Cl
HETATM    7  N4  UNL     1      21.472   2.118  52.148  1.00  0.00    -0.254 NA
HETATM    8  C14 UNL     1      22.606   2.978  52.000  1.00  0.00     0.212 C 
ENDROOT
BRANCH   3   9
HETATM    9  N2  UNL     1      24.502  -0.498  53.944  1.00  0.00    -0.188 N 
HETATM   10  H8  UNL     1      24.005  -1.091  54.649  1.00  0.00     0.184 HD
BRANCH   9  11
HETATM   11  C7  UNL     1      25.911  -0.564  53.841  1.00  0.00     0.049 A 
HETATM   12  C8  UNL     1      26.672  -1.285  52.959  1.00  0.00     0.033 A 
HETATM   13  C9  UNL     1      28.047  -1.277  52.933  1.00  0.00     0.039 A 
HETATM   14  C10 UNL     1      28.752  -0.509  53.835  1.00  0.00     0.065 A 
HETATM   15  C11 UNL     1      28.047   0.240  54.752  1.00  0.00     0.039 A 
HETATM   16  C12 UNL     1      26.673   0.187  54.723  1.00  0.00     0.033 A 
BRANCH  14  17
HETATM   17  O1  UNL     1      30.133  -0.570  53.726  1.00  0.00    -0.361 OA
HETATM   18  H11 UNL     1      30.524  -1.392  53.278  1.00  0.00     0.217 HD
ENDBRANCH  14  17
ENDBRANCH   9  11
ENDBRANCH   3   9
BRANCH   1  19
HETATM   19  C3  UNL     1      24.732   2.862  50.633  1.00  0.00    -0.039 C 
HETATM   20  C2  UNL     1      26.053   2.948  50.631  1.00  0.00    -0.022 C 
HETATM   21  C1  UNL     1      26.672   3.600  49.472  1.00  0.00     0.036 C 
HETATM   22  C4  UNL     1      24.161   3.472  49.407  1.00  0.00     0.050 C 
ENDBRANCH   1  19
TORSDOF 4
ENDMDL
MODEL 5
REMARK VINA RESULT:      -7.3      3.879      6.933
REMARK  4 active torsions:
REMARK  status: ('A' for Active; 'I' for Inactive)
REMARK    1  A    between atoms: C3_3  and  C5_5 
REMARK    2  A    between atoms: C6_7  and  N2_8 
REMARK    3  A    between atoms: N2_8  and  C7_9 
REMARK    4  A    between atoms: C10_12  and  O1_13 
ROOT
HETATM    1  C5  UNL     1      26.722   1.804  52.446  1.00  0.00     0.079 C 
HETATM    2  N1  UNL     1      27.041   2.576  51.441  1.00  0.00    -0.065 NA
HETATM    3  C6  UNL     1      26.143   3.287  50.580  1.00  0.00     0.730 C 
HETATM    4  N3  UNL     1      24.952   3.697  50.866  1.00  0.00    -0.031 NA
HETATM    5  C13 UNL     1      24.297   3.514  52.116  1.00  0.00     0.236 C 
HETATM    6 CL1  UNL     1      23.050   4.651  52.672  1.00  0.00    -0.041 Cl
HETATM    7  N4  UNL     1      24.469   2.584  52.981  1.00  0.00    -0.254 NA
HETATM    8  C14 UNL     1      25.364   1.470  52.935  1.00  0.00     0.212 C 
ENDROOT
BRANCH   3   9
HETATM    9  N2  UNL     1      26.563   3.598  49.261  1.00  0.00    -0.188 N 
HETATM   10  H8  UNL     1      26.542   2.814  48.570  1.00  0.00     0.184 HD
BRANCH   9  11
HETATM   11  C7  UNL     1      26.989   4.883  48.850  1.00  0.00     0.049 A 
HETATM   12  C8  UNL     1      26.260   6.041  48.768  1.00  0.00     0.033 A 
HETATM   13  C9  UNL     1      26.770   7.252  48.361  1.00  0.00     0.039 A 
HETATM   14  C10 UNL     1      28.097   7.358  48.002  1.00  0.00     0.065 A 
HETATM   15  C11 UNL     1      28.886   6.230  48.061  1.00  0.00     0.039 A 
HETATM   16  C12 UNL     1      28.313   5.051  48.477  1.00  0.00     0.033 A 
BRANCH  14  17
HETATM   17  O1  UNL     1      28.513   8.620  47.607  1.00  0.00    -0.361 OA
HETATM   18  H11 UNL     1      29.406   8.682  47.129  1.00  0.00     0.217 HD
ENDBRANCH  14  17
ENDBRANCH   9  11
ENDBRANCH   3   9
BRANCH   1  19
HETATM   19  C3  UNL     1      27.875   1.224  53.128  1.00  0.00    -0.039 C 
HETATM   20  C2  UNL     1      28.202  -0.052  53.258  1.00  0.00    -0.022 C 
HETATM   21  C1  UNL     1      29.432  -0.347  54.002  1.00  0.00     0.036 C 
HETATM   22  C4  UNL     1      28.872   2.096  53.795  1.00  0.00     0.050 C 
ENDBRANCH   1  19
TORSDOF 4
ENDMDL
MODEL 6
REMARK VINA RESULT:      -7.3      3.686      6.633
REMARK  4 active torsions:
REMARK  status: ('A' for Active; 'I' for Inactive)
REMARK    1  A    between atoms: C3_3  and  C5_5 
REMARK    2  A    between atoms: C6_7  and  N2_8 
REMARK    3  A    between atoms: N2_8  and  C7_9 
REMARK    4  A    between atoms: C10_12  and  O1_13 
ROOT
HETATM    1  C5  UNL     1      26.085   0.300  52.774  1.00  0.00     0.079 C 
HETATM    2  N1  UNL     1      25.653   1.333  52.100  1.00  0.00    -0.065 NA
HETATM    3  C6  UNL     1      24.319   1.561  51.629  1.00  0.00     0.730 C 
HETATM    4  N3  UNL     1      23.226   1.095  52.135  1.00  0.00    -0.031 NA
HETATM    5  C13 UNL     1      23.142   0.250  53.277  1.00  0.00     0.236 C 
HETATM    6 CL1  UNL     1      21.692   0.238  54.303  1.00  0.00    -0.041 Cl
HETATM    7  N4  UNL     1      24.012  -0.577  53.726  1.00  0.00    -0.254 NA
HETATM    8  C14 UNL     1      25.309  -0.884  53.208  1.00  0.00     0.212 C 
ENDROOT
BRANCH   3   9
HETATM    9  N2  UNL     1      24.127   2.382  50.489  1.00  0.00    -0.188 N 
HETATM   10  H8  UNL     1      23.270   2.193  49.920  1.00  0.00     0.184 HD
BRANCH   9  11
HETATM   11  C7  UNL     1      25.011   3.416  50.102  1.00  0.00     0.049 A 
HETATM   12  C8  UNL     1      26.232   3.314  49.488  1.00  0.00     0.033 A 
HETATM   13  C9  UNL     1      27.020   4.387  49.143  1.00  0.00     0.039 A 
HETATM   14  C10 UNL     1      26.596   5.671  49.412  1.00  0.00     0.065 A 
HETATM   15  C11 UNL     1      25.377   5.845  50.030  1.00  0.00     0.039 A 
HETATM   16  C12 UNL     1      24.639   4.729  50.348  1.00  0.00     0.033 A 
BRANCH  14  17
HETATM   17  O1  UNL     1      27.462   6.683  49.025  1.00  0.00    -0.361 OA
HETATM   18  H11 UNL     1      27.522   7.494  49.631  1.00  0.00     0.217 HD
ENDBRANCH  14  17
ENDBRANCH   9  11
ENDBRANCH   3   9
BRANCH   1  19
HETATM   19  C3  UNL     1      27.504   0.368  53.106  1.00  0.00    -0.039 C 
HETATM   20  C2  UNL     1      28.363  -0.625  53.274  1.00  0.00    -0.022 C 
HETATM   21  C1  UNL     1      29.744  -0.257  53.606  1.00  0.00     0.036 C 
HETATM   22  C4  UNL     1      28.168   1.680  53.303  1.00  0.00     0.050 C 
ENDBRANCH   1  19
TORSDOF 4
ENDMDL
MODEL 7
REMARK VINA RESULT:      -7.2      3.699      5.888
REMARK  4 active torsions:
REMARK  status: ('A' for Active; 'I' for Inactive)
REMARK    1  A    between atoms: C3_3  and  C5_5 
REMARK    2  A    between atoms: C6_7  and  N2_8 
REMARK    3  A    between atoms: N2_8  and  C7_9 
REMARK    4  A    between atoms: C10_12  and  O1_13 
ROOT
HETATM    1  C5  UNL     1      25.051   0.187  53.806  1.00  0.00     0.079 C 
HETATM    2  N1  UNL     1      25.268   0.951  52.768  1.00  0.00    -0.065 NA
HETATM    3  C6  UNL     1      26.481   1.641  52.442  1.00  0.00     0.730 C 
HETATM    4  N3  UNL     1      27.680   1.309  52.786  1.00  0.00    -0.031 NA
HETATM    5  C13 UNL     1      28.027   0.174  53.571  1.00  0.00     0.236 C 
HETATM    6 CL1  UNL     1      29.619  -0.600  53.410  1.00  0.00    -0.041 Cl
HETATM    7  N4  UNL     1      27.324  -0.435  54.452  1.00  0.00    -0.254 NA
HETATM    8  C14 UNL     1      25.996  -0.145  54.896  1.00  0.00     0.212 C 
ENDROOT
BRANCH   3   9
HETATM    9  N2  UNL     1      26.408   2.820  51.656  1.00  0.00    -0.188 N 
HETATM   10  H8  UNL     1      27.313   3.307  51.466  1.00  0.00     0.184 HD
BRANCH   9  11
HETATM   11  C7  UNL     1      25.204   3.345  51.130  1.00  0.00     0.049 A 
HETATM   12  C8  UNL     1      24.170   3.948  51.797  1.00  0.00     0.033 A 
HETATM   13  C9  UNL     1      23.036   4.437  51.191  1.00  0.00     0.039 A 
HETATM   14  C10 UNL     1      22.883   4.336  49.825  1.00  0.00     0.065 A 
HETATM   15  C11 UNL     1      23.887   3.739  49.094  1.00  0.00     0.039 A 
HETATM   16  C12 UNL     1      24.995   3.272  49.762  1.00  0.00     0.033 A 
BRANCH  14  17
HETATM   17  O1  UNL     1      21.706   4.858  49.312  1.00  0.00    -0.361 OA
HETATM   18  H11 UNL     1      21.087   4.213  48.833  1.00  0.00     0.217 HD
ENDBRANCH  14  17
ENDBRANCH   9  11
ENDBRANCH   3   9
BRANCH   1  19
HETATM   19  C3  UNL     1      23.703  -0.372  53.850  1.00  0.00    -0.039 C 
HETATM   20  C2  UNL     1      23.162  -1.153  54.772  1.00  0.00    -0.022 C 
HETATM   21  C1  UNL     1      21.772  -1.568  54.554  1.00  0.00     0.036 C 
HETATM   22  C4  UNL     1      22.734  -0.087  52.764  1.00  0.00     0.050 C 
ENDBRANCH   1  19
TORSDOF 4
ENDMDL
MODEL 8
REMARK VINA RESULT:      -6.9      3.666      6.592
REMARK  4 active torsions:
REMARK  status: ('A' for Active; 'I' for Inactive)
REMARK    1  A    between atoms: C3_3  and  C5_5 
REMARK    2  A    between atoms: C6_7  and  N2_8 
REMARK    3  A    between atoms: N2_8  and  C7_9 
REMARK    4  A    between atoms: C10_12  and  O1_13 
ROOT
HETATM    1  C5  UNL     1      24.736   1.706  52.468  1.00  0.00     0.079 C 
HETATM    2  N1  UNL     1      23.878   1.193  51.626  1.00  0.00    -0.065 NA
HETATM    3  C6  UNL     1      22.581   1.705  51.294  1.00  0.00     0.730 C 
HETATM    4  N3  UNL     1      22.192   2.934  51.357  1.00  0.00    -0.031 NA
HETATM    5  C13 UNL     1      22.994   4.032  51.778  1.00  0.00     0.236 C 
HETATM    6 CL1  UNL     1      22.677   5.678  51.189  1.00  0.00    -0.041 Cl
HETATM    7  N4  UNL     1      23.991   4.031  52.583  1.00  0.00    -0.254 NA
HETATM    8  C14 UNL     1      24.577   2.932  53.285  1.00  0.00     0.212 C 
ENDROOT
BRANCH   3   9
HETATM    9  N2  UNL     1      21.585   0.803  50.840  1.00  0.00    -0.188 N 
HETATM   10  H8  UNL     1      21.614   0.552  49.826  1.00  0.00     0.184 HD
BRANCH   9  11
HETATM   11  C7  UNL     1      20.590   0.241  51.673  1.00  0.00     0.049 A 
HETATM   12  C8  UNL     1      20.725  -0.294  52.928  1.00  0.00     0.033 A 
HETATM   13  C9  UNL     1      19.688  -0.814  53.667  1.00  0.00     0.039 A 
HETATM   14  C10 UNL     1      18.408  -0.820  53.153  1.00  0.00     0.065 A 
HETATM   15  C11 UNL     1      18.202  -0.297  51.895  1.00  0.00     0.039 A 
HETATM   16  C12 UNL     1      19.284   0.207  51.210  1.00  0.00     0.033 A 
BRANCH  14  17
HETATM   17  O1  UNL     1      17.434  -1.364  53.975  1.00  0.00    -0.361 OA
HETATM   18  H11 UNL     1      16.966  -0.733  54.617  1.00  0.00     0.217 HD
ENDBRANCH  14  17
ENDBRANCH   9  11
ENDBRANCH   3   9
BRANCH   1  19
HETATM   19  C3  UNL     1      25.973   0.942  52.583  1.00  0.00    -0.039 C 
HETATM   20  C2  UNL     1      26.127  -0.366  52.718  1.00  0.00    -0.022 C 
HETATM   21  C1  UNL     1      27.504  -0.864  52.810  1.00  0.00     0.036 C 
HETATM   22  C4  UNL     1      27.288   1.628  52.555  1.00  0.00     0.050 C 
ENDBRANCH   1  19
TORSDOF 4
ENDMDL
MODEL 9
REMARK VINA RESULT:      -6.9      1.791      2.260
REMARK  4 active torsions:
REMARK  status: ('A' for Active; 'I' for Inactive)
REMARK    1  A    between atoms: C3_3  and  C5_5 
REMARK    2  A    between atoms: C6_7  and  N2_8 
REMARK    3  A    between atoms: N2_8  and  C7_9 
REMARK    4  A    between atoms: C10_12  and  O1_13 
ROOT
HETATM    1  C5  UNL     1      23.107   2.085  50.524  1.00  0.00     0.079 C 
HETATM    2  N1  UNL     1      24.115   2.498  51.246  1.00  0.00    -0.065 NA
HETATM    3  C6  UNL     1      25.205   3.322  50.814  1.00  0.00     0.730 C 
HETATM    4  N3  UNL     1      25.196   4.180  49.849  1.00  0.00    -0.031 NA
HETATM    5  C13 UNL     1      24.079   4.472  49.017  1.00  0.00     0.236 C 
HETATM    6 CL1  UNL     1      23.900   6.063  48.247  1.00  0.00    -0.041 Cl
HETATM    7  N4  UNL     1      23.096   3.712  48.701  1.00  0.00    -0.254 NA
HETATM    8  C14 UNL     1      22.847   2.359  49.093  1.00  0.00     0.212 C 
ENDROOT
BRANCH   3   9
HETATM    9  N2  UNL     1      26.448   3.222  51.490  1.00  0.00    -0.188 N 
HETATM   10  H8  UNL     1      27.012   4.100  51.555  1.00  0.00     0.184 HD
BRANCH   9  11
HETATM   11  C7  UNL     1      26.940   2.028  52.065  1.00  0.00     0.049 A 
HETATM   12  C8  UNL     1      26.545   0.737  51.829  1.00  0.00     0.033 A 
HETATM   13  C9  UNL     1      27.094  -0.367  52.438  1.00  0.00     0.039 A 
HETATM   14  C10 UNL     1      28.112  -0.217  53.355  1.00  0.00     0.065 A 
HETATM   15  C11 UNL     1      28.557   1.056  53.640  1.00  0.00     0.039 A 
HETATM   16  C12 UNL     1      27.965   2.116  52.995  1.00  0.00     0.033 A 
BRANCH  14  17
HETATM   17  O1  UNL     1      28.597  -1.390  53.912  1.00  0.00    -0.361 OA
HETATM   18  H11 UNL     1      28.083  -2.242  53.712  1.00  0.00     0.217 HD
ENDBRANCH  14  17
ENDBRANCH   9  11
ENDBRANCH   3   9
BRANCH   1  19
HETATM   19  C3  UNL     1      22.159   1.256  51.263  1.00  0.00    -0.039 C 
HETATM   20  C2  UNL     1      20.877   1.042  51.012  1.00  0.00    -0.022 C 
HETATM   21  C1  UNL     1      20.163   0.152  51.934  1.00  0.00     0.036 C 
HETATM   22  C4  UNL     1      22.592   0.512  52.471  1.00  0.00     0.050 C 
ENDBRANCH   1  19
TORSDOF 4
ENDMDL
