MODEL 1
REMARK VINA RESULT:      -7.8      0.000      0.000
REMARK  3 active torsions:
REMARK  status: ('A' for Active; 'I' for Inactive)
REMARK    1  A    between atoms: C2_2  and  C3_3 
REMARK    2  A    between atoms: C3_3  and  C4_4 
REMARK    3  A    between atoms: C5_5  and  C6_6 
ROOT
HETATM    1  C6  UNL     1      23.528   5.530  50.114  1.00  0.00     0.049 C 
HETATM    2  C7  UNL     1      23.868   6.876  49.510  1.00  0.00     0.043 C 
HETATM    3  C8  UNL     1      23.527   5.662  51.589  1.00  0.00     0.071 C 
HETATM    4  C9  UNL     1      23.082   4.423  52.285  1.00  0.00    -0.055 C 
HETATM    5  C10 UNL     1      24.078   3.635  52.627  1.00  0.00     0.140 C 
HETATM    6  O1  UNL     1      24.401   2.401  53.257  1.00  0.00    -0.337 OA
HETATM    7  C11 UNL     1      24.165   1.201  52.495  1.00  0.00     0.349 C 
HETATM    8  O2  UNL     1      23.450   0.286  53.235  1.00  0.00    -0.337 OA
HETATM    9  C12 UNL     1      22.270  -0.339  53.011  1.00  0.00     0.140 C 
HETATM   10  C13 UNL     1      21.297   0.554  52.699  1.00  0.00    -0.051 C 
HETATM   11  C14 UNL     1      20.830   1.900  52.461  1.00  0.00     0.030 C 
HETATM   12  C15 UNL     1      21.036   3.170  52.340  1.00  0.00     0.003 C 
HETATM   13  C16 UNL     1      21.583   4.524  52.256  1.00  0.00     0.041 C 
HETATM   14  C17 UNL     1      20.055  -0.029  52.026  1.00  0.00     0.063 C 
HETATM   15  C18 UNL     1      19.883   0.694  50.677  1.00  0.00     0.174 C 
HETATM   16  O3  UNL     1      21.072   0.647  50.010  1.00  0.00    -0.370 OA
HETATM   17  C19 UNL     1      21.145   1.391  48.868  1.00  0.00     0.317 C 
HETATM   18  N1  UNL     1      21.009   2.811  49.187  1.00  0.00    -0.259 NA
HETATM   19  C20 UNL     1      21.971   3.654  49.204  1.00  0.00     0.199 C 
HETATM   20  N2  UNL     1      22.374   5.035  49.427  1.00  0.00    -0.372 N 
HETATM   21  H26 UNL     1      21.520   5.331  48.906  1.00  0.00     0.161 HD
ENDROOT
BRANCH   1  22
HETATM   22  C5  UNL     1      24.717   4.639  49.715  1.00  0.00     0.004 C 
HETATM   23  C4  UNL     1      25.912   5.121  49.344  1.00  0.00     0.006 C 
BRANCH  23  24
HETATM   24  C3  UNL     1      27.121   4.416  48.943  1.00  0.00     0.050 C 
BRANCH  24  25
HETATM   25  C2  UNL     1      28.227   5.018  48.519  1.00  0.00    -0.155 C 
HETATM   26  C1  UNL     1      29.042   5.961  48.054  1.00  0.00     0.096 C 
ENDBRANCH  24  25
ENDBRANCH  23  24
ENDBRANCH   1  22
TORSDOF 3
ENDMDL
MODEL 2
REMARK VINA RESULT:      -7.0      2.356      4.061
REMARK  3 active torsions:
REMARK  status: ('A' for Active; 'I' for Inactive)
REMARK    1  A    between atoms: C2_2  and  C3_3 
REMARK    2  A    between atoms: C3_3  and  C4_4 
REMARK    3  A    between atoms: C5_5  and  C6_6 
ROOT
HETATM    1  C6  UNL     1      21.535   5.771  50.282  1.00  0.00     0.049 C 
HETATM    2  C7  UNL     1      20.439   6.769  49.976  1.00  0.00     0.043 C 
HETATM    3  C8  UNL     1      22.685   6.498  50.867  1.00  0.00     0.071 C 
HETATM    4  C9  UNL     1      23.776   5.593  51.321  1.00  0.00    -0.055 C 
HETATM    5  C10 UNL     1      24.707   5.406  50.410  1.00  0.00     0.140 C 
HETATM    6  O1  UNL     1      25.932   4.735  50.143  1.00  0.00    -0.337 OA
HETATM    7  C11 UNL     1      25.854   3.325  49.859  1.00  0.00     0.349 C 
HETATM    8  O2  UNL     1      26.750   2.620  50.633  1.00  0.00    -0.337 OA
HETATM    9  C12 UNL     1      26.589   1.603  51.510  1.00  0.00     0.140 C 
HETATM   10  C13 UNL     1      25.636   1.900  52.430  1.00  0.00    -0.051 C 
HETATM   11  C14 UNL     1      24.641   2.780  52.997  1.00  0.00     0.030 C 
HETATM   12  C15 UNL     1      23.948   3.871  52.984  1.00  0.00     0.003 C 
HETATM   13  C16 UNL     1      23.328   5.162  52.689  1.00  0.00     0.041 C 
HETATM   14  C17 UNL     1      25.067   0.710  53.202  1.00  0.00     0.063 C 
HETATM   15  C18 UNL     1      23.545   0.699  52.969  1.00  0.00     0.174 C 
HETATM   16  O3  UNL     1      23.314   0.780  51.627  1.00  0.00    -0.370 OA
HETATM   17  C19 UNL     1      22.012   0.955  51.255  1.00  0.00     0.317 C 
HETATM   18  N1  UNL     1      21.522   2.243  51.746  1.00  0.00    -0.259 NA
HETATM   19  C20 UNL     1      21.348   3.285  51.025  1.00  0.00     0.199 C 
HETATM   20  N2  UNL     1      20.932   4.679  50.982  1.00  0.00    -0.372 N 
HETATM   21  H26 UNL     1      20.139   4.424  51.611  1.00  0.00     0.161 HD
ENDROOT
BRANCH   1  22
HETATM   22  C5  UNL     1      21.954   5.251  48.895  1.00  0.00     0.004 C 
HETATM   23  C4  UNL     1      22.011   6.024  47.801  1.00  0.00     0.006 C 
BRANCH  23  24
HETATM   24  C3  UNL     1      22.384   5.685  46.435  1.00  0.00     0.050 C 
BRANCH  24  25
HETATM   25  C2  UNL     1      21.916   4.630  45.777  1.00  0.00    -0.155 C 
HETATM   26  C1  UNL     1      21.362   3.897  44.815  1.00  0.00     0.096 C 
ENDBRANCH  24  25
ENDBRANCH  23  24
ENDBRANCH   1  22
TORSDOF 3
ENDMDL
MODEL 3
REMARK VINA RESULT:      -7.0      3.287      5.746
REMARK  3 active torsions:
REMARK  status: ('A' for Active; 'I' for Inactive)
REMARK    1  A    between atoms: C2_2  and  C3_3 
REMARK    2  A    between atoms: C3_3  and  C4_4 
REMARK    3  A    between atoms: C5_5  and  C6_6 
ROOT
HETATM    1  C6  UNL     1      21.661   1.008  52.328  1.00  0.00     0.049 C 
HETATM    2  C7  UNL     1      21.743   0.170  53.586  1.00  0.00     0.043 C 
HETATM    3  C8  UNL     1      20.860   0.273  51.323  1.00  0.00     0.071 C 
HETATM    4  C9  UNL     1      20.610   1.062  50.086  1.00  0.00    -0.055 C 
HETATM    5  C10 UNL     1      21.499   0.841  49.142  1.00  0.00     0.140 C 
HETATM    6  O1  UNL     1      21.879   1.196  47.818  1.00  0.00    -0.337 OA
HETATM    7  C11 UNL     1      22.521   2.474  47.646  1.00  0.00     0.349 C 
HETATM    8  O2  UNL     1      21.919   3.190  46.634  1.00  0.00    -0.337 OA
HETATM    9  C12 UNL     1      21.341   4.414  46.608  1.00  0.00     0.140 C 
HETATM   10  C13 UNL     1      20.417   4.538  47.594  1.00  0.00    -0.051 C 
HETATM   11  C14 UNL     1      19.684   4.022  48.727  1.00  0.00     0.030 C 
HETATM   12  C15 UNL     1      19.443   3.103  49.602  1.00  0.00     0.003 C 
HETATM   13  C16 UNL     1      19.420   1.907  50.444  1.00  0.00     0.041 C 
HETATM   14  C17 UNL     1      20.004   5.968  47.938  1.00  0.00     0.063 C 
HETATM   15  C18 UNL     1      20.294   6.181  49.436  1.00  0.00     0.174 C 
HETATM   16  O3  UNL     1      21.578   5.793  49.684  1.00  0.00    -0.370 OA
HETATM   17  C19 UNL     1      21.946   5.753  50.998  1.00  0.00     0.317 C 
HETATM   18  N1  UNL     1      21.160   4.745  51.707  1.00  0.00    -0.259 NA
HETATM   19  C20 UNL     1      21.594   3.596  52.067  1.00  0.00     0.199 C 
HETATM   20  N2  UNL     1      21.292   2.333  52.724  1.00  0.00    -0.372 N 
HETATM   21  H26 UNL     1      20.784   2.877  53.456  1.00  0.00     0.161 HD
ENDROOT
BRANCH   1  22
HETATM   22  C5  UNL     1      23.116   1.067  51.831  1.00  0.00     0.004 C 
HETATM   23  C4  UNL     1      24.178   0.881  52.628  1.00  0.00     0.006 C 
BRANCH  23  24
HETATM   24  C3  UNL     1      25.599   0.904  52.311  1.00  0.00     0.050 C 
BRANCH  24  25
HETATM   25  C2  UNL     1      26.373  -0.175  52.286  1.00  0.00    -0.155 C 
HETATM   26  C1  UNL     1      26.943  -1.319  52.655  1.00  0.00     0.096 C 
ENDBRANCH  24  25
ENDBRANCH  23  24
ENDBRANCH   1  22
TORSDOF 3
ENDMDL
MODEL 4
REMARK VINA RESULT:      -6.9      2.301      4.308
REMARK  3 active torsions:
REMARK  status: ('A' for Active; 'I' for Inactive)
REMARK    1  A    between atoms: C2_2  and  C3_3 
REMARK    2  A    between atoms: C3_3  and  C4_4 
REMARK    3  A    between atoms: C5_5  and  C6_6 
ROOT
HETATM    1  C6  UNL     1      24.018   2.776  52.393  1.00  0.00     0.049 C 
HETATM    2  C7  UNL     1      25.098   2.554  53.429  1.00  0.00     0.043 C 
HETATM    3  C8  UNL     1      23.048   1.660  52.476  1.00  0.00     0.071 C 
HETATM    4  C9  UNL     1      21.872   1.842  51.581  1.00  0.00    -0.055 C 
HETATM    5  C10 UNL     1      22.021   1.267  50.406  1.00  0.00     0.140 C 
HETATM    6  O1  UNL     1      21.388   1.039  49.153  1.00  0.00    -0.337 OA
HETATM    7  C11 UNL     1      21.360   2.142  48.228  1.00  0.00     0.349 C 
HETATM    8  O2  UNL     1      20.085   2.342  47.745  1.00  0.00    -0.337 OA
HETATM    9  C12 UNL     1      19.268   3.421  47.761  1.00  0.00     0.140 C 
HETATM   10  C13 UNL     1      19.149   3.924  49.017  1.00  0.00    -0.051 C 
HETATM   11  C14 UNL     1      19.456   3.915  50.428  1.00  0.00     0.030 C 
HETATM   12  C15 UNL     1      20.094   3.448  51.450  1.00  0.00     0.003 C 
HETATM   13  C16 UNL     1      20.955   2.722  52.383  1.00  0.00     0.041 C 
HETATM   14  C17 UNL     1      18.613   5.352  49.110  1.00  0.00     0.063 C 
HETATM   15  C18 UNL     1      19.667   6.188  49.858  1.00  0.00     0.174 C 
HETATM   16  O3  UNL     1      20.879   5.981  49.267  1.00  0.00    -0.370 OA
HETATM   17  C19 UNL     1      21.957   6.514  49.914  1.00  0.00     0.317 C 
HETATM   18  N1  UNL     1      22.121   5.878  51.220  1.00  0.00    -0.259 NA
HETATM   19  C20 UNL     1      23.012   5.005  51.504  1.00  0.00     0.199 C 
HETATM   20  N2  UNL     1      23.578   4.132  52.521  1.00  0.00    -0.372 N 
HETATM   21  H26 UNL     1      23.481   4.919  53.200  1.00  0.00     0.161 HD
ENDROOT
BRANCH   1  22
HETATM   22  C5  UNL     1      24.766   2.662  51.053  1.00  0.00     0.004 C 
HETATM   23  C4  UNL     1      25.881   3.348  50.768  1.00  0.00     0.006 C 
BRANCH  23  24
HETATM   24  C3  UNL     1      26.695   3.349  49.560  1.00  0.00     0.050 C 
BRANCH  24  25
HETATM   25  C2  UNL     1      27.057   4.448  48.908  1.00  0.00    -0.155 C 
HETATM   26  C1  UNL     1      27.752   5.527  48.555  1.00  0.00     0.096 C 
ENDBRANCH  24  25
ENDBRANCH  23  24
ENDBRANCH   1  22
TORSDOF 3
ENDMDL
MODEL 5
REMARK VINA RESULT:      -6.9      2.774      5.925
REMARK  3 active torsions:
REMARK  status: ('A' for Active; 'I' for Inactive)
REMARK    1  A    between atoms: C2_2  and  C3_3 
REMARK    2  A    between atoms: C3_3  and  C4_4 
REMARK    3  A    between atoms: C5_5  and  C6_6 
ROOT
HETATM    1  C6  UNL     1      22.267   2.467  51.326  1.00  0.00     0.049 C 
HETATM    2  C7  UNL     1      21.614   1.315  52.058  1.00  0.00     0.043 C 
HETATM    3  C8  UNL     1      22.948   1.936  50.123  1.00  0.00     0.071 C 
HETATM    4  C9  UNL     1      23.521   3.005  49.259  1.00  0.00    -0.055 C 
HETATM    5  C10 UNL     1      24.783   3.265  49.525  1.00  0.00     0.140 C 
HETATM    6  O1  UNL     1      25.890   4.079  49.156  1.00  0.00    -0.337 OA
HETATM    7  C11 UNL     1      25.869   5.447  49.606  1.00  0.00     0.349 C 
HETATM    8  O2  UNL     1      26.120   6.309  48.560  1.00  0.00    -0.337 OA
HETATM    9  C12 UNL     1      25.413   7.343  48.046  1.00  0.00     0.140 C 
HETATM   10  C13 UNL     1      24.137   6.972  47.772  1.00  0.00    -0.051 C 
HETATM   11  C14 UNL     1      23.070   5.998  47.741  1.00  0.00     0.030 C 
HETATM   12  C15 UNL     1      22.594   4.825  47.999  1.00  0.00     0.003 C 
HETATM   13  C16 UNL     1      22.352   3.447  48.426  1.00  0.00     0.041 C 
HETATM   14  C17 UNL     1      23.140   8.116  47.591  1.00  0.00     0.063 C 
HETATM   15  C18 UNL     1      22.012   7.907  48.619  1.00  0.00     0.174 C 
HETATM   16  O3  UNL     1      22.578   7.721  49.846  1.00  0.00    -0.370 OA
HETATM   17  C19 UNL     1      21.727   7.350  50.846  1.00  0.00     0.317 C 
HETATM   18  N1  UNL     1      21.152   6.038  50.552  1.00  0.00    -0.259 NA
HETATM   19  C20 UNL     1      21.496   4.944  51.117  1.00  0.00     0.199 C 
HETATM   20  N2  UNL     1      21.289   3.506  51.211  1.00  0.00    -0.372 N 
HETATM   21  H26 UNL     1      20.263   3.686  51.156  1.00  0.00     0.161 HD
ENDROOT
BRANCH   1  22
HETATM   22  C5  UNL     1      23.346   2.960  52.307  1.00  0.00     0.004 C 
HETATM   23  C4  UNL     1      24.273   2.160  52.851  1.00  0.00     0.006 C 
BRANCH  23  24
HETATM   24  C3  UNL     1      25.347   2.472  53.783  1.00  0.00     0.050 C 
BRANCH  24  25
HETATM   25  C2  UNL     1      26.618   2.137  53.593  1.00  0.00    -0.155 C 
HETATM   26  C1  UNL     1      27.842   2.102  53.071  1.00  0.00     0.096 C 
ENDBRANCH  24  25
ENDBRANCH  23  24
ENDBRANCH   1  22
TORSDOF 3
ENDMDL
MODEL 6
REMARK VINA RESULT:      -6.8      2.837      5.451
REMARK  3 active torsions:
REMARK  status: ('A' for Active; 'I' for Inactive)
REMARK    1  A    between atoms: C2_2  and  C3_3 
REMARK    2  A    between atoms: C3_3  and  C4_4 
REMARK    3  A    between atoms: C5_5  and  C6_6 
ROOT
HETATM    1  C6  UNL     1      24.269   2.672  51.653  1.00  0.00     0.049 C 
HETATM    2  C7  UNL     1      25.659   2.285  52.110  1.00  0.00     0.043 C 
HETATM    3  C8  UNL     1      23.707   3.641  52.621  1.00  0.00     0.071 C 
HETATM    4  C9  UNL     1      22.385   4.185  52.201  1.00  0.00    -0.055 C 
HETATM    5  C10 UNL     1      21.368   3.513  52.696  1.00  0.00     0.140 C 
HETATM    6  O1  UNL     1      19.948   3.444  52.731  1.00  0.00    -0.337 OA
HETATM    7  C11 UNL     1      19.294   2.907  51.565  1.00  0.00     0.349 C 
HETATM    8  O2  UNL     1      18.281   3.742  51.145  1.00  0.00    -0.337 OA
HETATM    9  C12 UNL     1      18.046   4.360  49.964  1.00  0.00     0.140 C 
HETATM   10  C13 UNL     1      19.137   5.054  49.551  1.00  0.00    -0.051 C 
HETATM   11  C14 UNL     1      20.500   5.502  49.716  1.00  0.00     0.030 C 
HETATM   12  C15 UNL     1      21.626   5.510  50.350  1.00  0.00     0.003 C 
HETATM   13  C16 UNL     1      22.748   5.302  51.265  1.00  0.00     0.041 C 
HETATM   14  C17 UNL     1      19.156   5.440  48.073  1.00  0.00     0.063 C 
HETATM   15  C18 UNL     1      20.435   4.841  47.459  1.00  0.00     0.174 C 
HETATM   16  O3  UNL     1      20.493   3.519  47.791  1.00  0.00    -0.370 OA
HETATM   17  C19 UNL     1      21.652   2.874  47.472  1.00  0.00     0.317 C 
HETATM   18  N1  UNL     1      22.767   3.446  48.227  1.00  0.00    -0.259 NA
HETATM   19  C20 UNL     1      23.325   2.898  49.239  1.00  0.00     0.199 C 
HETATM   20  N2  UNL     1      24.355   2.999  50.262  1.00  0.00    -0.372 N 
HETATM   21  H26 UNL     1      25.001   3.358  49.526  1.00  0.00     0.161 HD
ENDROOT
BRANCH   1  22
HETATM   22  C5  UNL     1      23.468   1.363  51.767  1.00  0.00     0.004 C 
HETATM   23  C4  UNL     1      23.474   0.585  52.859  1.00  0.00     0.006 C 
BRANCH  23  24
HETATM   24  C3  UNL     1      22.778  -0.668  53.118  1.00  0.00     0.050 C 
BRANCH  24  25
HETATM   25  C2  UNL     1      21.505  -0.748  53.491  1.00  0.00    -0.155 C 
HETATM   26  C1  UNL     1      20.208  -0.471  53.592  1.00  0.00     0.096 C 
ENDBRANCH  24  25
ENDBRANCH  23  24
ENDBRANCH   1  22
TORSDOF 3
ENDMDL
MODEL 7
REMARK VINA RESULT:      -6.8      7.136     10.962
REMARK  3 active torsions:
REMARK  status: ('A' for Active; 'I' for Inactive)
REMARK    1  A    between atoms: C2_2  and  C3_3 
REMARK    2  A    between atoms: C3_3  and  C4_4 
REMARK    3  A    between atoms: C5_5  and  C6_6 
ROOT
HETATM    1  C6  UNL     1      31.300   8.360  47.992  1.00  0.00     0.049 C 
HETATM    2  C7  UNL     1      32.469   7.402  48.055  1.00  0.00     0.043 C 
HETATM    3  C8  UNL     1      31.102   8.952  49.335  1.00  0.00     0.071 C 
HETATM    4  C9  UNL     1      30.051  10.007  49.358  1.00  0.00    -0.055 C 
HETATM    5  C10 UNL     1      28.863   9.546  49.684  1.00  0.00     0.140 C 
HETATM    6  O1  UNL     1      27.505   9.919  49.890  1.00  0.00    -0.337 OA
HETATM    7  C11 UNL     1      26.711  10.160  48.713  1.00  0.00     0.349 C 
HETATM    8  O2  UNL     1      26.050  11.365  48.808  1.00  0.00    -0.337 OA
HETATM    9  C12 UNL     1      26.048  12.463  48.017  1.00  0.00     0.140 C 
HETATM   10  C13 UNL     1      27.313  12.885  47.763  1.00  0.00    -0.051 C 
HETATM   11  C14 UNL     1      28.746  12.769  47.897  1.00  0.00     0.030 C 
HETATM   12  C15 UNL     1      29.803  12.154  48.315  1.00  0.00     0.003 C 
HETATM   13  C16 UNL     1      30.781  11.238  48.902  1.00  0.00     0.041 C 
HETATM   14  C17 UNL     1      27.469  13.831  46.574  1.00  0.00     0.063 C 
HETATM   15  C18 UNL     1      28.466  13.179  45.598  1.00  0.00     0.174 C 
HETATM   16  O3  UNL     1      28.063  11.897  45.364  1.00  0.00    -0.370 OA
HETATM   17  C19 UNL     1      28.930  11.119  44.654  1.00  0.00     0.317 C 
HETATM   18  N1  UNL     1      30.171  10.937  45.407  1.00  0.00    -0.259 NA
HETATM   19  C20 UNL     1      30.502   9.868  46.027  1.00  0.00     0.199 C 
HETATM   20  N2  UNL     1      31.499   9.199  46.849  1.00  0.00    -0.372 N 
HETATM   21  H26 UNL     1      32.232   9.612  46.232  1.00  0.00     0.161 HD
ENDROOT
BRANCH   1  22
HETATM   22  C5  UNL     1      30.097   7.451  47.688  1.00  0.00     0.004 C 
HETATM   23  C4  UNL     1      29.861   6.297  48.330  1.00  0.00     0.006 C 
BRANCH  23  24
HETATM   24  C3  UNL     1      28.779   5.337  48.160  1.00  0.00     0.050 C 
BRANCH  24  25
HETATM   25  C2  UNL     1      27.524   5.556  48.537  1.00  0.00    -0.155 C 
HETATM   26  C1  UNL     1      26.352   6.163  48.703  1.00  0.00     0.096 C 
ENDBRANCH  24  25
ENDBRANCH  23  24
ENDBRANCH   1  22
TORSDOF 3
ENDMDL
MODEL 8
REMARK VINA RESULT:      -6.8      3.299      6.969
REMARK  3 active torsions:
REMARK  status: ('A' for Active; 'I' for Inactive)
REMARK    1  A    between atoms: C2_2  and  C3_3 
REMARK    2  A    between atoms: C3_3  and  C4_4 
REMARK    3  A    between atoms: C5_5  and  C6_6 
ROOT
HETATM    1  C6  UNL     1      17.944   3.422  49.860  1.00  0.00     0.049 C 
HETATM    2  C7  UNL     1      16.834   4.064  49.056  1.00  0.00     0.043 C 
HETATM    3  C8  UNL     1      17.997   1.981  49.523  1.00  0.00     0.071 C 
HETATM    4  C9  UNL     1      19.138   1.273  50.168  1.00  0.00    -0.055 C 
HETATM    5  C10 UNL     1      18.820   0.715  51.316  1.00  0.00     0.140 C 
HETATM    6  O1  UNL     1      19.331  -0.050  52.401  1.00  0.00    -0.337 OA
HETATM    7  C11 UNL     1      20.152   0.646  53.358  1.00  0.00     0.349 C 
HETATM    8  O2  UNL     1      21.328  -0.037  53.581  1.00  0.00    -0.337 OA
HETATM    9  C12 UNL     1      22.625   0.326  53.455  1.00  0.00     0.140 C 
HETATM   10  C13 UNL     1      22.867   0.859  52.231  1.00  0.00    -0.051 C 
HETATM   11  C14 UNL     1      22.441   1.271  50.913  1.00  0.00     0.030 C 
HETATM   12  C15 UNL     1      21.526   1.453  50.019  1.00  0.00     0.003 C 
HETATM   13  C16 UNL     1      20.290   1.552  49.244  1.00  0.00     0.041 C 
HETATM   14  C17 UNL     1      24.151   1.677  52.106  1.00  0.00     0.063 C 
HETATM   15  C18 UNL     1      23.752   3.087  51.633  1.00  0.00     0.174 C 
HETATM   16  O3  UNL     1      22.759   3.549  52.446  1.00  0.00    -0.370 OA
HETATM   17  C19 UNL     1      22.168   4.717  52.062  1.00  0.00     0.317 C 
HETATM   18  N1  UNL     1      21.480   4.533  50.785  1.00  0.00    -0.259 NA
HETATM   19  C20 UNL     1      20.214   4.425  50.642  1.00  0.00     0.199 C 
HETATM   20  N2  UNL     1      19.105   4.246  49.717  1.00  0.00    -0.372 N 
HETATM   21  H26 UNL     1      19.578   4.920  49.075  1.00  0.00     0.161 HD
ENDROOT
BRANCH   1  22
HETATM   22  C5  UNL     1      17.465   3.555  51.316  1.00  0.00     0.004 C 
HETATM   23  C4  UNL     1      16.216   3.906  51.655  1.00  0.00     0.006 C 
BRANCH  23  24
HETATM   24  C3  UNL     1      15.616   4.073  52.972  1.00  0.00     0.050 C 
BRANCH  24  25
HETATM   25  C2  UNL     1      14.307   4.068  53.199  1.00  0.00    -0.155 C 
HETATM   26  C1  UNL     1      13.101   4.467  53.593  1.00  0.00     0.096 C 
ENDBRANCH  24  25
ENDBRANCH  23  24
ENDBRANCH   1  22
TORSDOF 3
ENDMDL
MODEL 9
REMARK VINA RESULT:      -6.7      2.498      6.481
REMARK  3 active torsions:
REMARK  status: ('A' for Active; 'I' for Inactive)
REMARK    1  A    between atoms: C2_2  and  C3_3 
REMARK    2  A    between atoms: C3_3  and  C4_4 
REMARK    3  A    between atoms: C5_5  and  C6_6 
ROOT
HETATM    1  C6  UNL     1      20.966   2.230  49.843  1.00  0.00     0.049 C 
HETATM    2  C7  UNL     1      19.911   1.148  49.925  1.00  0.00     0.043 C 
HETATM    3  C8  UNL     1      21.915   1.882  48.761  1.00  0.00     0.071 C 
HETATM    4  C9  UNL     1      22.928   2.944  48.509  1.00  0.00    -0.055 C 
HETATM    5  C10 UNL     1      24.046   2.763  49.179  1.00  0.00     0.140 C 
HETATM    6  O1  UNL     1      25.335   3.309  49.427  1.00  0.00    -0.337 OA
HETATM    7  C11 UNL     1      25.400   4.453  50.300  1.00  0.00     0.349 C 
HETATM    8  O2  UNL     1      26.141   5.463  49.727  1.00  0.00    -0.337 OA
HETATM    9  C12 UNL     1      25.846   6.751  49.433  1.00  0.00     0.140 C 
HETATM   10  C13 UNL     1      24.698   6.837  48.714  1.00  0.00    -0.051 C 
HETATM   11  C14 UNL     1      23.555   6.241  48.062  1.00  0.00     0.030 C 
HETATM   12  C15 UNL     1      22.822   5.221  47.759  1.00  0.00     0.003 C 
HETATM   13  C16 UNL     1      22.212   3.902  47.599  1.00  0.00     0.041 C 
HETATM   14  C17 UNL     1      24.039   8.215  48.680  1.00  0.00     0.063 C 
HETATM   15  C18 UNL     1      22.610   8.053  49.228  1.00  0.00     0.174 C 
HETATM   16  O3  UNL     1      22.677   7.390  50.418  1.00  0.00    -0.370 OA
HETATM   17  C19 UNL     1      21.483   7.011  50.959  1.00  0.00     0.317 C 
HETATM   18  N1  UNL     1      20.825   6.040  50.085  1.00  0.00    -0.259 NA
HETATM   19  C20 UNL     1      20.758   4.782  50.306  1.00  0.00     0.199 C 
HETATM   20  N2  UNL     1      20.284   3.488  49.836  1.00  0.00    -0.372 N 
HETATM   21  H26 UNL     1      19.387   3.952  49.573  1.00  0.00     0.161 HD
ENDROOT
BRANCH   1  22
HETATM   22  C5  UNL     1      21.710   2.119  51.185  1.00  0.00     0.004 C 
HETATM   23  C4  UNL     1      21.998   0.952  51.778  1.00  0.00     0.006 C 
BRANCH  23  24
HETATM   24  C3  UNL     1      22.687   0.685  53.032  1.00  0.00     0.050 C 
BRANCH  24  25
HETATM   25  C2  UNL     1      22.243  -0.155  53.961  1.00  0.00    -0.155 C 
HETATM   26  C1  UNL     1      21.746  -1.252  54.526  1.00  0.00     0.096 C 
ENDBRANCH  24  25
ENDBRANCH  23  24
ENDBRANCH   1  22
TORSDOF 3
ENDMDL
