MODEL 1
REMARK VINA RESULT:      -8.0      0.000      0.000
REMARK  3 active torsions:
REMARK  status: ('A' for Active; 'I' for Inactive)
REMARK    1  A    between atoms: N1_3  and  C3_4 
REMARK    2  A    between atoms: C13_16  and  C14_17 
REMARK    3  A    between atoms: C22_26  and  C23_27 
ROOT
HETATM    1  C3  UNL     1      33.629   9.502  46.212  1.00  0.00     0.167 C 
HETATM    2  C4  UNL     1      34.812   9.172  46.996  1.00  0.00     0.030 C 
HETATM    3  C5  UNL     1      35.166   8.103  47.687  1.00  0.00     0.011 C 
HETATM    4  C6  UNL     1      34.047   7.168  47.535  1.00  0.00     0.072 C 
HETATM    5  C7  UNL     1      34.651   5.732  47.644  1.00  0.00     0.095 C 
HETATM    6  C8  UNL     1      35.431   6.017  48.830  1.00  0.00     0.227 C 
HETATM    7  O1  UNL     1      35.764   5.572  49.969  1.00  0.00    -0.273 OA
HETATM    8  N2  UNL     1      36.010   7.313  48.508  1.00  0.00    -0.331 N 
HETATM    9  C9  UNL     1      33.391   4.987  47.784  1.00  0.00     0.009 A 
HETATM   10  C10 UNL     1      32.737   5.159  46.599  1.00  0.00     0.006 A 
HETATM   11  C11 UNL     1      33.022   4.979  45.129  1.00  0.00     0.022 C 
HETATM   12  C12 UNL     1      31.586   5.607  47.258  1.00  0.00    -0.036 A 
HETATM   13  C13 UNL     1      30.678   6.491  47.464  1.00  0.00     0.013 C 
HETATM   14  N3  UNL     1      30.779   7.706  46.684  1.00  0.00    -0.359 N 
HETATM   15  C16 UNL     1      31.217   9.035  47.054  1.00  0.00     0.041 A 
HETATM   16  C17 UNL     1      30.145   9.580  47.734  1.00  0.00     0.030 A 
HETATM   17  C18 UNL     1      30.111  10.864  48.302  1.00  0.00     0.002 A 
HETATM   18  C19 UNL     1      31.241  11.650  48.169  1.00  0.00     0.001 A 
HETATM   19  C20 UNL     1      32.290  11.061  47.477  1.00  0.00     0.012 A 
HETATM   20  C21 UNL     1      32.373   9.783  46.891  1.00  0.00    -0.003 A 
HETATM   21  C22 UNL     1      32.086   4.320  47.715  1.00  0.00     0.090 A 
HETATM   22  H10 UNL     1      36.917   7.843  48.727  1.00  0.00     0.168 HD
HETATM   23  H19 UNL     1      30.510   7.732  45.660  1.00  0.00     0.166 HD
ENDROOT
BRANCH  21  24
HETATM   24  C23 UNL     1      32.037   3.278  46.685  1.00  0.00     0.127 A 
HETATM   25  O2  UNL     1      32.215   2.081  47.122  1.00  0.00    -0.193 OA
HETATM   26  O3  UNL     1      32.007   2.208  45.783  1.00  0.00     0.000 OA
HETATM   27  H25 UNL     1      31.577   2.319  44.857  1.00  0.00     0.000 HD
ENDBRANCH  21  24
BRANCH  13  28
HETATM   28  C14 UNL     1      29.672   6.078  48.512  1.00  0.00     0.053 C 
HETATM   29  C15 UNL     1      28.261   6.387  48.113  1.00  0.00     0.011 C 
ENDBRANCH  13  28
BRANCH   1  30
HETATM   30  N1  UNL     1      33.465   8.704  45.000  1.00  0.00    -0.292 NA
HETATM   31  C2  UNL     1      34.312   8.618  44.077  1.00  0.00     0.080 C 
HETATM   32  C1  UNL     1      34.062   7.769  42.855  1.00  0.00     0.057 C 
ENDBRANCH   1  30
TORSDOF 3
ENDMDL
MODEL 2
REMARK VINA RESULT:      -7.9      4.003      6.816
REMARK  3 active torsions:
REMARK  status: ('A' for Active; 'I' for Inactive)
REMARK    1  A    between atoms: N1_3  and  C3_4 
REMARK    2  A    between atoms: C13_16  and  C14_17 
REMARK    3  A    between atoms: C22_26  and  C23_27 
ROOT
HETATM    1  C3  UNL     1      31.070   8.397  46.540  1.00  0.00     0.167 C 
HETATM    2  C4  UNL     1      30.419   8.798  45.300  1.00  0.00     0.030 C 
HETATM    3  C5  UNL     1      29.162   8.774  44.893  1.00  0.00     0.011 C 
HETATM    4  C6  UNL     1      28.412   8.209  46.019  1.00  0.00     0.072 C 
HETATM    5  C7  UNL     1      26.973   8.813  45.943  1.00  0.00     0.095 C 
HETATM    6  C8  UNL     1      26.807   8.551  44.528  1.00  0.00     0.227 C 
HETATM    7  O1  UNL     1      25.998   8.113  43.656  1.00  0.00    -0.273 OA
HETATM    8  N2  UNL     1      28.089   8.976  43.988  1.00  0.00    -0.331 N 
HETATM    9  C9  UNL     1      26.322   7.920  46.913  1.00  0.00     0.009 A 
HETATM   10  C10 UNL     1      26.910   8.198  48.111  1.00  0.00     0.006 A 
HETATM   11  C11 UNL     1      27.186   9.410  48.967  1.00  0.00     0.022 C 
HETATM   12  C12 UNL     1      27.212   6.847  48.318  1.00  0.00    -0.036 A 
HETATM   13  C13 UNL     1      28.052   5.902  48.542  1.00  0.00     0.013 C 
HETATM   14  N3  UNL     1      29.441   6.294  48.659  1.00  0.00    -0.359 N 
HETATM   15  C16 UNL     1      30.546   6.153  47.735  1.00  0.00     0.041 A 
HETATM   16  C17 UNL     1      30.926   4.829  47.846  1.00  0.00     0.030 A 
HETATM   17  C18 UNL     1      31.963   4.218  47.120  1.00  0.00     0.002 A 
HETATM   18  C19 UNL     1      32.661   5.005  46.222  1.00  0.00     0.001 A 
HETATM   19  C20 UNL     1      32.244   6.326  46.148  1.00  0.00     0.012 A 
HETATM   20  C21 UNL     1      31.216   6.984  46.851  1.00  0.00    -0.003 A 
HETATM   21  C22 UNL     1      25.813   7.120  48.032  1.00  0.00     0.090 A 
HETATM   22  H10 UNL     1      28.452   9.408  43.074  1.00  0.00     0.168 HD
HETATM   23  H19 UNL     1      29.812   6.771  49.529  1.00  0.00     0.166 HD
ENDROOT
BRANCH  21  24
HETATM   24  C23 UNL     1      25.159   7.936  49.060  1.00  0.00     0.127 A 
HETATM   25  O2  UNL     1      24.060   7.448  49.516  1.00  0.00    -0.193 OA
HETATM   26  O3  UNL     1      24.455   8.637  50.046  1.00  0.00     0.000 OA
HETATM   27  H25 UNL     1      24.922   9.363  50.603  1.00  0.00     0.000 HD
ENDBRANCH  21  24
BRANCH  13  28
HETATM   28  C14 UNL     1      27.406   4.540  48.630  1.00  0.00     0.053 C 
HETATM   29  C15 UNL     1      26.497   4.405  49.813  1.00  0.00     0.011 C 
ENDBRANCH  13  28
BRANCH   1  30
HETATM   30  N1  UNL     1      30.713   9.210  47.700  1.00  0.00    -0.292 NA
HETATM   31  C2  UNL     1      30.925  10.444  47.804  1.00  0.00     0.080 C 
HETATM   32  C1  UNL     1      30.524  11.210  49.041  1.00  0.00     0.057 C 
ENDBRANCH   1  30
TORSDOF 3
ENDMDL
MODEL 3
REMARK VINA RESULT:      -7.5      6.862     10.289
REMARK  3 active torsions:
REMARK  status: ('A' for Active; 'I' for Inactive)
REMARK    1  A    between atoms: N1_3  and  C3_4 
REMARK    2  A    between atoms: C13_16  and  C14_17 
REMARK    3  A    between atoms: C22_26  and  C23_27 
ROOT
HETATM    1  C3  UNL     1      23.824   8.088  47.561  1.00  0.00     0.167 C 
HETATM    2  C4  UNL     1      23.095   7.642  46.381  1.00  0.00     0.030 C 
HETATM    3  C5  UNL     1      22.609   6.470  46.013  1.00  0.00     0.011 C 
HETATM    4  C6  UNL     1      22.954   5.557  47.107  1.00  0.00     0.072 C 
HETATM    5  C7  UNL     1      21.851   4.451  47.128  1.00  0.00     0.095 C 
HETATM    6  C8  UNL     1      21.898   4.205  45.702  1.00  0.00     0.227 C 
HETATM    7  O1  UNL     1      21.918   3.296  44.819  1.00  0.00    -0.273 OA
HETATM    8  N2  UNL     1      21.936   5.556  45.162  1.00  0.00    -0.331 N 
HETATM    9  C9  UNL     1      22.521   3.507  48.035  1.00  0.00     0.009 A 
HETATM   10  C10 UNL     1      22.597   4.151  49.235  1.00  0.00     0.006 A 
HETATM   11  C11 UNL     1      21.663   4.857  50.185  1.00  0.00     0.022 C 
HETATM   12  C12 UNL     1      23.976   3.922  49.311  1.00  0.00    -0.036 A 
HETATM   13  C13 UNL     1      25.183   4.345  49.426  1.00  0.00     0.013 C 
HETATM   14  N3  UNL     1      25.352   5.778  49.535  1.00  0.00    -0.359 N 
HETATM   15  C16 UNL     1      25.810   6.754  48.568  1.00  0.00     0.041 A 
HETATM   16  C17 UNL     1      27.185   6.609  48.550  1.00  0.00     0.030 A 
HETATM   17  C18 UNL     1      28.068   7.343  47.741  1.00  0.00     0.002 A 
HETATM   18  C19 UNL     1      27.520   8.290  46.896  1.00  0.00     0.001 A 
HETATM   19  C20 UNL     1      26.138   8.400  46.952  1.00  0.00     0.012 A 
HETATM   20  C21 UNL     1      25.212   7.692  47.741  1.00  0.00    -0.003 A 
HETATM   21  C22 UNL     1      23.174   2.729  49.094  1.00  0.00     0.090 A 
HETATM   22  H10 UNL     1      21.588   6.059  44.280  1.00  0.00     0.168 HD
HETATM   23  H19 UNL     1      25.132   6.297  50.432  1.00  0.00     0.166 HD
ENDROOT
BRANCH  21  24
HETATM   24  C23 UNL     1      22.272   2.425  50.209  1.00  0.00     0.127 A 
HETATM   25  O2  UNL     1      22.327   1.211  50.630  1.00  0.00    -0.193 OA
HETATM   26  O3  UNL     1      21.451   2.030  51.273  1.00  0.00     0.000 OA
HETATM   27  H25 UNL     1      21.029   2.731  51.893  1.00  0.00     0.000 HD
ENDBRANCH  21  24
BRANCH  13  28
HETATM   28  C14 UNL     1      26.206   3.234  49.413  1.00  0.00     0.053 C 
HETATM   29  C15 UNL     1      26.482   2.684  50.778  1.00  0.00     0.011 C 
ENDBRANCH  13  28
BRANCH   1  30
HETATM   30  N1  UNL     1      23.049   8.057  48.798  1.00  0.00    -0.292 NA
HETATM   31  C2  UNL     1      21.900   8.545  48.938  1.00  0.00     0.080 C 
HETATM   32  C1  UNL     1      21.167   8.470  50.255  1.00  0.00     0.057 C 
ENDBRANCH   1  30
TORSDOF 3
ENDMDL
MODEL 4
REMARK VINA RESULT:      -7.4      5.265      8.414
REMARK  3 active torsions:
REMARK  status: ('A' for Active; 'I' for Inactive)
REMARK    1  A    between atoms: N1_3  and  C3_4 
REMARK    2  A    between atoms: C13_16  and  C14_17 
REMARK    3  A    between atoms: C22_26  and  C23_27 
ROOT
HETATM    1  C3  UNL     1      28.962   7.285  48.040  1.00  0.00     0.167 C 
HETATM    2  C4  UNL     1      29.089   7.412  46.595  1.00  0.00     0.030 C 
HETATM    3  C5  UNL     1      28.435   8.122  45.692  1.00  0.00     0.011 C 
HETATM    4  C6  UNL     1      27.427   8.864  46.454  1.00  0.00     0.072 C 
HETATM    5  C7  UNL     1      27.159  10.186  45.666  1.00  0.00     0.095 C 
HETATM    6  C8  UNL     1      27.016   9.534  44.380  1.00  0.00     0.227 C 
HETATM    7  O1  UNL     1      26.317   9.493  43.324  1.00  0.00    -0.273 OA
HETATM    8  N2  UNL     1      28.129   8.596  44.391  1.00  0.00    -0.331 N 
HETATM    9  C9  UNL     1      25.948  10.613  46.384  1.00  0.00     0.009 A 
HETATM   10  C10 UNL     1      26.357  10.873  47.658  1.00  0.00     0.006 A 
HETATM   11  C11 UNL     1      27.415  11.702  48.345  1.00  0.00     0.022 C 
HETATM   12  C12 UNL     1      25.373  10.030  48.186  1.00  0.00    -0.036 A 
HETATM   13  C13 UNL     1      25.016   9.024  48.898  1.00  0.00     0.013 C 
HETATM   14  N3  UNL     1      26.081   8.286  49.544  1.00  0.00    -0.359 N 
HETATM   15  C16 UNL     1      26.671   7.003  49.227  1.00  0.00     0.041 A 
HETATM   16  C17 UNL     1      25.762   6.074  49.699  1.00  0.00     0.030 A 
HETATM   17  C18 UNL     1      25.901   4.679  49.601  1.00  0.00     0.002 A 
HETATM   18  C19 UNL     1      27.040   4.194  48.984  1.00  0.00     0.001 A 
HETATM   19  C20 UNL     1      27.922   5.164  48.529  1.00  0.00     0.012 A 
HETATM   20  C21 UNL     1      27.830   6.567  48.602  1.00  0.00    -0.003 A 
HETATM   21  C22 UNL     1      24.875  11.054  47.282  1.00  0.00     0.090 A 
HETATM   22  H10 UNL     1      28.792   8.157  43.670  1.00  0.00     0.168 HD
HETATM   23  H19 UNL     1      26.576   8.661  50.401  1.00  0.00     0.166 HD
ENDROOT
BRANCH  21  24
HETATM   24  C23 UNL     1      25.079  12.418  47.780  1.00  0.00     0.127 A 
HETATM   25  O2  UNL     1      23.998  13.090  47.965  1.00  0.00    -0.193 OA
HETATM   26  O3  UNL     1      25.162  13.732  48.256  1.00  0.00     0.000 OA
HETATM   27  H25 UNL     1      26.017  14.065  48.718  1.00  0.00     0.000 HD
ENDBRANCH  21  24
BRANCH  13  28
HETATM   28  C14 UNL     1      23.521   8.803  48.911  1.00  0.00     0.053 C 
HETATM   29  C15 UNL     1      23.068   7.853  47.845  1.00  0.00     0.011 C 
ENDBRANCH  13  28
BRANCH   1  30
HETATM   30  N1  UNL     1      29.309   8.492  48.786  1.00  0.00    -0.292 NA
HETATM   31  C2  UNL     1      30.412   9.089  48.712  1.00  0.00     0.080 C 
HETATM   32  C1  UNL     1      30.689  10.333  49.520  1.00  0.00     0.057 C 
ENDBRANCH   1  30
TORSDOF 3
ENDMDL
MODEL 5
REMARK VINA RESULT:      -7.3      1.802      4.238
REMARK  3 active torsions:
REMARK  status: ('A' for Active; 'I' for Inactive)
REMARK    1  A    between atoms: N1_3  and  C3_4 
REMARK    2  A    between atoms: C13_16  and  C14_17 
REMARK    3  A    between atoms: C22_26  and  C23_27 
ROOT
HETATM    1  C3  UNL     1      33.411   8.943  47.728  1.00  0.00     0.167 C 
HETATM    2  C4  UNL     1      32.080   8.948  48.319  1.00  0.00     0.030 C 
HETATM    3  C5  UNL     1      31.119   8.043  48.383  1.00  0.00     0.011 C 
HETATM    4  C6  UNL     1      31.655   6.874  47.678  1.00  0.00     0.072 C 
HETATM    5  C7  UNL     1      30.979   5.620  48.320  1.00  0.00     0.095 C 
HETATM    6  C8  UNL     1      29.638   6.165  48.270  1.00  0.00     0.227 C 
HETATM    7  O1  UNL     1      28.434   5.897  47.982  1.00  0.00    -0.273 OA
HETATM    8  N2  UNL     1      29.847   7.527  48.739  1.00  0.00    -0.331 N 
HETATM    9  C9  UNL     1      31.382   4.629  47.311  1.00  0.00     0.009 A 
HETATM   10  C10 UNL     1      32.741   4.556  47.399  1.00  0.00     0.006 A 
HETATM   11  C11 UNL     1      33.781   4.326  48.467  1.00  0.00     0.022 C 
HETATM   12  C12 UNL     1      32.878   4.789  46.026  1.00  0.00    -0.036 A 
HETATM   13  C13 UNL     1      33.347   5.464  45.040  1.00  0.00     0.013 C 
HETATM   14  N3  UNL     1      34.171   6.605  45.378  1.00  0.00    -0.359 N 
HETATM   15  C16 UNL     1      33.884   8.023  45.347  1.00  0.00     0.041 A 
HETATM   16  C17 UNL     1      33.980   8.370  44.012  1.00  0.00     0.030 A 
HETATM   17  C18 UNL     1      33.766   9.656  43.490  1.00  0.00     0.002 A 
HETATM   18  C19 UNL     1      33.434  10.659  44.382  1.00  0.00     0.001 A 
HETATM   19  C20 UNL     1      33.352  10.263  45.710  1.00  0.00     0.012 A 
HETATM   20  C21 UNL     1      33.556   8.993  46.282  1.00  0.00    -0.003 A 
HETATM   21  C22 UNL     1      31.995   3.686  46.369  1.00  0.00     0.090 A 
HETATM   22  H10 UNL     1      29.290   8.261  49.290  1.00  0.00     0.168 HD
HETATM   23  H19 UNL     1      35.168   6.489  45.715  1.00  0.00     0.166 HD
ENDROOT
BRANCH  21  24
HETATM   24  C23 UNL     1      32.682   2.580  47.043  1.00  0.00     0.127 A 
HETATM   25  O2  UNL     1      32.266   1.408  46.714  1.00  0.00    -0.193 OA
HETATM   26  O3  UNL     1      33.273   1.453  47.628  1.00  0.00     0.000 OA
HETATM   27  H25 UNL     1      34.192   1.523  48.081  1.00  0.00     0.000 HD
ENDBRANCH  21  24
BRANCH  13  28
HETATM   28  C14 UNL     1      32.924   4.924  43.694  1.00  0.00     0.053 C 
HETATM   29  C15 UNL     1      34.083   4.687  42.775  1.00  0.00     0.011 C 
ENDBRANCH  13  28
BRANCH   1  30
HETATM   30  N1  UNL     1      34.356   8.034  48.372  1.00  0.00    -0.292 NA
HETATM   31  C2  UNL     1      35.606   8.122  48.290  1.00  0.00     0.080 C 
HETATM   32  C1  UNL     1      36.512   7.138  48.989  1.00  0.00     0.057 C 
ENDBRANCH   1  30
TORSDOF 3
ENDMDL
MODEL 6
REMARK VINA RESULT:      -6.9     16.474     20.013
REMARK  3 active torsions:
REMARK  status: ('A' for Active; 'I' for Inactive)
REMARK    1  A    between atoms: N1_3  and  C3_4 
REMARK    2  A    between atoms: C13_16  and  C14_17 
REMARK    3  A    between atoms: C22_26  and  C23_27 
ROOT
HETATM    1  C3  UNL     1      16.836   0.877  51.300  1.00  0.00     0.167 C 
HETATM    2  C4  UNL     1      16.732   0.674  49.861  1.00  0.00     0.030 C 
HETATM    3  C5  UNL     1      16.255  -0.313  49.123  1.00  0.00     0.011 C 
HETATM    4  C6  UNL     1      15.782  -1.311  50.087  1.00  0.00     0.072 C 
HETATM    5  C7  UNL     1      14.609  -2.076  49.395  1.00  0.00     0.095 C 
HETATM    6  C8  UNL     1      15.320  -2.291  48.152  1.00  0.00     0.227 C 
HETATM    7  O1  UNL     1      15.585  -3.150  47.259  1.00  0.00    -0.273 OA
HETATM    8  N2  UNL     1      15.926  -0.989  47.920  1.00  0.00    -0.331 N 
HETATM    9  C9  UNL     1      14.495  -3.188  50.351  1.00  0.00     0.009 A 
HETATM   10  C10 UNL     1      14.090  -2.618  51.522  1.00  0.00     0.006 A 
HETATM   11  C11 UNL     1      12.985  -1.708  51.998  1.00  0.00     0.022 C 
HETATM   12  C12 UNL     1      15.146  -3.214  52.220  1.00  0.00    -0.036 A 
HETATM   13  C13 UNL     1      16.185  -3.138  52.970  1.00  0.00     0.013 C 
HETATM   14  N3  UNL     1      16.588  -1.808  53.373  1.00  0.00    -0.359 N 
HETATM   15  C16 UNL     1      17.678  -0.970  52.918  1.00  0.00     0.041 A 
HETATM   16  C17 UNL     1      18.798  -1.482  53.546  1.00  0.00     0.030 A 
HETATM   17  C18 UNL     1      20.107  -0.996  53.395  1.00  0.00     0.002 A 
HETATM   18  C19 UNL     1      20.292   0.084  52.552  1.00  0.00     0.001 A 
HETATM   19  C20 UNL     1      19.139   0.564  51.947  1.00  0.00     0.012 A 
HETATM   20  C21 UNL     1      17.810   0.115  52.065  1.00  0.00    -0.003 A 
HETATM   21  C22 UNL     1      14.325  -4.139  51.455  1.00  0.00     0.090 A 
HETATM   22  H10 UNL     1      16.198  -0.390  47.072  1.00  0.00     0.168 HD
HETATM   23  H19 UNL     1      16.063  -1.270  54.120  1.00  0.00     0.166 HD
ENDROOT
BRANCH  21  24
HETATM   24  C23 UNL     1      12.939  -4.214  51.929  1.00  0.00     0.127 A 
HETATM   25  O2  UNL     1      12.512  -5.405  52.154  1.00  0.00    -0.193 OA
HETATM   26  O3  UNL     1      11.629  -4.397  52.386  1.00  0.00     0.000 OA
HETATM   27  H25 UNL     1      11.110  -3.616  52.806  1.00  0.00     0.000 HD
ENDBRANCH  21  24
BRANCH  13  28
HETATM   28  C14 UNL     1      16.796  -4.485  53.279  1.00  0.00     0.053 C 
HETATM   29  C15 UNL     1      16.041  -5.235  54.333  1.00  0.00     0.011 C 
ENDBRANCH  13  28
BRANCH   1  30
HETATM   30  N1  UNL     1      15.554   1.028  51.984  1.00  0.00    -0.292 NA
HETATM   31  C2  UNL     1      14.992   2.127  52.221  1.00  0.00     0.080 C 
HETATM   32  C1  UNL     1      13.665   2.194  52.935  1.00  0.00     0.057 C 
ENDBRANCH   1  30
TORSDOF 3
ENDMDL
MODEL 7
REMARK VINA RESULT:      -6.9      3.050      5.833
REMARK  3 active torsions:
REMARK  status: ('A' for Active; 'I' for Inactive)
REMARK    1  A    between atoms: N1_3  and  C3_4 
REMARK    2  A    between atoms: C13_16  and  C14_17 
REMARK    3  A    between atoms: C22_26  and  C23_27 
ROOT
HETATM    1  C3  UNL     1      27.815   8.963  46.324  1.00  0.00     0.167 C 
HETATM    2  C4  UNL     1      27.759  10.249  47.005  1.00  0.00     0.030 C 
HETATM    3  C5  UNL     1      28.668  10.980  47.628  1.00  0.00     0.011 C 
HETATM    4  C6  UNL     1      29.909  10.207  47.522  1.00  0.00     0.072 C 
HETATM    5  C7  UNL     1      31.079  11.243  47.532  1.00  0.00     0.095 C 
HETATM    6  C8  UNL     1      30.574  11.985  48.669  1.00  0.00     0.227 C 
HETATM    7  O1  UNL     1      30.904  12.534  49.762  1.00  0.00    -0.273 OA
HETATM    8  N2  UNL     1      29.157  12.095  48.354  1.00  0.00    -0.331 N 
HETATM    9  C9  UNL     1      32.188  10.300  47.736  1.00  0.00     0.009 A 
HETATM   10  C10 UNL     1      32.220   9.531  46.610  1.00  0.00     0.006 A 
HETATM   11  C11 UNL     1      32.281   9.738  45.117  1.00  0.00     0.022 C 
HETATM   12  C12 UNL     1      32.172   8.355  47.367  1.00  0.00    -0.036 A 
HETATM   13  C13 UNL     1      31.626   7.234  47.673  1.00  0.00     0.013 C 
HETATM   14  N3  UNL     1      30.433   6.880  46.934  1.00  0.00    -0.359 N 
HETATM   15  C16 UNL     1      29.038   6.902  47.320  1.00  0.00     0.041 A 
HETATM   16  C17 UNL     1      28.873   5.771  48.098  1.00  0.00     0.030 A 
HETATM   17  C18 UNL     1      27.674   5.378  48.715  1.00  0.00     0.002 A 
HETATM   18  C19 UNL     1      26.567   6.185  48.529  1.00  0.00     0.001 A 
HETATM   19  C20 UNL     1      26.782   7.307  47.740  1.00  0.00     0.012 A 
HETATM   20  C21 UNL     1      27.958   7.743  47.102  1.00  0.00    -0.003 A 
HETATM   21  C22 UNL     1      33.237   9.273  47.738  1.00  0.00     0.090 A 
HETATM   22  H10 UNL     1      28.368  12.801  48.526  1.00  0.00     0.168 HD
HETATM   23  H19 UNL     1      30.481   6.534  45.934  1.00  0.00     0.166 HD
ENDROOT
BRANCH  21  24
HETATM   24  C23 UNL     1      34.227   9.474  46.675  1.00  0.00     0.127 A 
HETATM   25  O2  UNL     1      35.444   9.249  47.025  1.00  0.00    -0.193 OA
HETATM   26  O3  UNL     1      35.251   9.635  45.734  1.00  0.00     0.000 OA
HETATM   27  H25 UNL     1      35.038   9.649  44.729  1.00  0.00     0.000 HD
ENDBRANCH  21  24
BRANCH  13  28
HETATM   28  C14 UNL     1      32.353   6.499  48.775  1.00  0.00     0.053 C 
HETATM   29  C15 UNL     1      33.451   5.621  48.259  1.00  0.00     0.011 C 
ENDBRANCH  13  28
BRANCH   1  30
HETATM   30  N1  UNL     1      28.608   8.963  45.097  1.00  0.00    -0.292 NA
HETATM   31  C2  UNL     1      28.519   9.821  44.184  1.00  0.00     0.080 C 
HETATM   32  C1  UNL     1      29.378   9.746  42.946  1.00  0.00     0.057 C 
ENDBRANCH   1  30
TORSDOF 3
ENDMDL
MODEL 8
REMARK VINA RESULT:      -6.9      3.097      5.608
REMARK  3 active torsions:
REMARK  status: ('A' for Active; 'I' for Inactive)
REMARK    1  A    between atoms: N1_3  and  C3_4 
REMARK    2  A    between atoms: C13_16  and  C14_17 
REMARK    3  A    between atoms: C22_26  and  C23_27 
ROOT
HETATM    1  C3  UNL     1      32.227   5.589  47.543  1.00  0.00     0.167 C 
HETATM    2  C4  UNL     1      32.572   4.675  46.463  1.00  0.00     0.030 C 
HETATM    3  C5  UNL     1      32.800   4.849  45.173  1.00  0.00     0.011 C 
HETATM    4  C6  UNL     1      32.634   6.289  44.952  1.00  0.00     0.072 C 
HETATM    5  C7  UNL     1      33.562   6.664  43.752  1.00  0.00     0.095 C 
HETATM    6  C8  UNL     1      33.124   5.568  42.913  1.00  0.00     0.227 C 
HETATM    7  O1  UNL     1      32.768   5.257  41.737  1.00  0.00    -0.273 OA
HETATM    8  N2  UNL     1      33.117   4.454  43.849  1.00  0.00    -0.331 N 
HETATM    9  C9  UNL     1      33.032   8.012  43.495  1.00  0.00     0.009 A 
HETATM   10  C10 UNL     1      33.343   8.740  44.606  1.00  0.00     0.006 A 
HETATM   11  C11 UNL     1      34.569   9.058  45.426  1.00  0.00     0.022 C 
HETATM   12  C12 UNL     1      32.012   9.144  44.759  1.00  0.00    -0.036 A 
HETATM   13  C13 UNL     1      30.935   9.235  45.452  1.00  0.00     0.013 C 
HETATM   14  N3  UNL     1      30.977   8.658  46.779  1.00  0.00    -0.359 N 
HETATM   15  C16 UNL     1      30.413   7.429  47.296  1.00  0.00     0.041 A 
HETATM   16  C17 UNL     1      29.072   7.710  47.477  1.00  0.00     0.030 A 
HETATM   17  C18 UNL     1      28.110   6.804  47.954  1.00  0.00     0.002 A 
HETATM   18  C19 UNL     1      28.538   5.527  48.269  1.00  0.00     0.001 A 
HETATM   19  C20 UNL     1      29.892   5.294  48.072  1.00  0.00     0.012 A 
HETATM   20  C21 UNL     1      30.893   6.164  47.600  1.00  0.00    -0.003 A 
HETATM   21  C22 UNL     1      32.579   9.407  43.446  1.00  0.00     0.090 A 
HETATM   22  H10 UNL     1      33.289   3.395  43.809  1.00  0.00     0.168 HD
HETATM   23  H19 UNL     1      31.480   9.139  47.578  1.00  0.00     0.166 HD
ENDROOT
BRANCH  21  24
HETATM   24  C23 UNL     1      33.690  10.363  43.474  1.00  0.00     0.127 A 
HETATM   25  O2  UNL     1      33.610  11.306  42.603  1.00  0.00    -0.193 OA
HETATM   26  O3  UNL     1      34.700  11.331  43.417  1.00  0.00     0.000 OA
HETATM   27  H25 UNL     1      35.335  11.469  44.213  1.00  0.00     0.000 HD
ENDBRANCH  21  24
BRANCH  13  28
HETATM   28  C14 UNL     1      29.813   9.933  44.721  1.00  0.00     0.053 C 
HETATM   29  C15 UNL     1      29.135  10.973  45.558  1.00  0.00     0.011 C 
ENDBRANCH  13  28
BRANCH   1  30
HETATM   30  N1  UNL     1      33.282   6.538  47.892  1.00  0.00    -0.292 NA
HETATM   31  C2  UNL     1      34.465   6.225  48.173  1.00  0.00     0.080 C 
HETATM   32  C1  UNL     1      35.494   7.271  48.523  1.00  0.00     0.057 C 
ENDBRANCH   1  30
TORSDOF 3
ENDMDL
MODEL 9
REMARK VINA RESULT:      -6.6      3.516      5.363
REMARK  3 active torsions:
REMARK  status: ('A' for Active; 'I' for Inactive)
REMARK    1  A    between atoms: N1_3  and  C3_4 
REMARK    2  A    between atoms: C13_16  and  C14_17 
REMARK    3  A    between atoms: C22_26  and  C23_27 
ROOT
HETATM    1  C3  UNL     1      33.052  10.366  46.183  1.00  0.00     0.167 C 
HETATM    2  C4  UNL     1      32.719  11.432  47.117  1.00  0.00     0.030 C 
HETATM    3  C5  UNL     1      31.652  11.683  47.856  1.00  0.00     0.011 C 
HETATM    4  C6  UNL     1      30.724  10.588  47.561  1.00  0.00     0.072 C 
HETATM    5  C7  UNL     1      29.853  10.387  48.843  1.00  0.00     0.095 C 
HETATM    6  C8  UNL     1      29.559  11.795  49.012  1.00  0.00     0.227 C 
HETATM    7  O1  UNL     1      28.637  12.626  49.268  1.00  0.00    -0.273 OA
HETATM    8  N2  UNL     1      30.861  12.405  48.784  1.00  0.00    -0.331 N 
HETATM    9  C9  UNL     1      28.825   9.512  48.259  1.00  0.00     0.009 A 
HETATM   10  C10 UNL     1      29.478   8.363  47.922  1.00  0.00     0.006 A 
HETATM   11  C11 UNL     1      30.380   7.353  48.588  1.00  0.00     0.022 C 
HETATM   12  C12 UNL     1      28.990   8.427  46.612  1.00  0.00    -0.036 A 
HETATM   13  C13 UNL     1      29.175   8.469  45.342  1.00  0.00     0.013 C 
HETATM   14  N3  UNL     1      30.551   8.454  44.894  1.00  0.00    -0.359 N 
HETATM   15  C16 UNL     1      31.391   9.515  44.378  1.00  0.00     0.041 A 
HETATM   16  C17 UNL     1      30.982   9.678  43.068  1.00  0.00     0.030 A 
HETATM   17  C18 UNL     1      31.507  10.616  42.164  1.00  0.00     0.002 A 
HETATM   18  C19 UNL     1      32.516  11.444  42.620  1.00  0.00     0.001 A 
HETATM   19  C20 UNL     1      32.893  11.242  43.941  1.00  0.00     0.012 A 
HETATM   20  C21 UNL     1      32.401  10.319  44.883  1.00  0.00    -0.003 A 
HETATM   21  C22 UNL     1      27.969   8.491  47.644  1.00  0.00     0.090 A 
HETATM   22  H10 UNL     1      31.394  13.269  49.134  1.00  0.00     0.168 HD
HETATM   23  H19 UNL     1      31.130   7.567  44.905  1.00  0.00     0.166 HD
ENDROOT
BRANCH  21  24
HETATM   24  C23 UNL     1      27.878   7.269  48.449  1.00  0.00     0.127 A 
HETATM   25  O2  UNL     1      26.685   6.813  48.603  1.00  0.00    -0.193 OA
HETATM   26  O3  UNL     1      27.681   6.104  49.200  1.00  0.00     0.000 OA
HETATM   27  H25 UNL     1      28.464   5.465  49.386  1.00  0.00     0.000 HD
ENDBRANCH  21  24
BRANCH  13  28
HETATM   28  C14 UNL     1      27.887   8.536  44.555  1.00  0.00     0.053 C 
HETATM   29  C15 UNL     1      27.473   9.941  44.244  1.00  0.00     0.011 C 
ENDBRANCH  13  28
BRANCH   1  30
HETATM   30  N1  UNL     1      33.209   9.050  46.798  1.00  0.00    -0.292 NA
HETATM   31  C2  UNL     1      34.058   8.767  47.680  1.00  0.00     0.080 C 
HETATM   32  C1  UNL     1      34.153   7.379  48.263  1.00  0.00     0.057 C 
ENDBRANCH   1  30
TORSDOF 3
ENDMDL
