MODEL 1
REMARK VINA RESULT:      -9.7      0.000      0.000
REMARK  5 active torsions:
REMARK  status: ('A' for Active; 'I' for Inactive)
REMARK    1  A    between atoms: N1_5  and  C5_6 
REMARK    2  A    between atoms: C12_14  and  C13_15 
REMARK    3  A    between atoms: C13_15  and  C14_16 
REMARK    4  A    between atoms: C24_26  and  N3_27 
REMARK    5  A    between atoms: N3_27  and  O1_28 
ROOT
HETATM    1  C5  UNL     1      22.694   2.834  50.069  1.00  0.00     0.206 C 
HETATM    2  C6  UNL     1      23.016   3.441  48.775  1.00  0.00     0.068 C 
HETATM    3  C7  UNL     1      23.654   4.729  48.566  1.00  0.00     0.125 C 
HETATM    4  N2  UNL     1      24.792   5.181  49.320  1.00  0.00    -0.383 N 
HETATM    5  C8  UNL     1      26.166   4.948  48.881  1.00  0.00     0.086 C 
HETATM    6  C9  UNL     1      27.066   4.016  49.245  1.00  0.00     0.028 C 
HETATM    7  C10 UNL     1      26.366   3.221  50.240  1.00  0.00    -0.034 A 
HETATM    8  C11 UNL     1      26.738   2.656  51.444  1.00  0.00     0.019 A 
HETATM    9  C12 UNL     1      25.784   2.072  52.284  1.00  0.00    -0.052 A 
HETATM   10  C20 UNL     1      24.436   2.006  52.009  1.00  0.00     0.017 A 
HETATM   11  C21 UNL     1      23.905   2.512  50.869  1.00  0.00    -0.017 A 
HETATM   12  C22 UNL     1      25.019   2.993  50.266  1.00  0.00     0.021 A 
HETATM   13  C23 UNL     1      24.868   5.790  50.620  1.00  0.00     0.202 C 
HETATM   14  C24 UNL     1      24.189   7.154  50.588  1.00  0.00     0.142 C 
HETATM   15  N4  UNL     1      23.041   7.141  51.226  1.00  0.00    -0.226 NA
HETATM   16  C25 UNL     1      22.672   5.868  51.807  1.00  0.00     0.228 C 
HETATM   17  N5  UNL     1      22.285   5.091  50.906  1.00  0.00    -0.280 NA
HETATM   18  C26 UNL     1      21.818   3.762  50.879  1.00  0.00     0.197 C 
ENDROOT
BRANCH   9  19
HETATM   19  C13 UNL     1      26.224   1.471  53.578  1.00  0.00     0.077 C 
BRANCH  19  20
HETATM   20  C14 UNL     1      26.884   0.188  53.300  1.00  0.00    -0.054 A 
HETATM   21  C15 UNL     1      28.218   0.168  53.690  1.00  0.00     0.007 A 
HETATM   22  C16 UNL     1      29.035  -0.954  53.519  1.00  0.00     0.001 A 
HETATM   23  C17 UNL     1      28.444  -2.069  52.930  1.00  0.00     0.000 A 
HETATM   24  C18 UNL     1      27.120  -2.050  52.542  1.00  0.00     0.001 A 
HETATM   25  C19 UNL     1      26.321  -0.924  52.720  1.00  0.00     0.007 A 
ENDBRANCH  19  20
ENDBRANCH   9  19
BRANCH   1  26
HETATM   26  N1  UNL     1      22.012   1.555  50.008  1.00  0.00     0.108 N 
HETATM   27  C2  UNL     1      20.953   1.293  50.910  1.00  0.00     0.222 C 
HETATM   28  C1  UNL     1      21.334   0.146  51.857  1.00  0.00     0.043 C 
HETATM   29  C3  UNL     1      20.183   0.706  49.716  1.00  0.00     0.066 C 
HETATM   30  C4  UNL     1      21.312   1.227  48.815  1.00  0.00     0.276 C 
ENDBRANCH   1  26
BRANCH  14  31
HETATM   31  N3  UNL     1      24.687   8.313  49.939  1.00  0.00    -0.254 N 
HETATM   32  H27 UNL     1      24.159   8.508  49.048  1.00  0.00     0.195 HD
BRANCH  31  33
HETATM   33  O1  UNL     1      25.724   8.948  50.559  1.00  0.00    -0.288 OA
HETATM   34  H28 UNL     1      25.477   9.151  51.495  1.00  0.00     0.244 HD
ENDBRANCH  31  33
ENDBRANCH  14  31
TORSDOF 5
ENDMDL
MODEL 2
REMARK VINA RESULT:      -9.2      2.429      5.200
REMARK  5 active torsions:
REMARK  status: ('A' for Active; 'I' for Inactive)
REMARK    1  A    between atoms: N1_5  and  C5_6 
REMARK    2  A    between atoms: C12_14  and  C13_15 
REMARK    3  A    between atoms: C13_15  and  C14_16 
REMARK    4  A    between atoms: C24_26  and  N3_27 
REMARK    5  A    between atoms: N3_27  and  O1_28 
ROOT
HETATM    1  C5  UNL     1      23.475   4.389  50.492  1.00  0.00     0.206 C 
HETATM    2  C6  UNL     1      22.204   4.707  51.148  1.00  0.00     0.068 C 
HETATM    3  C7  UNL     1      21.002   3.891  51.133  1.00  0.00     0.125 C 
HETATM    4  N2  UNL     1      21.010   2.467  51.327  1.00  0.00    -0.383 N 
HETATM    5  C8  UNL     1      20.852   1.854  52.645  1.00  0.00     0.086 C 
HETATM    6  C9  UNL     1      21.760   1.360  53.506  1.00  0.00     0.028 C 
HETATM    7  C10 UNL     1      23.031   1.559  52.828  1.00  0.00    -0.034 A 
HETATM    8  C11 UNL     1      24.171   0.791  52.695  1.00  0.00     0.019 A 
HETATM    9  C12 UNL     1      25.197   1.180  51.826  1.00  0.00    -0.052 A 
HETATM   10  C20 UNL     1      25.173   2.318  51.050  1.00  0.00     0.017 A 
HETATM   11  C21 UNL     1      24.128   3.181  51.062  1.00  0.00    -0.017 A 
HETATM   12  C22 UNL     1      23.316   2.577  51.963  1.00  0.00     0.021 A 
HETATM   13  C23 UNL     1      21.278   1.400  50.401  1.00  0.00     0.202 C 
HETATM   14  C24 UNL     1      20.202   1.374  49.322  1.00  0.00     0.142 C 
HETATM   15  N4  UNL     1      20.661   1.803  48.168  1.00  0.00    -0.226 NA
HETATM   16  C25 UNL     1      22.053   2.200  48.166  1.00  0.00     0.228 C 
HETATM   17  N5  UNL     1      22.174   3.310  48.731  1.00  0.00    -0.280 NA
HETATM   18  C26 UNL     1      23.259   4.163  49.013  1.00  0.00     0.197 C 
ENDROOT
BRANCH   9  19
HETATM   19  C13 UNL     1      26.414   0.325  51.708  1.00  0.00     0.077 C 
BRANCH  19  20
HETATM   20  C14 UNL     1      27.426   0.815  52.653  1.00  0.00    -0.054 A 
HETATM   21  C15 UNL     1      28.060  -0.208  53.349  1.00  0.00     0.007 A 
HETATM   22  C16 UNL     1      29.058   0.033  54.299  1.00  0.00     0.001 A 
HETATM   23  C17 UNL     1      29.394   1.367  54.521  1.00  0.00     0.000 A 
HETATM   24  C18 UNL     1      28.765   2.383  53.831  1.00  0.00     0.001 A 
HETATM   25  C19 UNL     1      27.774   2.124  52.889  1.00  0.00     0.007 A 
ENDBRANCH  19  20
ENDBRANCH   9  19
BRANCH   1  26
HETATM   26  N1  UNL     1      24.514   5.394  50.619  1.00  0.00     0.108 N 
HETATM   27  C2  UNL     1      24.976   6.059  49.458  1.00  0.00     0.222 C 
HETATM   28  C1  UNL     1      26.450   5.713  49.199  1.00  0.00     0.043 C 
HETATM   29  C3  UNL     1      24.915   7.361  50.274  1.00  0.00     0.066 C 
HETATM   30  C4  UNL     1      24.229   6.556  51.386  1.00  0.00     0.276 C 
ENDBRANCH   1  26
BRANCH  14  31
HETATM   31  N3  UNL     1      18.855   0.970  49.505  1.00  0.00    -0.254 N 
HETATM   32  H27 UNL     1      18.792   0.124  50.130  1.00  0.00     0.195 HD
BRANCH  31  33
HETATM   33  O1  UNL     1      17.912   1.719  48.862  1.00  0.00    -0.288 OA
HETATM   34  H28 UNL     1      18.252   2.638  48.730  1.00  0.00     0.244 HD
ENDBRANCH  31  33
ENDBRANCH  14  31
TORSDOF 5
ENDMDL
MODEL 3
REMARK VINA RESULT:      -8.2      2.566      5.235
REMARK  5 active torsions:
REMARK  status: ('A' for Active; 'I' for Inactive)
REMARK    1  A    between atoms: N1_5  and  C5_6 
REMARK    2  A    between atoms: C12_14  and  C13_15 
REMARK    3  A    between atoms: C13_15  and  C14_16 
REMARK    4  A    between atoms: C24_26  and  N3_27 
REMARK    5  A    between atoms: N3_27  and  O1_28 
ROOT
HETATM    1  C5  UNL     1      25.087   6.984  49.508  1.00  0.00     0.206 C 
HETATM    2  C6  UNL     1      24.100   7.730  50.293  1.00  0.00     0.068 C 
HETATM    3  C7  UNL     1      22.678   7.445  50.379  1.00  0.00     0.125 C 
HETATM    4  N2  UNL     1      22.145   6.120  50.542  1.00  0.00    -0.383 N 
HETATM    5  C8  UNL     1      21.871   5.540  51.855  1.00  0.00     0.086 C 
HETATM    6  C9  UNL     1      22.582   4.684  52.611  1.00  0.00     0.028 C 
HETATM    7  C10 UNL     1      23.769   4.415  51.815  1.00  0.00    -0.034 A 
HETATM    8  C11 UNL     1      24.503   3.275  51.552  1.00  0.00     0.019 A 
HETATM    9  C12 UNL     1      25.523   3.287  50.595  1.00  0.00    -0.052 A 
HETATM   10  C20 UNL     1      25.881   4.388  49.849  1.00  0.00     0.017 A 
HETATM   11  C21 UNL     1      25.261   5.586  49.984  1.00  0.00    -0.017 A 
HETATM   12  C22 UNL     1      24.355   5.293  50.947  1.00  0.00     0.021 A 
HETATM   13  C23 UNL     1      21.898   5.088  49.571  1.00  0.00     0.202 C 
HETATM   14  C24 UNL     1      20.812   5.543  48.604  1.00  0.00     0.142 C 
HETATM   15  N4  UNL     1      21.304   5.828  47.420  1.00  0.00    -0.226 NA
HETATM   16  C25 UNL     1      22.735   5.656  47.288  1.00  0.00     0.228 C 
HETATM   17  N5  UNL     1      23.326   6.597  47.861  1.00  0.00    -0.280 NA
HETATM   18  C26 UNL     1      24.677   6.946  48.053  1.00  0.00     0.197 C 
ENDROOT
BRANCH   9  19
HETATM   19  C13 UNL     1      26.295   2.036  50.338  1.00  0.00     0.077 C 
BRANCH  19  20
HETATM   20  C14 UNL     1      26.700   1.461  51.628  1.00  0.00    -0.054 A 
HETATM   21  C15 UNL     1      27.524   2.305  52.364  1.00  0.00     0.007 A 
HETATM   22  C16 UNL     1      28.027   1.957  53.622  1.00  0.00     0.001 A 
HETATM   23  C17 UNL     1      27.658   0.706  54.114  1.00  0.00     0.000 A 
HETATM   24  C18 UNL     1      26.840  -0.131  53.384  1.00  0.00     0.001 A 
HETATM   25  C19 UNL     1      26.350   0.232  52.133  1.00  0.00     0.007 A 
ENDBRANCH  19  20
ENDBRANCH   9  19
BRANCH   1  26
HETATM   26  N1  UNL     1      26.442   7.500  49.552  1.00  0.00     0.108 N 
HETATM   27  C2  UNL     1      27.140   7.713  48.338  1.00  0.00     0.222 C 
HETATM   28  C1  UNL     1      28.350   6.771  48.250  1.00  0.00     0.043 C 
HETATM   29  C3  UNL     1      27.605   9.053  48.932  1.00  0.00     0.066 C 
HETATM   30  C4  UNL     1      26.646   8.794  50.102  1.00  0.00     0.276 C 
ENDBRANCH   1  26
BRANCH  14  31
HETATM   31  N3  UNL     1      19.433   5.682  48.910  1.00  0.00    -0.254 N 
HETATM   32  H27 UNL     1      18.903   4.799  48.687  1.00  0.00     0.195 HD
BRANCH  31  33
HETATM   33  O1  UNL     1      19.051   6.888  49.421  1.00  0.00    -0.288 OA
HETATM   34  H28 UNL     1      18.251   6.769  49.990  1.00  0.00     0.244 HD
ENDBRANCH  31  33
ENDBRANCH  14  31
TORSDOF 5
ENDMDL
MODEL 4
REMARK VINA RESULT:      -8.1      3.538      5.806
REMARK  5 active torsions:
REMARK  status: ('A' for Active; 'I' for Inactive)
REMARK    1  A    between atoms: N1_5  and  C5_6 
REMARK    2  A    between atoms: C12_14  and  C13_15 
REMARK    3  A    between atoms: C13_15  and  C14_16 
REMARK    4  A    between atoms: C24_26  and  N3_27 
REMARK    5  A    between atoms: N3_27  and  O1_28 
ROOT
HETATM    1  C5  UNL     1      21.825   1.419  52.004  1.00  0.00     0.206 C 
HETATM    2  C6  UNL     1      21.305   0.462  51.025  1.00  0.00     0.068 C 
HETATM    3  C7  UNL     1      20.349   0.747  49.969  1.00  0.00     0.125 C 
HETATM    4  N2  UNL     1      20.419   1.914  49.133  1.00  0.00    -0.383 N 
HETATM    5  C8  UNL     1      21.132   1.924  47.857  1.00  0.00     0.086 C 
HETATM    6  C9  UNL     1      22.358   2.370  47.532  1.00  0.00     0.028 C 
HETATM    7  C10 UNL     1      22.888   2.888  48.783  1.00  0.00    -0.034 A 
HETATM    8  C11 UNL     1      23.629   4.004  49.116  1.00  0.00     0.019 A 
HETATM    9  C12 UNL     1      23.856   4.337  50.456  1.00  0.00    -0.052 A 
HETATM   10  C20 UNL     1      23.383   3.618  51.531  1.00  0.00     0.017 A 
HETATM   11  C21 UNL     1      22.638   2.495  51.379  1.00  0.00    -0.017 A 
HETATM   12  C22 UNL     1      22.583   2.412  50.028  1.00  0.00     0.021 A 
HETATM   13  C23 UNL     1      19.971   3.260  49.370  1.00  0.00     0.202 C 
HETATM   14  C24 UNL     1      18.452   3.282  49.491  1.00  0.00     0.142 C 
HETATM   15  N4  UNL     1      18.066   3.481  50.730  1.00  0.00    -0.226 NA
HETATM   16  C25 UNL     1      19.135   3.630  51.694  1.00  0.00     0.228 C 
HETATM   17  N5  UNL     1      19.644   2.513  51.934  1.00  0.00    -0.280 NA
HETATM   18  C26 UNL     1      20.687   2.060  52.765  1.00  0.00     0.197 C 
ENDROOT
BRANCH   9  19
HETATM   19  C13 UNL     1      24.663   5.551  50.778  1.00  0.00     0.077 C 
BRANCH  19  20
HETATM   20  C14 UNL     1      25.827   5.592  49.882  1.00  0.00    -0.054 A 
HETATM   21  C15 UNL     1      26.103   6.870  49.409  1.00  0.00     0.007 A 
HETATM   22  C16 UNL     1      27.167   7.138  48.543  1.00  0.00     0.001 A 
HETATM   23  C17 UNL     1      27.953   6.050  48.169  1.00  0.00     0.000 A 
HETATM   24  C18 UNL     1      27.681   4.782  48.639  1.00  0.00     0.001 A 
HETATM   25  C19 UNL     1      26.616   4.533  49.501  1.00  0.00     0.007 A 
ENDBRANCH  19  20
ENDBRANCH   9  19
BRANCH   1  26
HETATM   26  N1  UNL     1      22.738   0.872  52.990  1.00  0.00     0.108 N 
HETATM   27  C2  UNL     1      22.644  -0.499  53.333  1.00  0.00     0.222 C 
HETATM   28  C1  UNL     1      22.226  -0.650  54.804  1.00  0.00     0.043 C 
HETATM   29  C3  UNL     1      24.179  -0.544  53.255  1.00  0.00     0.066 C 
HETATM   30  C4  UNL     1      24.128   0.884  52.693  1.00  0.00     0.276 C 
ENDBRANCH   1  26
BRANCH  14  31
HETATM   31  N3  UNL     1      17.533   3.090  48.427  1.00  0.00    -0.254 N 
HETATM   32  H27 UNL     1      17.338   3.995  47.924  1.00  0.00     0.195 HD
BRANCH  31  33
HETATM   33  O1  UNL     1      17.081   1.815  48.248  1.00  0.00    -0.288 OA
HETATM   34  H28 UNL     1      17.839   1.223  48.020  1.00  0.00     0.244 HD
ENDBRANCH  31  33
ENDBRANCH  14  31
TORSDOF 5
ENDMDL
MODEL 5
REMARK VINA RESULT:      -8.1      2.144      2.986
REMARK  5 active torsions:
REMARK  status: ('A' for Active; 'I' for Inactive)
REMARK    1  A    between atoms: N1_5  and  C5_6 
REMARK    2  A    between atoms: C12_14  and  C13_15 
REMARK    3  A    between atoms: C13_15  and  C14_16 
REMARK    4  A    between atoms: C24_26  and  N3_27 
REMARK    5  A    between atoms: N3_27  and  O1_28 
ROOT
HETATM    1  C5  UNL     1      22.632   4.539  49.016  1.00  0.00     0.206 C 
HETATM    2  C6  UNL     1      23.339   5.120  47.873  1.00  0.00     0.068 C 
HETATM    3  C7  UNL     1      24.360   6.152  47.928  1.00  0.00     0.125 C 
HETATM    4  N2  UNL     1      25.433   6.153  48.885  1.00  0.00    -0.383 N 
HETATM    5  C8  UNL     1      26.729   5.535  48.611  1.00  0.00     0.086 C 
HETATM    6  C9  UNL     1      27.231   4.338  48.966  1.00  0.00     0.028 C 
HETATM    7  C10 UNL     1      26.164   3.725  49.740  1.00  0.00    -0.034 A 
HETATM    8  C11 UNL     1      26.137   2.971  50.897  1.00  0.00     0.019 A 
HETATM    9  C12 UNL     1      24.922   2.650  51.512  1.00  0.00    -0.052 A 
HETATM   10  C20 UNL     1      23.685   3.039  51.048  1.00  0.00     0.017 A 
HETATM   11  C21 UNL     1      23.534   3.783  49.925  1.00  0.00    -0.017 A 
HETATM   12  C22 UNL     1      24.827   3.934  49.550  1.00  0.00     0.021 A 
HETATM   13  C23 UNL     1      25.463   6.594  50.253  1.00  0.00     0.202 C 
HETATM   14  C24 UNL     1      25.240   8.101  50.312  1.00  0.00     0.142 C 
HETATM   15  N4  UNL     1      24.049   8.398  50.778  1.00  0.00    -0.226 NA
HETATM   16  C25 UNL     1      23.221   7.263  51.127  1.00  0.00     0.228 C 
HETATM   17  N5  UNL     1      22.781   6.729  50.085  1.00  0.00    -0.280 NA
HETATM   18  C26 UNL     1      21.949   5.624  49.816  1.00  0.00     0.197 C 
ENDROOT
BRANCH   9  19
HETATM   19  C13 UNL     1      24.932   1.833  52.761  1.00  0.00     0.077 C 
BRANCH  19  20
HETATM   20  C14 UNL     1      23.626   1.173  52.901  1.00  0.00    -0.054 A 
HETATM   21  C15 UNL     1      23.722  -0.212  52.966  1.00  0.00     0.007 A 
HETATM   22  C16 UNL     1      22.602  -1.039  53.100  1.00  0.00     0.001 A 
HETATM   23  C17 UNL     1      21.365  -0.402  53.166  1.00  0.00     0.000 A 
HETATM   24  C18 UNL     1      21.269   0.973  53.102  1.00  0.00     0.001 A 
HETATM   25  C19 UNL     1      22.395   1.780  52.968  1.00  0.00     0.007 A 
ENDBRANCH  19  20
ENDBRANCH   9  19
BRANCH   1  26
HETATM   26  N1  UNL     1      21.620   3.552  48.691  1.00  0.00     0.108 N 
HETATM   27  C2  UNL     1      20.288   3.758  49.128  1.00  0.00     0.222 C 
HETATM   28  C1  UNL     1      19.887   2.672  50.137  1.00  0.00     0.043 C 
HETATM   29  C3  UNL     1      19.841   3.313  47.727  1.00  0.00     0.066 C 
HETATM   30  C4  UNL     1      21.322   3.328  47.320  1.00  0.00     0.276 C 
ENDBRANCH   1  26
BRANCH  14  31
HETATM   31  N3  UNL     1      26.167   9.092  49.899  1.00  0.00    -0.254 N 
HETATM   32  H27 UNL     1      26.073   9.298  48.870  1.00  0.00     0.195 HD
BRANCH  31  33
HETATM   33  O1  UNL     1      26.988   9.587  50.871  1.00  0.00    -0.288 OA
HETATM   34  H28 UNL     1      27.393  10.435  50.563  1.00  0.00     0.244 HD
ENDBRANCH  31  33
ENDBRANCH  14  31
TORSDOF 5
ENDMDL
MODEL 6
REMARK VINA RESULT:      -8.1      2.599      5.209
REMARK  5 active torsions:
REMARK  status: ('A' for Active; 'I' for Inactive)
REMARK    1  A    between atoms: N1_5  and  C5_6 
REMARK    2  A    between atoms: C12_14  and  C13_15 
REMARK    3  A    between atoms: C13_15  and  C14_16 
REMARK    4  A    between atoms: C24_26  and  N3_27 
REMARK    5  A    between atoms: N3_27  and  O1_28 
ROOT
HETATM    1  C5  UNL     1      23.650   4.753  49.864  1.00  0.00     0.206 C 
HETATM    2  C6  UNL     1      22.455   5.561  50.115  1.00  0.00     0.068 C 
HETATM    3  C7  UNL     1      21.079   5.151  49.895  1.00  0.00     0.125 C 
HETATM    4  N2  UNL     1      20.567   3.862  50.275  1.00  0.00    -0.383 N 
HETATM    5  C8  UNL     1      19.947   3.616  51.575  1.00  0.00     0.086 C 
HETATM    6  C9  UNL     1      20.440   3.071  52.702  1.00  0.00     0.028 C 
HETATM    7  C10 UNL     1      21.814   2.740  52.361  1.00  0.00    -0.034 A 
HETATM    8  C11 UNL     1      22.631   1.661  52.635  1.00  0.00     0.019 A 
HETATM    9  C12 UNL     1      23.882   1.539  52.021  1.00  0.00    -0.052 A 
HETATM   10  C20 UNL     1      24.402   2.442  51.120  1.00  0.00     0.017 A 
HETATM   11  C21 UNL     1      23.729   3.556  50.742  1.00  0.00    -0.017 A 
HETATM   12  C22 UNL     1      22.594   3.422  51.471  1.00  0.00     0.021 A 
HETATM   13  C23 UNL     1      20.645   2.593  49.604  1.00  0.00     0.202 C 
HETATM   14  C24 UNL     1      19.868   2.656  48.294  1.00  0.00     0.142 C 
HETATM   15  N4  UNL     1      20.669   2.676  47.254  1.00  0.00    -0.226 NA
HETATM   16  C25 UNL     1      22.083   2.638  47.563  1.00  0.00     0.228 C 
HETATM   17  N5  UNL     1      22.451   3.756  47.985  1.00  0.00    -0.280 NA
HETATM   18  C26 UNL     1      23.678   4.293  48.424  1.00  0.00     0.197 C 
ENDROOT
BRANCH   9  19
HETATM   19  C13 UNL     1      24.738   0.359  52.342  1.00  0.00     0.077 C 
BRANCH  19  20
HETATM   20  C14 UNL     1      26.037   0.841  52.832  1.00  0.00    -0.054 A 
HETATM   21  C15 UNL     1      27.076  -0.047  52.580  1.00  0.00     0.007 A 
HETATM   22  C16 UNL     1      28.396   0.211  52.961  1.00  0.00     0.001 A 
HETATM   23  C17 UNL     1      28.629   1.419  53.616  1.00  0.00     0.000 A 
HETATM   24  C18 UNL     1      27.598   2.301  53.867  1.00  0.00     0.001 A 
HETATM   25  C19 UNL     1      26.289   2.027  53.480  1.00  0.00     0.007 A 
ENDBRANCH  19  20
ENDBRANCH   9  19
BRANCH   1  26
HETATM   26  N1  UNL     1      24.917   5.412  50.121  1.00  0.00     0.108 N 
HETATM   27  C2  UNL     1      25.715   5.826  49.027  1.00  0.00     0.222 C 
HETATM   28  C1  UNL     1      27.035   5.042  49.006  1.00  0.00     0.043 C 
HETATM   29  C3  UNL     1      25.940   7.142  49.790  1.00  0.00     0.066 C 
HETATM   30  C4  UNL     1      24.895   6.657  50.805  1.00  0.00     0.276 C 
ENDBRANCH   1  26
BRANCH  14  31
HETATM   31  N3  UNL     1      18.456   2.713  48.170  1.00  0.00    -0.254 N 
HETATM   32  H27 UNL     1      18.157   3.549  47.602  1.00  0.00     0.195 HD
BRANCH  31  33
HETATM   33  O1  UNL     1      17.759   1.714  48.785  1.00  0.00    -0.288 OA
HETATM   34  H28 UNL     1      16.797   1.798  48.568  1.00  0.00     0.244 HD
ENDBRANCH  31  33
ENDBRANCH  14  31
TORSDOF 5
ENDMDL
MODEL 7
REMARK VINA RESULT:      -7.9      3.654      6.713
REMARK  5 active torsions:
REMARK  status: ('A' for Active; 'I' for Inactive)
REMARK    1  A    between atoms: N1_5  and  C5_6 
REMARK    2  A    between atoms: C12_14  and  C13_15 
REMARK    3  A    between atoms: C13_15  and  C14_16 
REMARK    4  A    between atoms: C24_26  and  N3_27 
REMARK    5  A    between atoms: N3_27  and  O1_28 
ROOT
HETATM    1  C5  UNL     1      21.741   1.222  52.190  1.00  0.00     0.206 C 
HETATM    2  C6  UNL     1      21.551   0.245  51.116  1.00  0.00     0.068 C 
HETATM    3  C7  UNL     1      20.704   0.407  49.947  1.00  0.00     0.125 C 
HETATM    4  N2  UNL     1      20.650   1.614  49.169  1.00  0.00    -0.383 N 
HETATM    5  C8  UNL     1      21.507   1.838  48.006  1.00  0.00     0.086 C 
HETATM    6  C9  UNL     1      22.654   2.529  47.872  1.00  0.00     0.028 C 
HETATM    7  C10 UNL     1      22.903   3.060  49.202  1.00  0.00    -0.034 A 
HETATM    8  C11 UNL     1      23.360   4.275  49.673  1.00  0.00     0.019 A 
HETATM    9  C12 UNL     1      23.341   4.563  51.042  1.00  0.00    -0.052 A 
HETATM   10  C20 UNL     1      22.882   3.702  52.015  1.00  0.00     0.017 A 
HETATM   11  C21 UNL     1      22.400   2.470  51.722  1.00  0.00    -0.017 A 
HETATM   12  C22 UNL     1      22.539   2.461  50.374  1.00  0.00     0.021 A 
HETATM   13  C23 UNL     1      19.919   2.833  49.388  1.00  0.00     0.202 C 
HETATM   14  C24 UNL     1      18.423   2.558  49.296  1.00  0.00     0.142 C 
HETATM   15  N4  UNL     1      17.847   2.603  50.476  1.00  0.00    -0.226 NA
HETATM   16  C25 UNL     1      18.731   2.895  51.584  1.00  0.00     0.228 C 
HETATM   17  N5  UNL     1      19.414   1.883  51.854  1.00  0.00    -0.280 NA
HETATM   18  C26 UNL     1      20.409   1.587  52.807  1.00  0.00     0.197 C 
ENDROOT
BRANCH   9  19
HETATM   19  C13 UNL     1      23.843   5.886  51.515  1.00  0.00     0.077 C 
BRANCH  19  20
HETATM   20  C14 UNL     1      23.207   6.943  50.715  1.00  0.00    -0.054 A 
HETATM   21  C15 UNL     1      21.830   7.003  50.892  1.00  0.00     0.007 A 
HETATM   22  C16 UNL     1      21.026   7.934  50.227  1.00  0.00     0.001 A 
HETATM   23  C17 UNL     1      21.677   8.815  49.366  1.00  0.00     0.000 A 
HETATM   24  C18 UNL     1      23.045   8.756  49.191  1.00  0.00     0.001 A 
HETATM   25  C19 UNL     1      23.829   7.822  49.861  1.00  0.00     0.007 A 
ENDBRANCH  19  20
ENDBRANCH   9  19
BRANCH   1  26
HETATM   26  N1  UNL     1      22.607   0.800  53.275  1.00  0.00     0.108 N 
HETATM   27  C2  UNL     1      22.651  -0.569  53.632  1.00  0.00     0.222 C 
HETATM   28  C1  UNL     1      22.104  -0.764  55.054  1.00  0.00     0.043 C 
HETATM   29  C3  UNL     1      24.178  -0.421  53.712  1.00  0.00     0.066 C 
HETATM   30  C4  UNL     1      24.008   0.986  53.121  1.00  0.00     0.276 C 
ENDBRANCH   1  26
BRANCH  14  31
HETATM   31  N3  UNL     1      17.707   2.259  48.108  1.00  0.00    -0.254 N 
HETATM   32  H27 UNL     1      16.829   1.715  48.319  1.00  0.00     0.195 HD
BRANCH  31  33
HETATM   33  O1  UNL     1      18.258   2.712  46.946  1.00  0.00    -0.288 OA
HETATM   34  H28 UNL     1      18.028   2.096  46.207  1.00  0.00     0.244 HD
ENDBRANCH  31  33
ENDBRANCH  14  31
TORSDOF 5
ENDMDL
MODEL 8
REMARK VINA RESULT:      -7.9      2.976      4.628
REMARK  5 active torsions:
REMARK  status: ('A' for Active; 'I' for Inactive)
REMARK    1  A    between atoms: N1_5  and  C5_6 
REMARK    2  A    between atoms: C12_14  and  C13_15 
REMARK    3  A    between atoms: C13_15  and  C14_16 
REMARK    4  A    between atoms: C24_26  and  N3_27 
REMARK    5  A    between atoms: N3_27  and  O1_28 
ROOT
HETATM    1  C5  UNL     1      21.145   4.389  47.286  1.00  0.00     0.206 C 
HETATM    2  C6  UNL     1      22.469   4.968  47.039  1.00  0.00     0.068 C 
HETATM    3  C7  UNL     1      23.297   5.662  48.009  1.00  0.00     0.125 C 
HETATM    4  N2  UNL     1      23.498   5.198  49.354  1.00  0.00    -0.383 N 
HETATM    5  C8  UNL     1      24.608   4.321  49.725  1.00  0.00     0.086 C 
HETATM    6  C9  UNL     1      24.659   2.990  49.910  1.00  0.00     0.028 C 
HETATM    7  C10 UNL     1      23.297   2.547  49.659  1.00  0.00    -0.034 A 
HETATM    8  C11 UNL     1      22.469   1.623  50.265  1.00  0.00     0.019 A 
HETATM    9  C12 UNL     1      21.121   1.526  49.900  1.00  0.00    -0.052 A 
HETATM   10  C20 UNL     1      20.511   2.309  48.945  1.00  0.00     0.017 A 
HETATM   11  C21 UNL     1      21.183   3.264  48.257  1.00  0.00    -0.017 A 
HETATM   12  C22 UNL     1      22.421   3.135  48.792  1.00  0.00     0.021 A 
HETATM   13  C23 UNL     1      22.678   5.349  50.526  1.00  0.00     0.202 C 
HETATM   14  C24 UNL     1      22.599   6.822  50.911  1.00  0.00     0.142 C 
HETATM   15  N4  UNL     1      21.418   7.331  50.645  1.00  0.00    -0.226 NA
HETATM   16  C25 UNL     1      20.467   6.411  50.056  1.00  0.00     0.228 C 
HETATM   17  N5  UNL     1      20.757   6.219  48.855  1.00  0.00    -0.280 NA
HETATM   18  C26 UNL     1      20.203   5.446  47.815  1.00  0.00     0.197 C 
ENDROOT
BRANCH   9  19
HETATM   19  C13 UNL     1      20.255   0.515  50.576  1.00  0.00     0.077 C 
BRANCH  19  20
HETATM   20  C14 UNL     1      20.737   0.329  51.952  1.00  0.00    -0.054 A 
HETATM   21  C15 UNL     1      21.775  -0.592  52.043  1.00  0.00     0.007 A 
HETATM   22  C16 UNL     1      22.383  -0.922  53.259  1.00  0.00     0.001 A 
HETATM   23  C17 UNL     1      21.896  -0.275  54.393  1.00  0.00     0.000 A 
HETATM   24  C18 UNL     1      20.867   0.639  54.302  1.00  0.00     0.001 A 
HETATM   25  C19 UNL     1      20.272   0.955  53.084  1.00  0.00     0.007 A 
ENDBRANCH  19  20
ENDBRANCH   9  19
BRANCH   1  26
HETATM   26  N1  UNL     1      20.501   3.786  46.135  1.00  0.00     0.108 N 
HETATM   27  C2  UNL     1      19.223   4.251  45.736  1.00  0.00     0.222 C 
HETATM   28  C1  UNL     1      18.178   3.139  45.905  1.00  0.00     0.043 C 
HETATM   29  C3  UNL     1      19.747   4.214  44.291  1.00  0.00     0.066 C 
HETATM   30  C4  UNL     1      21.137   3.914  44.870  1.00  0.00     0.276 C 
ENDBRANCH   1  26
BRANCH  14  31
HETATM   31  N3  UNL     1      23.654   7.591  51.465  1.00  0.00    -0.254 N 
HETATM   32  H27 UNL     1      23.607   8.592  51.140  1.00  0.00     0.195 HD
BRANCH  31  33
HETATM   33  O1  UNL     1      24.512   6.925  52.291  1.00  0.00    -0.288 OA
HETATM   34  H28 UNL     1      25.255   7.524  52.550  1.00  0.00     0.244 HD
ENDBRANCH  31  33
ENDBRANCH  14  31
TORSDOF 5
ENDMDL
MODEL 9
REMARK VINA RESULT:      -7.8      7.943     11.293
REMARK  5 active torsions:
REMARK  status: ('A' for Active; 'I' for Inactive)
REMARK    1  A    between atoms: N1_5  and  C5_6 
REMARK    2  A    between atoms: C12_14  and  C13_15 
REMARK    3  A    between atoms: C13_15  and  C14_16 
REMARK    4  A    between atoms: C24_26  and  N3_27 
REMARK    5  A    between atoms: N3_27  and  O1_28 
ROOT
HETATM    1  C5  UNL     1      32.122   5.272  47.073  1.00  0.00     0.206 C 
HETATM    2  C6  UNL     1      30.691   5.263  47.386  1.00  0.00     0.068 C 
HETATM    3  C7  UNL     1      29.928   6.364  47.947  1.00  0.00     0.125 C 
HETATM    4  N2  UNL     1      30.055   7.724  47.502  1.00  0.00    -0.383 N 
HETATM    5  C8  UNL     1      29.214   8.287  46.447  1.00  0.00     0.086 C 
HETATM    6  C9  UNL     1      29.448   8.481  45.137  1.00  0.00     0.028 C 
HETATM    7  C10 UNL     1      30.805   7.993  44.946  1.00  0.00    -0.034 A 
HETATM    8  C11 UNL     1      31.886   8.443  44.214  1.00  0.00     0.019 A 
HETATM    9  C12 UNL     1      33.143   7.845  44.357  1.00  0.00    -0.052 A 
HETATM   10  C20 UNL     1      33.418   6.795  45.206  1.00  0.00     0.017 A 
HETATM   11  C21 UNL     1      32.468   6.236  45.995  1.00  0.00    -0.017 A 
HETATM   12  C22 UNL     1      31.389   6.983  45.657  1.00  0.00     0.021 A 
HETATM   13  C23 UNL     1      31.024   8.731  47.843  1.00  0.00     0.202 C 
HETATM   14  C24 UNL     1      30.888   9.094  49.318  1.00  0.00     0.142 C 
HETATM   15  N4  UNL     1      31.887   8.621  50.028  1.00  0.00    -0.226 NA
HETATM   16  C25 UNL     1      32.877   7.875  49.281  1.00  0.00     0.228 C 
HETATM   17  N5  UNL     1      32.424   6.744  48.997  1.00  0.00    -0.280 NA
HETATM   18  C26 UNL     1      32.925   5.624  48.304  1.00  0.00     0.197 C 
ENDROOT
BRANCH   9  19
HETATM   19  C13 UNL     1      34.289   8.358  43.549  1.00  0.00     0.077 C 
BRANCH  19  20
HETATM   20  C14 UNL     1      34.591   7.383  42.492  1.00  0.00    -0.054 A 
HETATM   21  C15 UNL     1      35.953   7.147  42.345  1.00  0.00     0.007 A 
HETATM   22  C16 UNL     1      36.464   6.254  41.397  1.00  0.00     0.001 A 
HETATM   23  C17 UNL     1      35.532   5.601  40.593  1.00  0.00     0.000 A 
HETATM   24  C18 UNL     1      34.180   5.835  40.739  1.00  0.00     0.001 A 
HETATM   25  C19 UNL     1      33.689   6.728  41.688  1.00  0.00     0.007 A 
ENDBRANCH  19  20
ENDBRANCH   9  19
BRANCH   1  26
HETATM   26  N1  UNL     1      32.659   4.025  46.560  1.00  0.00     0.108 N 
HETATM   27  C2  UNL     1      33.749   3.416  47.229  1.00  0.00     0.222 C 
HETATM   28  C1  UNL     1      34.987   3.400  46.320  1.00  0.00     0.043 C 
HETATM   29  C3  UNL     1      33.004   2.082  47.063  1.00  0.00     0.066 C 
HETATM   30  C4  UNL     1      31.806   2.889  46.541  1.00  0.00     0.276 C 
ENDBRANCH   1  26
BRANCH  14  31
HETATM   31  N3  UNL     1      29.820   9.826  49.897  1.00  0.00    -0.254 N 
HETATM   32  H27 UNL     1      30.084  10.835  50.043  1.00  0.00     0.195 HD
BRANCH  31  33
HETATM   33  O1  UNL     1      28.680   9.121  50.153  1.00  0.00    -0.288 OA
HETATM   34  H28 UNL     1      28.807   8.567  50.962  1.00  0.00     0.244 HD
ENDBRANCH  31  33
ENDBRANCH  14  31
TORSDOF 5
ENDMDL
