MODEL 1
REMARK VINA RESULT:      -7.2      0.000      0.000
REMARK  1 active torsions:
REMARK  status: ('A' for Active; 'I' for Inactive)
REMARK    1  A    between atoms: C15_19  and  O2_20 
ROOT
HETATM    1  C1  UNL     1      20.452  -1.804  53.785  1.00  0.00     0.022 C 
HETATM    2  C2  UNL     1      21.142  -0.650  53.864  1.00  0.00    -0.031 C 
HETATM    3  C3  UNL     1      22.095  -0.436  54.983  1.00  0.00     0.060 C 
HETATM    4  C4  UNL     1      23.491  -0.698  54.548  1.00  0.00     0.132 C 
HETATM    5  N1  UNL     1      24.055   0.372  53.754  1.00  0.00    -0.362 N 
HETATM    6  C5  UNL     1      25.305  -0.093  53.683  1.00  0.00     0.001 C 
HETATM    7  C6  UNL     1      26.641  -0.419  53.775  1.00  0.00     0.035 A 
HETATM    8  C7  UNL     1      27.835  -0.949  52.983  1.00  0.00     0.019 A 
HETATM    9  C8  UNL     1      26.734  -0.747  52.424  1.00  0.00    -0.004 A 
HETATM   10  C9  UNL     1      26.713   0.583  51.612  1.00  0.00     0.116 C 
HETATM   11  S1  UNL     1      27.190   1.918  52.753  1.00  0.00    -0.011 SA
HETATM   12  O1  UNL     1      26.844   1.815  54.358  1.00  0.00    -0.319 OA
HETATM   13  C10 UNL     1      26.825   0.516  54.974  1.00  0.00     0.202 C 
HETATM   14  C11 UNL     1      25.386  -1.311  52.573  1.00  0.00     0.065 C 
HETATM   15  C12 UNL     1      23.696   1.559  53.141  1.00  0.00     0.092 C 
HETATM   16  C13 UNL     1      22.589   1.939  52.477  1.00  0.00     0.044 C 
HETATM   17  C14 UNL     1      21.307   1.279  52.120  1.00  0.00     0.069 C 
HETATM   18 CL1  UNL     1      20.454   1.984  50.775  1.00  0.00    -0.081 Cl
HETATM   19  C15 UNL     1      20.756   0.213  52.725  1.00  0.00     0.092 C 
ENDROOT
BRANCH  19  20
HETATM   20  O2  UNL     1      19.558  -0.092  52.086  1.00  0.00    -0.358 OA
HETATM   21  H16 UNL     1      19.622  -0.353  51.105  1.00  0.00     0.217 HD
ENDBRANCH  19  20
TORSDOF 1
ENDMDL
MODEL 2
REMARK VINA RESULT:      -7.2      3.459      5.876
REMARK  1 active torsions:
REMARK  status: ('A' for Active; 'I' for Inactive)
REMARK    1  A    between atoms: C15_19  and  O2_20 
ROOT
HETATM    1  C1  UNL     1      25.598  -0.509  55.213  1.00  0.00     0.022 C 
HETATM    2  C2  UNL     1      25.896  -0.053  53.981  1.00  0.00    -0.031 C 
HETATM    3  C3  UNL     1      25.059  -0.457  52.823  1.00  0.00     0.060 C 
HETATM    4  C4  UNL     1      24.085   0.608  52.474  1.00  0.00     0.132 C 
HETATM    5  N1  UNL     1      24.681   1.718  51.761  1.00  0.00    -0.362 N 
HETATM    6  C5  UNL     1      23.554   2.374  51.472  1.00  0.00     0.001 C 
HETATM    7  C6  UNL     1      22.413   2.958  50.964  1.00  0.00     0.035 A 
HETATM    8  C7  UNL     1      21.503   4.180  51.075  1.00  0.00     0.019 A 
HETATM    9  C8  UNL     1      22.547   4.094  51.759  1.00  0.00    -0.004 A 
HETATM   10  C9  UNL     1      23.714   4.946  51.175  1.00  0.00     0.116 C 
HETATM   11  S1  UNL     1      23.947   4.425  49.447  1.00  0.00    -0.011 SA
HETATM   12  O1  UNL     1      23.612   2.882  48.981  1.00  0.00    -0.319 OA
HETATM   13  C10 UNL     1      22.553   2.179  49.653  1.00  0.00     0.202 C 
HETATM   14  C11 UNL     1      23.017   3.180  52.808  1.00  0.00     0.065 C 
HETATM   15  C12 UNL     1      25.914   2.205  51.367  1.00  0.00     0.092 C 
HETATM   16  C13 UNL     1      27.115   2.229  51.974  1.00  0.00     0.044 C 
HETATM   17  C14 UNL     1      27.633   1.761  53.285  1.00  0.00     0.069 C 
HETATM   18 CL1  UNL     1      29.096   2.533  53.828  1.00  0.00    -0.081 Cl
HETATM   19  C15 UNL     1      27.091   0.816  54.073  1.00  0.00     0.092 C 
ENDROOT
BRANCH  19  20
HETATM   20  O2  UNL     1      27.881   0.677  55.210  1.00  0.00    -0.358 OA
HETATM   21  H16 UNL     1      27.565   0.000  55.899  1.00  0.00     0.217 HD
ENDBRANCH  19  20
TORSDOF 1
ENDMDL
MODEL 3
REMARK VINA RESULT:      -7.1      3.173      5.268
REMARK  1 active torsions:
REMARK  status: ('A' for Active; 'I' for Inactive)
REMARK    1  A    between atoms: C15_19  and  O2_20 
ROOT
HETATM    1  C1  UNL     1      22.698  -1.090  55.166  1.00  0.00     0.022 C 
HETATM    2  C2  UNL     1      23.387  -0.821  54.040  1.00  0.00    -0.031 C 
HETATM    3  C3  UNL     1      22.690  -0.826  52.729  1.00  0.00     0.060 C 
HETATM    4  C4  UNL     1      22.357   0.556  52.300  1.00  0.00     0.132 C 
HETATM    5  N1  UNL     1      23.496   1.286  51.784  1.00  0.00    -0.362 N 
HETATM    6  C5  UNL     1      22.840   2.368  51.356  1.00  0.00     0.001 C 
HETATM    7  C6  UNL     1      22.182   3.389  50.705  1.00  0.00     0.035 A 
HETATM    8  C7  UNL     1      21.887   4.887  50.750  1.00  0.00     0.019 A 
HETATM    9  C8  UNL     1      22.644   4.357  51.594  1.00  0.00    -0.004 A 
HETATM   10  C9  UNL     1      24.150   4.605  51.283  1.00  0.00     0.116 C 
HETATM   11  S1  UNL     1      24.452   4.020  49.586  1.00  0.00    -0.011 SA
HETATM   12  O1  UNL     1      23.575   2.778  48.957  1.00  0.00    -0.319 OA
HETATM   13  C10 UNL     1      22.212   2.617  49.383  1.00  0.00     0.202 C 
HETATM   14  C11 UNL     1      22.467   3.338  52.637  1.00  0.00     0.065 C 
HETATM   15  C12 UNL     1      24.867   1.178  51.644  1.00  0.00     0.092 C 
HETATM   16  C13 UNL     1      25.824   0.676  52.447  1.00  0.00     0.044 C 
HETATM   17  C14 UNL     1      25.834   0.039  53.789  1.00  0.00     0.069 C 
HETATM   18 CL1  UNL     1      27.357   0.095  54.630  1.00  0.00    -0.081 Cl
HETATM   19  C15 UNL     1      24.801  -0.565  54.400  1.00  0.00     0.092 C 
ENDROOT
BRANCH  19  20
HETATM   20  O2  UNL     1      25.225  -1.027  55.642  1.00  0.00    -0.358 OA
HETATM   21  H16 UNL     1      26.170  -1.398  55.687  1.00  0.00     0.217 HD
ENDBRANCH  19  20
TORSDOF 1
ENDMDL
MODEL 4
REMARK VINA RESULT:      -6.9      3.041      5.982
REMARK  1 active torsions:
REMARK  status: ('A' for Active; 'I' for Inactive)
REMARK    1  A    between atoms: C15_19  and  O2_20 
ROOT
HETATM    1  C1  UNL     1      27.912   2.373  53.081  1.00  0.00     0.022 C 
HETATM    2  C2  UNL     1      26.779   1.728  53.419  1.00  0.00    -0.031 C 
HETATM    3  C3  UNL     1      25.646   2.488  54.006  1.00  0.00     0.060 C 
HETATM    4  C4  UNL     1      24.617   2.786  52.978  1.00  0.00     0.132 C 
HETATM    5  N1  UNL     1      23.789   1.646  52.648  1.00  0.00    -0.362 N 
HETATM    6  C5  UNL     1      22.913   2.279  51.864  1.00  0.00     0.001 C 
HETATM    7  C6  UNL     1      21.869   2.927  51.238  1.00  0.00     0.035 A 
HETATM    8  C7  UNL     1      21.200   3.160  49.885  1.00  0.00     0.019 A 
HETATM    9  C8  UNL     1      22.177   2.384  49.993  1.00  0.00    -0.004 A 
HETATM   10  C9  UNL     1      21.750   0.886  50.010  1.00  0.00     0.116 C 
HETATM   11  S1  UNL     1      20.531   0.690  51.348  1.00  0.00    -0.011 SA
HETATM   12  O1  UNL     1      20.592   1.644  52.686  1.00  0.00    -0.319 OA
HETATM   13  C10 UNL     1      21.075   2.991  52.547  1.00  0.00     0.202 C 
HETATM   14  C11 UNL     1      23.583   2.551  50.382  1.00  0.00     0.065 C 
HETATM   15  C12 UNL     1      23.685   0.288  52.889  1.00  0.00     0.092 C 
HETATM   16  C13 UNL     1      24.607  -0.686  53.002  1.00  0.00     0.044 C 
HETATM   17  C14 UNL     1      26.090  -0.735  52.924  1.00  0.00     0.069 C 
HETATM   18 CL1  UNL     1      26.766  -2.299  52.563  1.00  0.00    -0.081 Cl
HETATM   19  C15 UNL     1      26.939   0.290  53.105  1.00  0.00     0.092 C 
ENDROOT
BRANCH  19  20
HETATM   20  O2  UNL     1      28.241  -0.175  52.945  1.00  0.00    -0.358 OA
HETATM   21  H16 UNL     1      28.466  -1.055  53.402  1.00  0.00     0.217 HD
ENDBRANCH  19  20
TORSDOF 1
ENDMDL
MODEL 5
REMARK VINA RESULT:      -6.7      3.939      5.555
REMARK  1 active torsions:
REMARK  status: ('A' for Active; 'I' for Inactive)
REMARK    1  A    between atoms: C15_19  and  O2_20 
ROOT
HETATM    1  C1  UNL     1      25.270  -0.005  52.843  1.00  0.00     0.022 C 
HETATM    2  C2  UNL     1      24.355   0.965  53.033  1.00  0.00    -0.031 C 
HETATM    3  C3  UNL     1      24.799   2.365  53.249  1.00  0.00     0.060 C 
HETATM    4  C4  UNL     1      24.691   3.155  51.995  1.00  0.00     0.132 C 
HETATM    5  N1  UNL     1      23.334   3.547  51.680  1.00  0.00    -0.362 N 
HETATM    6  C5  UNL     1      23.612   4.342  50.643  1.00  0.00     0.001 C 
HETATM    7  C6  UNL     1      23.868   5.336  49.722  1.00  0.00     0.035 A 
HETATM    8  C7  UNL     1      23.776   5.693  48.240  1.00  0.00     0.019 A 
HETATM    9  C8  UNL     1      23.332   4.603  48.666  1.00  0.00    -0.004 A 
HETATM   10  C9  UNL     1      21.783   4.610  48.824  1.00  0.00     0.116 C 
HETATM   11  S1  UNL     1      21.357   6.020  49.893  1.00  0.00    -0.011 SA
HETATM   12  O1  UNL     1      22.402   6.541  51.052  1.00  0.00    -0.319 OA
HETATM   13  C10 UNL     1      23.813   6.411  50.812  1.00  0.00     0.202 C 
HETATM   14  C11 UNL     1      23.936   3.428  49.309  1.00  0.00     0.065 C 
HETATM   15  C12 UNL     1      22.032   3.344  52.098  1.00  0.00     0.092 C 
HETATM   16  C13 UNL     1      21.384   2.253  52.549  1.00  0.00     0.044 C 
HETATM   17  C14 UNL     1      21.763   0.838  52.789  1.00  0.00     0.069 C 
HETATM   18 CL1  UNL     1      20.441  -0.295  52.820  1.00  0.00    -0.081 Cl
HETATM   19  C15 UNL     1      23.004   0.359  52.982  1.00  0.00     0.092 C 
ENDROOT
BRANCH  19  20
HETATM   20  O2  UNL     1      22.928  -1.018  53.170  1.00  0.00    -0.358 OA
HETATM   21  H16 UNL     1      23.000  -1.348  54.128  1.00  0.00     0.217 HD
ENDBRANCH  19  20
TORSDOF 1
ENDMDL
MODEL 6
REMARK VINA RESULT:      -6.7      3.537      6.682
REMARK  1 active torsions:
REMARK  status: ('A' for Active; 'I' for Inactive)
REMARK    1  A    between atoms: C15_19  and  O2_20 
ROOT
HETATM    1  C1  UNL     1      26.576   3.487  49.532  1.00  0.00     0.022 C 
HETATM    2  C2  UNL     1      25.723   3.580  50.570  1.00  0.00    -0.031 C 
HETATM    3  C3  UNL     1      24.554   4.492  50.485  1.00  0.00     0.060 C 
HETATM    4  C4  UNL     1      23.319   3.742  50.141  1.00  0.00     0.132 C 
HETATM    5  N1  UNL     1      22.766   3.005  51.257  1.00  0.00    -0.362 N 
HETATM    6  C5  UNL     1      21.634   2.610  50.670  1.00  0.00     0.001 C 
HETATM    7  C6  UNL     1      20.366   2.373  50.183  1.00  0.00     0.035 A 
HETATM    8  C7  UNL     1      19.433   1.283  49.658  1.00  0.00     0.019 A 
HETATM    9  C8  UNL     1      20.580   1.001  50.075  1.00  0.00    -0.004 A 
HETATM   10  C9  UNL     1      20.560   0.405  51.514  1.00  0.00     0.116 C 
HETATM   11  S1  UNL     1      19.687   1.595  52.578  1.00  0.00    -0.011 SA
HETATM   12  O1  UNL     1      19.734   3.207  52.251  1.00  0.00    -0.319 OA
HETATM   13  C10 UNL     1      19.824   3.626  50.878  1.00  0.00     0.202 C 
HETATM   14  C11 UNL     1      21.942   1.349  49.652  1.00  0.00     0.065 C 
HETATM   15  C12 UNL     1      23.058   2.653  52.562  1.00  0.00     0.092 C 
HETATM   16  C13 UNL     1      24.203   2.295  53.171  1.00  0.00     0.044 C 
HETATM   17  C14 UNL     1      25.612   2.126  52.729  1.00  0.00     0.069 C 
HETATM   18 CL1  UNL     1      26.593   1.102  53.740  1.00  0.00    -0.081 Cl
HETATM   19  C15 UNL     1      26.188   2.678  51.649  1.00  0.00     0.092 C 
ENDROOT
BRANCH  19  20
HETATM   20  O2  UNL     1      27.517   2.268  51.592  1.00  0.00    -0.358 OA
HETATM   21  H16 UNL     1      28.036   2.533  50.759  1.00  0.00     0.217 HD
ENDBRANCH  19  20
TORSDOF 1
ENDMDL
MODEL 7
REMARK VINA RESULT:      -6.6      3.656      6.694
REMARK  1 active torsions:
REMARK  status: ('A' for Active; 'I' for Inactive)
REMARK    1  A    between atoms: C15_19  and  O2_20 
ROOT
HETATM    1  C1  UNL     1      26.149   2.003  53.367  1.00  0.00     0.022 C 
HETATM    2  C2  UNL     1      25.548   1.841  52.172  1.00  0.00    -0.031 C 
HETATM    3  C3  UNL     1      24.443   0.859  52.030  1.00  0.00     0.060 C 
HETATM    4  C4  UNL     1      23.122   1.536  52.078  1.00  0.00     0.132 C 
HETATM    5  N1  UNL     1      22.784   2.219  50.848  1.00  0.00    -0.362 N 
HETATM    6  C5  UNL     1      21.530   2.554  51.165  1.00  0.00     0.001 C 
HETATM    7  C6  UNL     1      20.175   2.719  51.360  1.00  0.00     0.035 A 
HETATM    8  C7  UNL     1      19.091   3.758  51.638  1.00  0.00     0.019 A 
HETATM    9  C8  UNL     1      20.282   4.104  51.470  1.00  0.00    -0.004 A 
HETATM   10  C9  UNL     1      20.541   4.673  50.043  1.00  0.00     0.116 C 
HETATM   11  S1  UNL     1      19.989   3.413  48.852  1.00  0.00    -0.011 SA
HETATM   12  O1  UNL     1      20.056   1.813  49.230  1.00  0.00    -0.319 OA
HETATM   13  C10 UNL     1      19.870   1.424  50.601  1.00  0.00     0.202 C 
HETATM   14  C11 UNL     1      21.538   3.847  52.187  1.00  0.00     0.065 C 
HETATM   15  C12 UNL     1      23.331   2.567  49.626  1.00  0.00     0.092 C 
HETATM   16  C13 UNL     1      24.559   2.985  49.268  1.00  0.00     0.044 C 
HETATM   17  C14 UNL     1      25.826   3.249  49.997  1.00  0.00     0.069 C 
HETATM   18 CL1  UNL     1      26.943   4.315  49.191  1.00  0.00    -0.081 Cl
HETATM   19  C15 UNL     1      26.185   2.751  51.193  1.00  0.00     0.092 C 
ENDROOT
BRANCH  19  20
HETATM   20  O2  UNL     1      27.444   3.244  51.522  1.00  0.00    -0.358 OA
HETATM   21  H16 UNL     1      28.069   3.441  50.745  1.00  0.00     0.217 HD
ENDBRANCH  19  20
TORSDOF 1
ENDMDL
MODEL 8
REMARK VINA RESULT:      -6.5      3.443      5.302
REMARK  1 active torsions:
REMARK  status: ('A' for Active; 'I' for Inactive)
REMARK    1  A    between atoms: C15_19  and  O2_20 
ROOT
HETATM    1  C1  UNL     1      18.234   0.044  52.267  1.00  0.00     0.022 C 
HETATM    2  C2  UNL     1      19.538   0.061  51.927  1.00  0.00    -0.031 C 
HETATM    3  C3  UNL     1      19.934   0.445  50.548  1.00  0.00     0.060 C 
HETATM    4  C4  UNL     1      20.385   1.859  50.501  1.00  0.00     0.132 C 
HETATM    5  N1  UNL     1      21.719   2.054  51.027  1.00  0.00    -0.362 N 
HETATM    6  C5  UNL     1      21.861   3.339  50.692  1.00  0.00     0.001 C 
HETATM    7  C6  UNL     1      22.134   4.585  50.169  1.00  0.00     0.035 A 
HETATM    8  C7  UNL     1      22.326   6.056  50.534  1.00  0.00     0.019 A 
HETATM    9  C8  UNL     1      22.131   5.196  51.422  1.00  0.00    -0.004 A 
HETATM   10  C9  UNL     1      23.444   4.784  52.152  1.00  0.00     0.116 C 
HETATM   11  S1  UNL     1      24.621   4.238  50.876  1.00  0.00    -0.011 SA
HETATM   12  O1  UNL     1      24.088   3.545  49.482  1.00  0.00    -0.319 OA
HETATM   13  C10 UNL     1      22.820   3.965  48.949  1.00  0.00     0.202 C 
HETATM   14  C11 UNL     1      21.023   4.288  51.748  1.00  0.00     0.065 C 
HETATM   15  C12 UNL     1      22.724   1.370  51.686  1.00  0.00     0.092 C 
HETATM   16  C13 UNL     1      22.702   0.451  52.670  1.00  0.00     0.044 C 
HETATM   17  C14 UNL     1      21.630  -0.213  53.455  1.00  0.00     0.069 C 
HETATM   18 CL1  UNL     1      22.130  -0.880  54.984  1.00  0.00    -0.081 Cl
HETATM   19  C15 UNL     1      20.341  -0.347  53.102  1.00  0.00     0.092 C 
ENDROOT
BRANCH  19  20
HETATM   20  O2  UNL     1      19.670  -1.028  54.113  1.00  0.00    -0.358 OA
HETATM   21  H16 UNL     1      18.660  -0.911  54.144  1.00  0.00     0.217 HD
ENDBRANCH  19  20
TORSDOF 1
ENDMDL
MODEL 9
REMARK VINA RESULT:      -6.3      8.671     10.349
REMARK  1 active torsions:
REMARK  status: ('A' for Active; 'I' for Inactive)
REMARK    1  A    between atoms: C15_19  and  O2_20 
ROOT
HETATM    1  C1  UNL     1      24.121   7.515  48.980  1.00  0.00     0.022 C 
HETATM    2  C2  UNL     1      25.213   7.038  48.351  1.00  0.00    -0.031 C 
HETATM    3  C3  UNL     1      25.783   7.782  47.198  1.00  0.00     0.060 C 
HETATM    4  C4  UNL     1      26.953   8.594  47.617  1.00  0.00     0.132 C 
HETATM    5  N1  UNL     1      28.154   7.810  47.812  1.00  0.00    -0.362 N 
HETATM    6  C5  UNL     1      29.003   8.824  48.006  1.00  0.00     0.001 C 
HETATM    7  C6  UNL     1      29.941   9.834  47.987  1.00  0.00     0.035 A 
HETATM    8  C7  UNL     1      30.922  10.617  48.857  1.00  0.00     0.019 A 
HETATM    9  C8  UNL     1      30.259   9.669  49.334  1.00  0.00    -0.004 A 
HETATM   10  C9  UNL     1      31.097   8.362  49.464  1.00  0.00     0.116 C 
HETATM   11  S1  UNL     1      31.785   7.997  47.819  1.00  0.00    -0.011 SA
HETATM   12  O1  UNL     1      30.980   8.440  46.454  1.00  0.00    -0.319 OA
HETATM   13  C10 UNL     1      30.180   9.635  46.488  1.00  0.00     0.202 C 
HETATM   14  C11 UNL     1      28.826   9.415  49.536  1.00  0.00     0.065 C 
HETATM   15  C12 UNL     1      28.586   6.497  47.849  1.00  0.00     0.092 C 
HETATM   16  C13 UNL     1      28.032   5.374  48.340  1.00  0.00     0.044 C 
HETATM   17  C14 UNL     1      26.758   5.055  49.034  1.00  0.00     0.069 C 
HETATM   18 CL1  UNL     1      26.765   3.587  49.971  1.00  0.00    -0.081 Cl
HETATM   19  C15 UNL     1      25.624   5.775  49.005  1.00  0.00     0.092 C 
ENDROOT
BRANCH  19  20
HETATM   20  O2  UNL     1      24.667   5.134  49.786  1.00  0.00    -0.358 OA
HETATM   21  H16 UNL     1      24.389   5.608  50.641  1.00  0.00     0.217 HD
ENDBRANCH  19  20
TORSDOF 1
ENDMDL
