MODEL 1
REMARK VINA RESULT:      -7.7      0.000      0.000
REMARK  6 active torsions:
REMARK  status: ('A' for Active; 'I' for Inactive)
REMARK    1  A    between atoms: C5_6  and  C6_7 
REMARK    2  A    between atoms: C6_7  and  O1_8 
REMARK    3  A    between atoms: O1_8  and  C7_9 
REMARK    4  A    between atoms: C10_12  and  N1_13 
REMARK    5  A    between atoms: N1_13  and  C11_14 
REMARK    6  A    between atoms: C12_15  and  C13_16 
ROOT
HETATM    1  C7  UNL     1      23.433   0.239  53.315  1.00  0.00     0.091 A 
HETATM    2  C8  UNL     1      22.257   0.483  52.647  1.00  0.00     0.041 A 
HETATM    3  C9  UNL     1      21.055  -0.100  52.947  1.00  0.00     0.032 A 
HETATM    4  C10 UNL     1      21.013  -0.999  53.994  1.00  0.00     0.033 A 
HETATM    5  C14 UNL     1      22.144  -1.300  54.715  1.00  0.00     0.056 A 
HETATM    6  C15 UNL     1      23.352  -0.679  54.373  1.00  0.00     0.069 A 
HETATM    7 CL1  UNL     1      24.653  -1.232  55.445  1.00  0.00    -0.081 Cl
ENDROOT
BRANCH   1   8
HETATM    8  O1  UNL     1      24.723   0.647  53.252  1.00  0.00    -0.345 OA
BRANCH   8   9
HETATM    9  C6  UNL     1      25.664   0.692  52.257  1.00  0.00     0.214 C 
BRANCH   9  10
HETATM   10  C5  UNL     1      26.923   0.047  52.680  1.00  0.00    -0.031 A 
HETATM   11  C4  UNL     1      27.870   0.963  53.157  1.00  0.00     0.009 A 
HETATM   12  C3  UNL     1      29.098   0.533  53.611  1.00  0.00     0.004 A 
HETATM   13  C2  UNL     1      29.448  -0.800  53.617  1.00  0.00     0.042 A 
HETATM   14  C1  UNL     1      28.532  -1.726  53.153  1.00  0.00     0.117 A 
HETATM   15  F1  UNL     1      28.710  -3.072  53.089  1.00  0.00    -0.206 F 
HETATM   16  C16 UNL     1      27.315  -1.271  52.706  1.00  0.00     0.051 A 
ENDBRANCH   9  10
ENDBRANCH   8   9
ENDBRANCH   1   8
BRANCH   4  17
HETATM   17  N1  UNL     1      19.697  -1.535  54.204  1.00  0.00    -0.366 N 
HETATM   18  H8  UNL     1      19.728  -2.169  55.031  1.00  0.00     0.165 HD
BRANCH  17  19
HETATM   19  C11 UNL     1      18.593  -1.215  53.388  1.00  0.00     0.085 C 
HETATM   20  C12 UNL     1      17.624  -2.088  53.183  1.00  0.00     0.000 C 
BRANCH  20  21
HETATM   21  C13 UNL     1      17.377  -3.477  53.645  1.00  0.00     0.108 C 
HETATM   22  I1  UNL     1      15.521  -4.156  52.829  1.00  0.00    -0.086 I 
ENDBRANCH  20  21
ENDBRANCH  17  19
ENDBRANCH   4  17
TORSDOF 6
ENDMDL
MODEL 2
REMARK VINA RESULT:      -7.6      2.183      2.673
REMARK  6 active torsions:
REMARK  status: ('A' for Active; 'I' for Inactive)
REMARK    1  A    between atoms: C5_6  and  C6_7 
REMARK    2  A    between atoms: C6_7  and  O1_8 
REMARK    3  A    between atoms: O1_8  and  C7_9 
REMARK    4  A    between atoms: C10_12  and  N1_13 
REMARK    5  A    between atoms: N1_13  and  C11_14 
REMARK    6  A    between atoms: C12_15  and  C13_16 
ROOT
HETATM    1  C7  UNL     1      23.527  -0.383  53.735  1.00  0.00     0.091 A 
HETATM    2  C8  UNL     1      22.787  -1.102  54.642  1.00  0.00     0.041 A 
HETATM    3  C9  UNL     1      21.418  -1.145  54.671  1.00  0.00     0.032 A 
HETATM    4  C10 UNL     1      20.726  -0.416  53.725  1.00  0.00     0.033 A 
HETATM    5  C14 UNL     1      21.390   0.331  52.781  1.00  0.00     0.056 A 
HETATM    6  C15 UNL     1      22.790   0.344  52.789  1.00  0.00     0.069 A 
HETATM    7 CL1  UNL     1      23.403   1.375  51.481  1.00  0.00    -0.081 Cl
ENDROOT
BRANCH   1   8
HETATM    8  O1  UNL     1      24.836  -0.156  53.468  1.00  0.00    -0.345 OA
BRANCH   8   9
HETATM    9  C6  UNL     1      25.866  -0.930  53.007  1.00  0.00     0.214 C 
BRANCH   9  10
HETATM   10  C5  UNL     1      27.172  -0.280  53.240  1.00  0.00    -0.031 A 
HETATM   11  C4  UNL     1      28.236  -1.192  53.266  1.00  0.00     0.009 A 
HETATM   12  C3  UNL     1      29.529  -0.757  53.457  1.00  0.00     0.004 A 
HETATM   13  C2  UNL     1      29.834   0.576  53.628  1.00  0.00     0.042 A 
HETATM   14  C1  UNL     1      28.802   1.497  53.605  1.00  0.00     0.117 A 
HETATM   15  F1  UNL     1      28.922   2.843  53.756  1.00  0.00    -0.206 F 
HETATM   16  C16 UNL     1      27.522   1.037  53.415  1.00  0.00     0.051 A 
ENDBRANCH   9  10
ENDBRANCH   8   9
ENDBRANCH   1   8
BRANCH   4  17
HETATM   17  N1  UNL     1      19.302  -0.548  53.865  1.00  0.00    -0.366 N 
HETATM   18  H8  UNL     1      18.925   0.345  54.248  1.00  0.00     0.165 HD
BRANCH  17  19
HETATM   19  C11 UNL     1      18.597  -1.720  53.522  1.00  0.00     0.085 C 
HETATM   20  C12 UNL     1      17.409  -1.656  52.953  1.00  0.00     0.000 C 
BRANCH  20  21
HETATM   21  C13 UNL     1      16.527  -0.535  52.537  1.00  0.00     0.108 C 
HETATM   22  I1  UNL     1      17.078   0.081  50.565  1.00  0.00    -0.086 I 
ENDBRANCH  20  21
ENDBRANCH  17  19
ENDBRANCH   4  17
TORSDOF 6
ENDMDL
MODEL 3
REMARK VINA RESULT:      -7.5      1.747      2.087
REMARK  6 active torsions:
REMARK  status: ('A' for Active; 'I' for Inactive)
REMARK    1  A    between atoms: C5_6  and  C6_7 
REMARK    2  A    between atoms: C6_7  and  O1_8 
REMARK    3  A    between atoms: O1_8  and  C7_9 
REMARK    4  A    between atoms: C10_12  and  N1_13 
REMARK    5  A    between atoms: N1_13  and  C11_14 
REMARK    6  A    between atoms: C12_15  and  C13_16 
ROOT
HETATM    1  C7  UNL     1      23.589  -0.210  53.372  1.00  0.00     0.091 A 
HETATM    2  C8  UNL     1      23.007  -0.924  54.392  1.00  0.00     0.041 A 
HETATM    3  C9  UNL     1      21.657  -1.065  54.573  1.00  0.00     0.032 A 
HETATM    4  C10 UNL     1      20.814  -0.451  53.669  1.00  0.00     0.033 A 
HETATM    5  C14 UNL     1      21.313   0.282  52.619  1.00  0.00     0.056 A 
HETATM    6  C15 UNL     1      22.701   0.400  52.473  1.00  0.00     0.069 A 
HETATM    7 CL1  UNL     1      23.089   1.389  51.052  1.00  0.00    -0.081 Cl
ENDROOT
BRANCH   1   8
HETATM    8  O1  UNL     1      24.840   0.096  52.952  1.00  0.00    -0.345 OA
BRANCH   8   9
HETATM    9  C6  UNL     1      25.850   0.878  53.446  1.00  0.00     0.214 C 
BRANCH   9  10
HETATM   10  C5  UNL     1      27.144   0.167  53.409  1.00  0.00    -0.031 A 
HETATM   11  C4  UNL     1      28.230   1.001  53.706  1.00  0.00     0.009 A 
HETATM   12  C3  UNL     1      29.514   0.501  53.733  1.00  0.00     0.004 A 
HETATM   13  C2  UNL     1      29.786  -0.825  53.473  1.00  0.00     0.042 A 
HETATM   14  C1  UNL     1      28.732  -1.670  53.178  1.00  0.00     0.117 A 
HETATM   15  F1  UNL     1      28.820  -2.998  52.899  1.00  0.00    -0.206 F 
HETATM   16  C16 UNL     1      27.463  -1.146  53.157  1.00  0.00     0.051 A 
ENDBRANCH   9  10
ENDBRANCH   8   9
ENDBRANCH   1   8
BRANCH   4  17
HETATM   17  N1  UNL     1      19.427  -0.679  53.970  1.00  0.00    -0.366 N 
HETATM   18  H8  UNL     1      19.062   0.151  54.484  1.00  0.00     0.165 HD
BRANCH  17  19
HETATM   19  C11 UNL     1      18.740  -1.854  53.603  1.00  0.00     0.085 C 
HETATM   20  C12 UNL     1      17.548  -1.795  53.038  1.00  0.00     0.000 C 
BRANCH  20  21
HETATM   21  C13 UNL     1      16.649  -0.679  52.651  1.00  0.00     0.108 C 
HETATM   22  I1  UNL     1      17.291   0.104  50.767  1.00  0.00    -0.086 I 
ENDBRANCH  20  21
ENDBRANCH  17  19
ENDBRANCH   4  17
TORSDOF 6
ENDMDL
MODEL 4
REMARK VINA RESULT:      -7.0      2.051      2.430
REMARK  6 active torsions:
REMARK  status: ('A' for Active; 'I' for Inactive)
REMARK    1  A    between atoms: C5_6  and  C6_7 
REMARK    2  A    between atoms: C6_7  and  O1_8 
REMARK    3  A    between atoms: O1_8  and  C7_9 
REMARK    4  A    between atoms: C10_12  and  N1_13 
REMARK    5  A    between atoms: N1_13  and  C11_14 
REMARK    6  A    between atoms: C12_15  and  C13_16 
ROOT
HETATM    1  C7  UNL     1      23.396   0.161  53.030  1.00  0.00     0.091 A 
HETATM    2  C8  UNL     1      22.656   0.751  52.034  1.00  0.00     0.041 A 
HETATM    3  C9  UNL     1      21.288   0.713  51.952  1.00  0.00     0.032 A 
HETATM    4  C10 UNL     1      20.599   0.037  52.937  1.00  0.00     0.033 A 
HETATM    5  C14 UNL     1      21.262  -0.582  53.971  1.00  0.00     0.056 A 
HETATM    6  C15 UNL     1      22.660  -0.517  54.014  1.00  0.00     0.069 A 
HETATM    7 CL1  UNL     1      23.273  -1.388  55.434  1.00  0.00    -0.081 Cl
ENDROOT
BRANCH   1   8
HETATM    8  O1  UNL     1      24.702   0.033  53.363  1.00  0.00    -0.345 OA
BRANCH   8   9
HETATM    9  C6  UNL     1      25.712  -0.804  52.969  1.00  0.00     0.214 C 
BRANCH   9  10
HETATM   10  C5  UNL     1      27.037  -0.201  53.220  1.00  0.00    -0.031 A 
HETATM   11  C4  UNL     1      28.071  -1.146  53.232  1.00  0.00     0.009 A 
HETATM   12  C3  UNL     1      29.377  -0.757  53.436  1.00  0.00     0.004 A 
HETATM   13  C2  UNL     1      29.723   0.563  53.634  1.00  0.00     0.042 A 
HETATM   14  C1  UNL     1      28.722   1.517  53.625  1.00  0.00     0.117 A 
HETATM   15  F1  UNL     1      28.884   2.855  53.803  1.00  0.00    -0.206 F 
HETATM   16  C16 UNL     1      27.428   1.101  53.421  1.00  0.00     0.051 A 
ENDBRANCH   9  10
ENDBRANCH   8   9
ENDBRANCH   1   8
BRANCH   4  17
HETATM   17  N1  UNL     1      19.176   0.075  52.736  1.00  0.00    -0.366 N 
HETATM   18  H8  UNL     1      18.919   1.021  52.383  1.00  0.00     0.165 HD
BRANCH  17  19
HETATM   19  C11 UNL     1      18.330  -1.023  52.993  1.00  0.00     0.085 C 
HETATM   20  C12 UNL     1      17.048  -0.980  52.681  1.00  0.00     0.000 C 
BRANCH  20  21
HETATM   21  C13 UNL     1      16.175   0.048  52.060  1.00  0.00     0.108 C 
HETATM   22  I1  UNL     1      16.519   0.060  49.949  1.00  0.00    -0.086 I 
ENDBRANCH  20  21
ENDBRANCH  17  19
ENDBRANCH   4  17
TORSDOF 6
ENDMDL
MODEL 5
REMARK VINA RESULT:      -7.0      5.182      6.485
REMARK  6 active torsions:
REMARK  status: ('A' for Active; 'I' for Inactive)
REMARK    1  A    between atoms: C5_6  and  C6_7 
REMARK    2  A    between atoms: C6_7  and  O1_8 
REMARK    3  A    between atoms: O1_8  and  C7_9 
REMARK    4  A    between atoms: C10_12  and  N1_13 
REMARK    5  A    between atoms: N1_13  and  C11_14 
REMARK    6  A    between atoms: C12_15  and  C13_16 
ROOT
HETATM    1  C7  UNL     1      23.713   1.641  52.793  1.00  0.00     0.091 A 
HETATM    2  C8  UNL     1      24.348   2.818  53.110  1.00  0.00     0.041 A 
HETATM    3  C9  UNL     1      23.835   4.067  52.878  1.00  0.00     0.032 A 
HETATM    4  C10 UNL     1      22.593   4.158  52.284  1.00  0.00     0.033 A 
HETATM    5  C14 UNL     1      21.890   3.030  51.935  1.00  0.00     0.056 A 
HETATM    6  C15 UNL     1      22.453   1.774  52.191  1.00  0.00     0.069 A 
HETATM    7 CL1  UNL     1      21.357   0.487  51.650  1.00  0.00    -0.081 Cl
ENDROOT
BRANCH   1   8
HETATM    8  O1  UNL     1      23.958   0.313  52.895  1.00  0.00    -0.345 OA
BRANCH   8   9
HETATM    9  C6  UNL     1      24.447  -0.495  53.886  1.00  0.00     0.214 C 
BRANCH   9  10
HETATM   10  C5  UNL     1      25.924  -0.505  53.890  1.00  0.00    -0.031 A 
HETATM   11  C4  UNL     1      26.464  -1.355  52.916  1.00  0.00     0.009 A 
HETATM   12  C3  UNL     1      27.829  -1.475  52.766  1.00  0.00     0.004 A 
HETATM   13  C2  UNL     1      28.714  -0.775  53.556  1.00  0.00     0.042 A 
HETATM   14  C1  UNL     1      28.208   0.072  54.525  1.00  0.00     0.117 A 
HETATM   15  F1  UNL     1      28.933   0.835  55.386  1.00  0.00    -0.206 F 
HETATM   16  C16 UNL     1      26.844   0.173  54.653  1.00  0.00     0.051 A 
ENDBRANCH   9  10
ENDBRANCH   8   9
ENDBRANCH   1   8
BRANCH   4  17
HETATM   17  N1  UNL     1      22.172   5.520  52.099  1.00  0.00    -0.366 N 
HETATM   18  H8  UNL     1      21.909   5.912  53.028  1.00  0.00     0.165 HD
BRANCH  17  19
HETATM   19  C11 UNL     1      22.145   6.156  50.841  1.00  0.00     0.085 C 
HETATM   20  C12 UNL     1      23.203   6.796  50.381  1.00  0.00     0.000 C 
BRANCH  20  21
HETATM   21  C13 UNL     1      24.567   7.044  50.913  1.00  0.00     0.108 C 
HETATM   22  I1  UNL     1      25.526   8.516  49.694  1.00  0.00    -0.086 I 
ENDBRANCH  20  21
ENDBRANCH  17  19
ENDBRANCH   4  17
TORSDOF 6
ENDMDL
MODEL 6
REMARK VINA RESULT:      -6.9      2.660      3.125
REMARK  6 active torsions:
REMARK  status: ('A' for Active; 'I' for Inactive)
REMARK    1  A    between atoms: C5_6  and  C6_7 
REMARK    2  A    between atoms: C6_7  and  O1_8 
REMARK    3  A    between atoms: O1_8  and  C7_9 
REMARK    4  A    between atoms: C10_12  and  N1_13 
REMARK    5  A    between atoms: N1_13  and  C11_14 
REMARK    6  A    between atoms: C12_15  and  C13_16 
ROOT
HETATM    1  C7  UNL     1      23.609   0.156  53.130  1.00  0.00     0.091 A 
HETATM    2  C8  UNL     1      23.058   0.888  52.106  1.00  0.00     0.041 A 
HETATM    3  C9  UNL     1      21.713   1.072  51.916  1.00  0.00     0.032 A 
HETATM    4  C10 UNL     1      20.845   0.484  52.812  1.00  0.00     0.033 A 
HETATM    5  C14 UNL     1      21.313  -0.265  53.865  1.00  0.00     0.056 A 
HETATM    6  C15 UNL     1      22.695  -0.427  54.021  1.00  0.00     0.069 A 
HETATM    7 CL1  UNL     1      23.040  -1.429  55.445  1.00  0.00    -0.081 Cl
ENDROOT
BRANCH   1   8
HETATM    8  O1  UNL     1      24.846  -0.190  53.560  1.00  0.00    -0.345 OA
BRANCH   8   9
HETATM    9  C6  UNL     1      25.855  -0.960  53.047  1.00  0.00     0.214 C 
BRANCH   9  10
HETATM   10  C5  UNL     1      27.174  -0.334  53.271  1.00  0.00    -0.031 A 
HETATM   11  C4  UNL     1      28.224  -1.262  53.267  1.00  0.00     0.009 A 
HETATM   12  C3  UNL     1      29.527  -0.851  53.445  1.00  0.00     0.004 A 
HETATM   13  C2  UNL     1      29.854   0.475  53.632  1.00  0.00     0.042 A 
HETATM   14  C1  UNL     1      28.838   1.412  53.638  1.00  0.00     0.117 A 
HETATM   15  F1  UNL     1      28.981   2.753  53.808  1.00  0.00    -0.206 F 
HETATM   16  C16 UNL     1      27.547   0.975  53.460  1.00  0.00     0.051 A 
ENDBRANCH   9  10
ENDBRANCH   8   9
ENDBRANCH   1   8
BRANCH   4  17
HETATM   17  N1  UNL     1      19.468   0.756  52.501  1.00  0.00    -0.366 N 
HETATM   18  H8  UNL     1      19.182   1.622  53.004  1.00  0.00     0.165 HD
BRANCH  17  19
HETATM   19  C11 UNL     1      18.694  -0.058  51.648  1.00  0.00     0.085 C 
HETATM   20  C12 UNL     1      18.311   0.374  50.461  1.00  0.00     0.000 C 
BRANCH  20  21
HETATM   21  C13 UNL     1      18.511   1.642  49.714  1.00  0.00     0.108 C 
HETATM   22  I1  UNL     1      16.610   2.576  49.420  1.00  0.00    -0.086 I 
ENDBRANCH  20  21
ENDBRANCH  17  19
ENDBRANCH   4  17
TORSDOF 6
ENDMDL
MODEL 7
REMARK VINA RESULT:      -6.9      3.925      4.820
REMARK  6 active torsions:
REMARK  status: ('A' for Active; 'I' for Inactive)
REMARK    1  A    between atoms: C5_6  and  C6_7 
REMARK    2  A    between atoms: C6_7  and  O1_8 
REMARK    3  A    between atoms: O1_8  and  C7_9 
REMARK    4  A    between atoms: C10_12  and  N1_13 
REMARK    5  A    between atoms: N1_13  and  C11_14 
REMARK    6  A    between atoms: C12_15  and  C13_16 
ROOT
HETATM    1  C7  UNL     1      24.128   0.438  52.789  1.00  0.00     0.091 A 
HETATM    2  C8  UNL     1      24.116   1.358  51.768  1.00  0.00     0.041 A 
HETATM    3  C9  UNL     1      22.991   1.973  51.286  1.00  0.00     0.032 A 
HETATM    4  C10 UNL     1      21.779   1.652  51.863  1.00  0.00     0.033 A 
HETATM    5  C14 UNL     1      21.702   0.742  52.890  1.00  0.00     0.056 A 
HETATM    6  C15 UNL     1      22.878   0.137  53.351  1.00  0.00     0.069 A 
HETATM    7 CL1  UNL     1      22.514  -0.991  54.671  1.00  0.00    -0.081 Cl
ENDROOT
BRANCH   1   8
HETATM    8  O1  UNL     1      25.043  -0.307  53.454  1.00  0.00    -0.345 OA
BRANCH   8   9
HETATM    9  C6  UNL     1      26.061  -1.138  53.069  1.00  0.00     0.214 C 
BRANCH   9  10
HETATM   10  C5  UNL     1      27.380  -0.536  53.352  1.00  0.00    -0.031 A 
HETATM   11  C4  UNL     1      28.431  -1.456  53.245  1.00  0.00     0.009 A 
HETATM   12  C3  UNL     1      29.734  -1.063  53.459  1.00  0.00     0.004 A 
HETATM   13  C2  UNL     1      30.061   0.236  53.785  1.00  0.00     0.042 A 
HETATM   14  C1  UNL     1      29.042   1.165  53.896  1.00  0.00     0.117 A 
HETATM   15  F1  UNL     1      29.183   2.481  54.207  1.00  0.00    -0.206 F 
HETATM   16  C16 UNL     1      27.752   0.746  53.677  1.00  0.00     0.051 A 
ENDBRANCH   9  10
ENDBRANCH   8   9
ENDBRANCH   1   8
BRANCH   4  17
HETATM   17  N1  UNL     1      20.683   2.366  51.269  1.00  0.00    -0.366 N 
HETATM   18  H8  UNL     1      20.343   1.823  50.448  1.00  0.00     0.165 HD
BRANCH  17  19
HETATM   19  C11 UNL     1      20.201   3.594  51.766  1.00  0.00     0.085 C 
HETATM   20  C12 UNL     1      20.551   4.738  51.208  1.00  0.00     0.000 C 
BRANCH  20  21
HETATM   21  C13 UNL     1      21.423   5.097  50.062  1.00  0.00     0.108 C 
HETATM   22  I1  UNL     1      23.232   5.956  50.813  1.00  0.00    -0.086 I 
ENDBRANCH  20  21
ENDBRANCH  17  19
ENDBRANCH   4  17
TORSDOF 6
ENDMDL
MODEL 8
REMARK VINA RESULT:      -6.9      6.504      8.498
REMARK  6 active torsions:
REMARK  status: ('A' for Active; 'I' for Inactive)
REMARK    1  A    between atoms: C5_6  and  C6_7 
REMARK    2  A    between atoms: C6_7  and  O1_8 
REMARK    3  A    between atoms: O1_8  and  C7_9 
REMARK    4  A    between atoms: C10_12  and  N1_13 
REMARK    5  A    between atoms: N1_13  and  C11_14 
REMARK    6  A    between atoms: C12_15  and  C13_16 
ROOT
HETATM    1  C7  UNL     1      25.594   2.751  51.217  1.00  0.00     0.091 A 
HETATM    2  C8  UNL     1      26.538   2.902  50.230  1.00  0.00     0.041 A 
HETATM    3  C9  UNL     1      26.619   3.978  49.386  1.00  0.00     0.032 A 
HETATM    4  C10 UNL     1      25.690   4.987  49.532  1.00  0.00     0.033 A 
HETATM    5  C14 UNL     1      24.711   4.917  50.495  1.00  0.00     0.056 A 
HETATM    6  C15 UNL     1      24.667   3.798  51.336  1.00  0.00     0.069 A 
HETATM    7 CL1  UNL     1      23.322   3.944  52.484  1.00  0.00    -0.081 Cl
ENDROOT
BRANCH   1   8
HETATM    8  O1  UNL     1      25.275   1.839  52.166  1.00  0.00    -0.345 OA
BRANCH   8   9
HETATM    9  C6  UNL     1      25.621   0.534  52.393  1.00  0.00     0.214 C 
BRANCH   9  10
HETATM   10  C5  UNL     1      26.974   0.432  52.976  1.00  0.00    -0.031 A 
HETATM   11  C4  UNL     1      27.539  -0.841  52.819  1.00  0.00     0.009 A 
HETATM   12  C3  UNL     1      28.806  -1.111  53.289  1.00  0.00     0.004 A 
HETATM   13  C2  UNL     1      29.567  -0.155  53.926  1.00  0.00     0.042 A 
HETATM   14  C1  UNL     1      29.034   1.110  54.093  1.00  0.00     0.117 A 
HETATM   15  F1  UNL     1      29.643   2.167  54.694  1.00  0.00    -0.206 F 
HETATM   16  C16 UNL     1      27.769   1.352  53.616  1.00  0.00     0.051 A 
ENDBRANCH   9  10
ENDBRANCH   8   9
ENDBRANCH   1   8
BRANCH   4  17
HETATM   17  N1  UNL     1      25.887   6.054  48.590  1.00  0.00    -0.366 N 
HETATM   18  H8  UNL     1      25.413   5.797  47.698  1.00  0.00     0.165 HD
BRANCH  17  19
HETATM   19  C11 UNL     1      26.612   7.226  48.889  1.00  0.00     0.085 C 
HETATM   20  C12 UNL     1      27.876   7.353  48.530  1.00  0.00     0.000 C 
BRANCH  20  21
HETATM   21  C13 UNL     1      28.833   6.475  47.810  1.00  0.00     0.108 C 
HETATM   22  I1  UNL     1      30.825   7.064  48.318  1.00  0.00    -0.086 I 
ENDBRANCH  20  21
ENDBRANCH  17  19
ENDBRANCH   4  17
TORSDOF 6
ENDMDL
MODEL 9
REMARK VINA RESULT:      -6.8      2.620      3.162
REMARK  6 active torsions:
REMARK  status: ('A' for Active; 'I' for Inactive)
REMARK    1  A    between atoms: C5_6  and  C6_7 
REMARK    2  A    between atoms: C6_7  and  O1_8 
REMARK    3  A    between atoms: O1_8  and  C7_9 
REMARK    4  A    between atoms: C10_12  and  N1_13 
REMARK    5  A    between atoms: N1_13  and  C11_14 
REMARK    6  A    between atoms: C12_15  and  C13_16 
ROOT
HETATM    1  C7  UNL     1      23.141  -0.508  53.574  1.00  0.00     0.091 A 
HETATM    2  C8  UNL     1      22.218  -1.218  54.304  1.00  0.00     0.041 A 
HETATM    3  C9  UNL     1      20.863  -1.163  54.111  1.00  0.00     0.032 A 
HETATM    4  C10 UNL     1      20.383  -0.338  53.114  1.00  0.00     0.033 A 
HETATM    5  C14 UNL     1      21.238   0.407  52.338  1.00  0.00     0.056 A 
HETATM    6  C15 UNL     1      22.616   0.319  52.570  1.00  0.00     0.069 A 
HETATM    7 CL1  UNL     1      23.498   1.370  51.445  1.00  0.00    -0.081 Cl
ENDROOT
BRANCH   1   8
HETATM    8  O1  UNL     1      24.487  -0.362  53.535  1.00  0.00    -0.345 OA
BRANCH   8   9
HETATM    9  C6  UNL     1      25.509  -0.677  54.390  1.00  0.00     0.214 C 
BRANCH   9  10
HETATM   10  C5  UNL     1      26.722   0.109  54.090  1.00  0.00    -0.031 A 
HETATM   11  C4  UNL     1      26.457   1.475  53.922  1.00  0.00     0.009 A 
HETATM   12  C3  UNL     1      27.476   2.362  53.653  1.00  0.00     0.004 A 
HETATM   13  C2  UNL     1      28.787   1.953  53.537  1.00  0.00     0.042 A 
HETATM   14  C1  UNL     1      29.077   0.610  53.699  1.00  0.00     0.117 A 
HETATM   15  F1  UNL     1      30.308   0.038  53.619  1.00  0.00    -0.206 F 
HETATM   16  C16 UNL     1      28.042  -0.252  53.966  1.00  0.00     0.051 A 
ENDBRANCH   9  10
ENDBRANCH   8   9
ENDBRANCH   1   8
BRANCH   4  17
HETATM   17  N1  UNL     1      18.949  -0.374  53.016  1.00  0.00    -0.366 N 
HETATM   18  H8  UNL     1      18.554  -0.395  53.980  1.00  0.00     0.165 HD
BRANCH  17  19
HETATM   19  C11 UNL     1      18.259  -0.378  51.787  1.00  0.00     0.085 C 
HETATM   20  C12 UNL     1      17.906   0.751  51.202  1.00  0.00     0.000 C 
BRANCH  20  21
HETATM   21  C13 UNL     1      18.069   2.185  51.553  1.00  0.00     0.108 C 
HETATM   22  I1  UNL     1      16.225   3.201  51.177  1.00  0.00    -0.086 I 
ENDBRANCH  20  21
ENDBRANCH  17  19
ENDBRANCH   4  17
TORSDOF 6
ENDMDL
