MODEL 1
REMARK VINA RESULT:      -8.1      0.000      0.000
REMARK  3 active torsions:
REMARK  status: ('A' for Active; 'I' for Inactive)
REMARK    1  A    between atoms: C2_2  and  C3_3 
REMARK       I    between atoms: C3_3  and  N1_5 
REMARK    2  A    between atoms: N1_5  and  C4_6 
REMARK    3  A    between atoms: C9_13  and  N4_14 
ROOT
HETATM    1  C4  UNL     1      25.291  -0.665  53.983  1.00  0.00     0.036 A 
HETATM    2  C5  UNL     1      24.670  -1.272  55.049  1.00  0.00     0.032 A 
HETATM    3  C6  UNL     1      23.330  -1.186  55.354  1.00  0.00     0.035 A 
HETATM    4  C7  UNL     1      22.526  -0.428  54.530  1.00  0.00     0.072 A 
HETATM    5  N2  UNL     1      21.209  -0.319  54.786  1.00  0.00    -0.241 NA
HETATM    6  C8  UNL     1      20.465   0.434  53.939  1.00  0.00     0.236 A 
HETATM    7  N3  UNL     1      21.007   1.067  52.863  1.00  0.00    -0.223 NA
HETATM    8  C9  UNL     1      22.331   0.951  52.616  1.00  0.00     0.147 A 
HETATM    9  C15 UNL     1      23.105   0.200  53.449  1.00  0.00     0.041 A 
HETATM   10  C16 UNL     1      24.450   0.076  53.196  1.00  0.00     0.047 A 
ENDROOT
BRANCH   8  11
HETATM   11  N4  UNL     1      22.838   1.623  51.491  1.00  0.00    -0.315 N 
HETATM   12  C10 UNL     1      22.090   1.259  50.305  1.00  0.00     0.110 C 
HETATM   13  C11 UNL     1      22.217   1.948  49.186  1.00  0.00    -0.007 C 
HETATM   14  C12 UNL     1      23.342   2.608  48.976  1.00  0.00     0.034 C 
HETATM   15  C13 UNL     1      24.162   3.042  50.129  1.00  0.00     0.027 C 
HETATM   16 BR1  UNL     1      25.594   4.281  50.034  1.00  0.00    -0.050 Br
HETATM   17  C14 UNL     1      23.908   2.560  51.332  1.00  0.00     0.117 C 
ENDBRANCH   8  11
BRANCH   1  18
HETATM   18  N1  UNL     1      26.647  -0.725  53.634  1.00  0.00    -0.324 N 
HETATM   19  C3  UNL     1      27.730   0.016  54.157  1.00  0.00     0.241 C 
HETATM   20  O1  UNL     1      27.535   0.862  55.059  1.00  0.00    -0.269 OA
HETATM   21  H4  UNL     1      26.982  -1.377  52.898  1.00  0.00     0.169 HD
BRANCH  19  22
HETATM   22  C2  UNL     1      29.131  -0.061  53.783  1.00  0.00     0.048 C 
HETATM   23  C1  UNL     1      29.029  -1.337  53.387  1.00  0.00     0.037 C 
ENDBRANCH  19  22
ENDBRANCH   1  18
TORSDOF 3
ENDMDL
MODEL 2
REMARK VINA RESULT:      -8.0      1.703      2.351
REMARK  3 active torsions:
REMARK  status: ('A' for Active; 'I' for Inactive)
REMARK    1  A    between atoms: C2_2  and  C3_3 
REMARK       I    between atoms: C3_3  and  N1_5 
REMARK    2  A    between atoms: N1_5  and  C4_6 
REMARK    3  A    between atoms: C9_13  and  N4_14 
ROOT
HETATM    1  C4  UNL     1      25.666   0.372  52.924  1.00  0.00     0.036 A 
HETATM    2  C5  UNL     1      24.802  -0.532  53.496  1.00  0.00     0.032 A 
HETATM    3  C6  UNL     1      23.434  -0.399  53.573  1.00  0.00     0.035 A 
HETATM    4  C7  UNL     1      22.863   0.733  53.034  1.00  0.00     0.072 A 
HETATM    5  N2  UNL     1      21.528   0.904  53.081  1.00  0.00    -0.241 NA
HETATM    6  C8  UNL     1      21.020   2.033  52.530  1.00  0.00     0.236 A 
HETATM    7  N3  UNL     1      21.810   2.976  51.946  1.00  0.00    -0.223 NA
HETATM    8  C9  UNL     1      23.148   2.794  51.905  1.00  0.00     0.147 A 
HETATM    9  C15 UNL     1      23.689   1.669  52.450  1.00  0.00     0.041 A 
HETATM   10  C16 UNL     1      25.049   1.479  52.404  1.00  0.00     0.047 A 
ENDROOT
BRANCH   8  11
HETATM   11  N4  UNL     1      23.917   3.797  51.288  1.00  0.00    -0.315 N 
HETATM   12  C10 UNL     1      23.380   5.106  51.599  1.00  0.00     0.110 C 
HETATM   13  C11 UNL     1      24.075   6.200  51.345  1.00  0.00    -0.007 C 
HETATM   14  C12 UNL     1      24.981   6.163  50.385  1.00  0.00     0.034 C 
HETATM   15  C13 UNL     1      25.602   4.872  50.015  1.00  0.00     0.027 C 
HETATM   16 BR1  UNL     1      27.145   4.685  48.928  1.00  0.00    -0.050 Br
HETATM   17  C14 UNL     1      25.079   3.742  50.456  1.00  0.00     0.117 C 
ENDBRANCH   8  11
BRANCH   1  18
HETATM   18  N1  UNL     1      27.061   0.279  52.823  1.00  0.00    -0.324 N 
HETATM   19  C3  UNL     1      28.038   0.485  53.822  1.00  0.00     0.241 C 
HETATM   20  O1  UNL     1      27.691   0.796  54.985  1.00  0.00    -0.269 OA
HETATM   21  H4  UNL     1      27.517   0.031  51.924  1.00  0.00     0.169 HD
BRANCH  19  22
HETATM   22  C2  UNL     1      29.481   0.383  53.699  1.00  0.00     0.048 C 
HETATM   23  C1  UNL     1      29.439  -0.938  53.476  1.00  0.00     0.037 C 
ENDBRANCH  19  22
ENDBRANCH   1  18
TORSDOF 3
ENDMDL
MODEL 3
REMARK VINA RESULT:      -7.7      2.421      5.207
REMARK  3 active torsions:
REMARK  status: ('A' for Active; 'I' for Inactive)
REMARK    1  A    between atoms: C2_2  and  C3_3 
REMARK       I    between atoms: C3_3  and  N1_5 
REMARK    2  A    between atoms: N1_5  and  C4_6 
REMARK    3  A    between atoms: C9_13  and  N4_14 
ROOT
HETATM    1  C4  UNL     1      23.238   2.466  51.589  1.00  0.00     0.036 A 
HETATM    2  C5  UNL     1      21.885   2.384  51.817  1.00  0.00     0.032 A 
HETATM    3  C6  UNL     1      21.266   1.511  52.684  1.00  0.00     0.035 A 
HETATM    4  C7  UNL     1      22.059   0.636  53.394  1.00  0.00     0.072 A 
HETATM    5  N2  UNL     1      21.499  -0.232  54.258  1.00  0.00    -0.241 NA
HETATM    6  C8  UNL     1      22.327  -1.066  54.935  1.00  0.00     0.236 A 
HETATM    7  N3  UNL     1      23.677  -1.046  54.763  1.00  0.00    -0.223 NA
HETATM    8  C9  UNL     1      24.228  -0.171  53.894  1.00  0.00     0.147 A 
HETATM    9  C15 UNL     1      23.422   0.680  53.199  1.00  0.00     0.041 A 
HETATM   10  C16 UNL     1      23.980   1.575  52.318  1.00  0.00     0.047 A 
ENDROOT
BRANCH   8  11
HETATM   11  N4  UNL     1      25.627  -0.192  53.757  1.00  0.00    -0.315 N 
HETATM   12  C10 UNL     1      26.048  -1.395  53.070  1.00  0.00     0.110 C 
HETATM   13  C11 UNL     1      27.279  -1.513  52.606  1.00  0.00    -0.007 C 
HETATM   14  C12 UNL     1      28.240  -0.811  53.179  1.00  0.00     0.034 C 
HETATM   15  C13 UNL     1      27.906   0.446  53.885  1.00  0.00     0.027 C 
HETATM   16 BR1  UNL     1      29.172   1.739  54.450  1.00  0.00    -0.050 Br
HETATM   17  C14 UNL     1      26.645   0.730  54.156  1.00  0.00     0.117 C 
ENDBRANCH   8  11
BRANCH   1  18
HETATM   18  N1  UNL     1      23.909   3.335  50.719  1.00  0.00    -0.324 N 
HETATM   19  C3  UNL     1      24.169   4.716  50.870  1.00  0.00     0.241 C 
HETATM   20  O1  UNL     1      23.777   5.319  51.896  1.00  0.00    -0.269 OA
HETATM   21  H4  UNL     1      24.299   2.995  49.819  1.00  0.00     0.169 HD
BRANCH  19  22
HETATM   22  C2  UNL     1      24.869   5.601  49.958  1.00  0.00     0.048 C 
HETATM   23  C1  UNL     1      25.580   4.601  49.420  1.00  0.00     0.037 C 
ENDBRANCH  19  22
ENDBRANCH   1  18
TORSDOF 3
ENDMDL
MODEL 4
REMARK VINA RESULT:      -7.3      2.656      4.604
REMARK  3 active torsions:
REMARK  status: ('A' for Active; 'I' for Inactive)
REMARK    1  A    between atoms: C2_2  and  C3_3 
REMARK       I    between atoms: C3_3  and  N1_5 
REMARK    2  A    between atoms: N1_5  and  C4_6 
REMARK    3  A    between atoms: C9_13  and  N4_14 
ROOT
HETATM    1  C4  UNL     1      25.986   2.688  52.159  1.00  0.00     0.036 A 
HETATM    2  C5  UNL     1      27.069   2.266  52.893  1.00  0.00     0.032 A 
HETATM    3  C6  UNL     1      27.081   1.208  53.775  1.00  0.00     0.035 A 
HETATM    4  C7  UNL     1      25.912   0.500  53.950  1.00  0.00     0.072 A 
HETATM    5  N2  UNL     1      25.876  -0.545  54.798  1.00  0.00    -0.241 NA
HETATM    6  C8  UNL     1      24.702  -1.210  54.927  1.00  0.00     0.236 A 
HETATM    7  N3  UNL     1      23.585  -0.852  54.235  1.00  0.00    -0.223 NA
HETATM    8  C9  UNL     1      23.632   0.199  53.387  1.00  0.00     0.147 A 
HETATM    9  C15 UNL     1      24.799   0.887  53.236  1.00  0.00     0.041 A 
HETATM   10  C16 UNL     1      24.851   1.952  52.370  1.00  0.00     0.047 A 
ENDROOT
BRANCH   8  11
HETATM   11  N4  UNL     1      22.451   0.524  52.697  1.00  0.00    -0.315 N 
HETATM   12  C10 UNL     1      21.333   0.590  53.615  1.00  0.00     0.110 C 
HETATM   13  C11 UNL     1      20.183   1.122  53.243  1.00  0.00    -0.007 C 
HETATM   14  C12 UNL     1      19.874   1.124  51.959  1.00  0.00     0.034 C 
HETATM   15  C13 UNL     1      20.953   1.082  50.947  1.00  0.00     0.027 C 
HETATM   16 BR1  UNL     1      20.717   1.427  49.098  1.00  0.00    -0.050 Br
HETATM   17  C14 UNL     1      22.187   0.792  51.317  1.00  0.00     0.117 C 
ENDBRANCH   8  11
BRANCH   1  18
HETATM   18  N1  UNL     1      25.929   3.755  51.253  1.00  0.00    -0.324 N 
HETATM   19  C3  UNL     1      26.415   3.821  49.928  1.00  0.00     0.241 C 
HETATM   20  O1  UNL     1      26.989   2.830  49.421  1.00  0.00    -0.269 OA
HETATM   21  H4  UNL     1      25.484   4.657  51.515  1.00  0.00     0.169 HD
BRANCH  19  22
HETATM   22  C2  UNL     1      26.344   4.936  49.002  1.00  0.00     0.048 C 
HETATM   23  C1  UNL     1      27.631   4.814  48.646  1.00  0.00     0.037 C 
ENDBRANCH  19  22
ENDBRANCH   1  18
TORSDOF 3
ENDMDL
MODEL 5
REMARK VINA RESULT:      -7.3      2.572      5.199
REMARK  3 active torsions:
REMARK  status: ('A' for Active; 'I' for Inactive)
REMARK    1  A    between atoms: C2_2  and  C3_3 
REMARK       I    between atoms: C3_3  and  N1_5 
REMARK    2  A    between atoms: N1_5  and  C4_6 
REMARK    3  A    between atoms: C9_13  and  N4_14 
ROOT
HETATM    1  C4  UNL     1      22.026   0.150  52.702  1.00  0.00     0.036 A 
HETATM    2  C5  UNL     1      22.202  -0.825  53.654  1.00  0.00     0.032 A 
HETATM    3  C6  UNL     1      23.367  -1.073  54.346  1.00  0.00     0.035 A 
HETATM    4  C7  UNL     1      24.462  -0.283  54.071  1.00  0.00     0.072 A 
HETATM    5  N2  UNL     1      25.621  -0.485  54.727  1.00  0.00    -0.241 NA
HETATM    6  C8  UNL     1      26.664   0.325  54.421  1.00  0.00     0.236 A 
HETATM    7  N3  UNL     1      26.569   1.312  53.489  1.00  0.00    -0.223 NA
HETATM    8  C9  UNL     1      25.401   1.505  52.837  1.00  0.00     0.147 A 
HETATM    9  C15 UNL     1      24.334   0.708  53.123  1.00  0.00     0.041 A 
HETATM   10  C16 UNL     1      23.144   0.906  52.465  1.00  0.00     0.047 A 
ENDROOT
BRANCH   8  11
HETATM   11  N4  UNL     1      25.357   2.540  51.886  1.00  0.00    -0.315 N 
HETATM   12  C10 UNL     1      26.456   2.413  50.952  1.00  0.00     0.110 C 
HETATM   13  C11 UNL     1      26.476   3.113  49.832  1.00  0.00    -0.007 C 
HETATM   14  C12 UNL     1      25.813   4.254  49.788  1.00  0.00     0.034 C 
HETATM   15  C13 UNL     1      24.659   4.464  50.691  1.00  0.00     0.027 C 
HETATM   16 BR1  UNL     1      23.398   5.870  50.525  1.00  0.00    -0.050 Br
HETATM   17  C14 UNL     1      24.453   3.632  51.696  1.00  0.00     0.117 C 
ENDBRANCH   8  11
BRANCH   1  18
HETATM   18  N1  UNL     1      20.863   0.438  51.974  1.00  0.00    -0.324 N 
HETATM   19  C3  UNL     1      19.958   1.510  52.137  1.00  0.00     0.241 C 
HETATM   20  O1  UNL     1      20.152   2.364  53.033  1.00  0.00    -0.269 OA
HETATM   21  H4  UNL     1      20.556  -0.173  51.193  1.00  0.00     0.169 HD
BRANCH  19  22
HETATM   22  C2  UNL     1      18.758   1.794  51.372  1.00  0.00     0.048 C 
HETATM   23  C1  UNL     1      19.083   0.925  50.405  1.00  0.00     0.037 C 
ENDBRANCH  19  22
ENDBRANCH   1  18
TORSDOF 3
ENDMDL
MODEL 6
REMARK VINA RESULT:      -7.3      2.472      4.476
REMARK  3 active torsions:
REMARK  status: ('A' for Active; 'I' for Inactive)
REMARK    1  A    between atoms: C2_2  and  C3_3 
REMARK       I    between atoms: C3_3  and  N1_5 
REMARK    2  A    between atoms: N1_5  and  C4_6 
REMARK    3  A    between atoms: C9_13  and  N4_14 
ROOT
HETATM    1  C4  UNL     1      26.245   1.685  51.706  1.00  0.00     0.036 A 
HETATM    2  C5  UNL     1      26.733   2.616  50.821  1.00  0.00     0.032 A 
HETATM    3  C6  UNL     1      25.975   3.420  50.000  1.00  0.00     0.035 A 
HETATM    4  C7  UNL     1      24.604   3.293  50.058  1.00  0.00     0.072 A 
HETATM    5  N2  UNL     1      23.821   4.061  49.277  1.00  0.00    -0.241 NA
HETATM    6  C8  UNL     1      22.479   3.898  49.378  1.00  0.00     0.236 A 
HETATM    7  N3  UNL     1      21.920   2.996  50.231  1.00  0.00    -0.223 NA
HETATM    8  C9  UNL     1      22.715   2.229  51.009  1.00  0.00     0.147 A 
HETATM    9  C15 UNL     1      24.067   2.371  50.930  1.00  0.00     0.041 A 
HETATM   10  C16 UNL     1      24.878   1.596  51.725  1.00  0.00     0.047 A 
ENDROOT
BRANCH   8  11
HETATM   11  N4  UNL     1      22.085   1.315  51.872  1.00  0.00    -0.315 N 
HETATM   12  C10 UNL     1      20.687   1.172  51.520  1.00  0.00     0.110 C 
HETATM   13  C11 UNL     1      19.962   0.188  52.022  1.00  0.00    -0.007 C 
HETATM   14  C12 UNL     1      20.320  -0.333  53.181  1.00  0.00     0.034 C 
HETATM   15  C13 UNL     1      21.733  -0.254  53.613  1.00  0.00     0.027 C 
HETATM   16 BR1  UNL     1      22.482  -1.237  55.051  1.00  0.00    -0.050 Br
HETATM   17  C14 UNL     1      22.570   0.544  52.974  1.00  0.00     0.117 C 
ENDBRANCH   8  11
BRANCH   1  18
HETATM   18  N1  UNL     1      26.976   0.847  52.560  1.00  0.00    -0.324 N 
HETATM   19  C3  UNL     1      27.718   1.186  53.713  1.00  0.00     0.241 C 
HETATM   20  O1  UNL     1      27.780   2.378  54.091  1.00  0.00    -0.269 OA
HETATM   21  H4  UNL     1      27.030  -0.176  52.388  1.00  0.00     0.169 HD
BRANCH  19  22
HETATM   22  C2  UNL     1      28.469   0.303  54.587  1.00  0.00     0.048 C 
HETATM   23  C1  UNL     1      29.473   0.171  53.708  1.00  0.00     0.037 C 
ENDBRANCH  19  22
ENDBRANCH   1  18
TORSDOF 3
ENDMDL
MODEL 7
REMARK VINA RESULT:      -7.2      3.005      4.415
REMARK  3 active torsions:
REMARK  status: ('A' for Active; 'I' for Inactive)
REMARK    1  A    between atoms: C2_2  and  C3_3 
REMARK       I    between atoms: C3_3  and  N1_5 
REMARK    2  A    between atoms: N1_5  and  C4_6 
REMARK    3  A    between atoms: C9_13  and  N4_14 
ROOT
HETATM    1  C4  UNL     1      26.222   2.509  51.429  1.00  0.00     0.036 A 
HETATM    2  C5  UNL     1      26.959   1.449  51.901  1.00  0.00     0.032 A 
HETATM    3  C6  UNL     1      26.466   0.380  52.614  1.00  0.00     0.035 A 
HETATM    4  C7  UNL     1      25.115   0.355  52.889  1.00  0.00     0.072 A 
HETATM    5  N2  UNL     1      24.586  -0.673  53.579  1.00  0.00    -0.241 NA
HETATM    6  C8  UNL     1      23.252  -0.650  53.816  1.00  0.00     0.236 A 
HETATM    7  N3  UNL     1      22.455   0.365  53.383  1.00  0.00    -0.223 NA
HETATM    8  C9  UNL     1      22.997   1.392  52.691  1.00  0.00     0.147 A 
HETATM    9  C15 UNL     1      24.335   1.396  52.437  1.00  0.00     0.041 A 
HETATM   10  C16 UNL     1      24.888   2.436  51.729  1.00  0.00     0.047 A 
ENDROOT
BRANCH   8  11
HETATM   11  N4  UNL     1      22.128   2.412  52.266  1.00  0.00    -0.315 N 
HETATM   12  C10 UNL     1      20.760   1.937  52.253  1.00  0.00     0.110 C 
HETATM   13  C11 UNL     1      19.752   2.783  52.135  1.00  0.00    -0.007 C 
HETATM   14  C12 UNL     1      19.965   3.939  51.534  1.00  0.00     0.034 C 
HETATM   15  C13 UNL     1      21.329   4.514  51.517  1.00  0.00     0.027 C 
HETATM   16 BR1  UNL     1      21.746   6.296  51.019  1.00  0.00    -0.050 Br
HETATM   17  C14 UNL     1      22.359   3.768  51.870  1.00  0.00     0.117 C 
ENDBRANCH   8  11
BRANCH   1  18
HETATM   18  N1  UNL     1      26.680   3.615  50.701  1.00  0.00    -0.324 N 
HETATM   19  C3  UNL     1      26.067   4.276  49.614  1.00  0.00     0.241 C 
HETATM   20  O1  UNL     1      24.960   3.881  49.182  1.00  0.00    -0.269 OA
HETATM   21  H4  UNL     1      27.587   4.068  50.929  1.00  0.00     0.169 HD
BRANCH  19  22
HETATM   22  C2  UNL     1      26.557   5.424  48.871  1.00  0.00     0.048 C 
HETATM   23  C1  UNL     1      27.742   4.849  48.626  1.00  0.00     0.037 C 
ENDBRANCH  19  22
ENDBRANCH   1  18
TORSDOF 3
ENDMDL
MODEL 8
REMARK VINA RESULT:      -7.2      2.979      6.158
REMARK  3 active torsions:
REMARK  status: ('A' for Active; 'I' for Inactive)
REMARK    1  A    between atoms: C2_2  and  C3_3 
REMARK       I    between atoms: C3_3  and  N1_5 
REMARK    2  A    between atoms: N1_5  and  C4_6 
REMARK    3  A    between atoms: C9_13  and  N4_14 
ROOT
HETATM    1  C4  UNL     1      24.424   3.235  51.007  1.00  0.00     0.036 A 
HETATM    2  C5  UNL     1      25.777   3.327  50.783  1.00  0.00     0.032 A 
HETATM    3  C6  UNL     1      26.722   2.403  51.169  1.00  0.00     0.035 A 
HETATM    4  C7  UNL     1      26.290   1.281  51.843  1.00  0.00     0.072 A 
HETATM    5  N2  UNL     1      27.177   0.347  52.237  1.00  0.00    -0.241 NA
HETATM    6  C8  UNL     1      26.697  -0.739  52.890  1.00  0.00     0.236 A 
HETATM    7  N3  UNL     1      25.370  -0.903  53.150  1.00  0.00    -0.223 NA
HETATM    8  C9  UNL     1      24.490   0.041  52.751  1.00  0.00     0.147 A 
HETATM    9  C15 UNL     1      24.942   1.144  52.092  1.00  0.00     0.041 A 
HETATM   10  C16 UNL     1      24.048   2.102  51.680  1.00  0.00     0.047 A 
ENDROOT
BRANCH   8  11
HETATM   11  N4  UNL     1      23.132  -0.178  53.044  1.00  0.00    -0.315 N 
HETATM   12  C10 UNL     1      22.992  -0.802  54.344  1.00  0.00     0.110 C 
HETATM   13  C11 UNL     1      21.814  -0.870  54.938  1.00  0.00    -0.007 C 
HETATM   14  C12 UNL     1      20.727  -0.854  54.187  1.00  0.00     0.034 C 
HETATM   15  C13 UNL     1      20.770  -0.217  52.852  1.00  0.00     0.027 C 
HETATM   16 BR1  UNL     1      19.247   0.205  51.804  1.00  0.00    -0.050 Br
HETATM   17  C14 UNL     1      21.934   0.101  52.315  1.00  0.00     0.117 C 
ENDBRANCH   8  11
BRANCH   1  18
HETATM   18  N1  UNL     1      23.429   4.147  50.633  1.00  0.00    -0.324 N 
HETATM   19  C3  UNL     1      22.676   5.022  51.447  1.00  0.00     0.241 C 
HETATM   20  O1  UNL     1      22.865   5.045  52.685  1.00  0.00    -0.269 OA
HETATM   21  H4  UNL     1      23.148   4.254  49.639  1.00  0.00     0.169 HD
BRANCH  19  22
HETATM   22  C2  UNL     1      21.649   5.964  51.041  1.00  0.00     0.048 C 
HETATM   23  C1  UNL     1      22.543   6.899  50.693  1.00  0.00     0.037 C 
ENDBRANCH  19  22
ENDBRANCH   1  18
TORSDOF 3
ENDMDL
MODEL 9
REMARK VINA RESULT:      -7.1      2.731      4.914
REMARK  3 active torsions:
REMARK  status: ('A' for Active; 'I' for Inactive)
REMARK    1  A    between atoms: C2_2  and  C3_3 
REMARK       I    between atoms: C3_3  and  N1_5 
REMARK    2  A    between atoms: N1_5  and  C4_6 
REMARK    3  A    between atoms: C9_13  and  N4_14 
ROOT
HETATM    1  C4  UNL     1      24.929   0.457  52.756  1.00  0.00     0.036 A 
HETATM    2  C5  UNL     1      26.273   0.728  52.844  1.00  0.00     0.032 A 
HETATM    3  C6  UNL     1      26.953   1.675  52.111  1.00  0.00     0.035 A 
HETATM    4  C7  UNL     1      26.237   2.427  51.205  1.00  0.00     0.072 A 
HETATM    5  N2  UNL     1      26.858   3.369  50.470  1.00  0.00    -0.241 NA
HETATM    6  C8  UNL     1      26.104   4.082  49.598  1.00  0.00     0.236 A 
HETATM    7  N3  UNL     1      24.767   3.872  49.452  1.00  0.00    -0.223 NA
HETATM    8  C9  UNL     1      24.155   2.924  50.195  1.00  0.00     0.147 A 
HETATM    9  C15 UNL     1      24.885   2.190  51.080  1.00  0.00     0.041 A 
HETATM   10  C16 UNL     1      24.264   1.230  51.841  1.00  0.00     0.047 A 
ENDROOT
BRANCH   8  11
HETATM   11  N4  UNL     1      22.773   2.750  50.006  1.00  0.00    -0.315 N 
HETATM   12  C10 UNL     1      22.519   2.015  48.784  1.00  0.00     0.110 C 
HETATM   13  C11 UNL     1      21.323   1.515  48.531  1.00  0.00    -0.007 C 
HETATM   14  C12 UNL     1      20.270   2.085  49.088  1.00  0.00     0.034 C 
HETATM   15  C13 UNL     1      20.429   2.838  50.352  1.00  0.00     0.027 C 
HETATM   16 BR1  UNL     1      19.000   3.410  51.458  1.00  0.00    -0.050 Br
HETATM   17  C14 UNL     1      21.639   3.151  50.780  1.00  0.00     0.117 C 
ENDBRANCH   8  11
BRANCH   1  18
HETATM   18  N1  UNL     1      24.197  -0.495  53.479  1.00  0.00    -0.324 N 
HETATM   19  C3  UNL     1      22.874  -0.412  53.967  1.00  0.00     0.241 C 
HETATM   20  O1  UNL     1      22.195   0.622  53.768  1.00  0.00    -0.269 OA
HETATM   21  H4  UNL     1      24.613  -1.412  53.731  1.00  0.00     0.169 HD
BRANCH  19  22
HETATM   22  C2  UNL     1      22.130  -1.410  54.714  1.00  0.00     0.048 C 
HETATM   23  C1  UNL     1      20.965  -1.071  54.144  1.00  0.00     0.037 C 
ENDBRANCH  19  22
ENDBRANCH   1  18
TORSDOF 3
ENDMDL
