MODEL 1
REMARK VINA RESULT:      -7.7      0.000      0.000
REMARK  2 active torsions:
REMARK  status: ('A' for Active; 'I' for Inactive)
REMARK    1  A    between atoms: C2_2  and  C3_3 
REMARK    2  A    between atoms: C10_11  and  N1_12 
ROOT
HETATM    1  C3  UNL     1      31.079   6.193  48.343  1.00  0.00    -0.022 C 
HETATM    2  C4  UNL     1      29.808   5.835  48.123  1.00  0.00     0.192 A 
HETATM    3  C5  UNL     1      28.525   6.501  47.940  1.00  0.00     0.130 A 
HETATM    4  O1  UNL     1      29.639   7.030  48.073  1.00  0.00    -0.361 OA
HETATM    5  C6  UNL     1      27.802   7.792  47.811  1.00  0.00     0.083 C 
HETATM    6  C7  UNL     1      28.363   8.646  46.709  1.00  0.00    -0.047 A 
HETATM    7  C8  UNL     1      27.708   8.149  45.564  1.00  0.00     0.010 A 
HETATM    8  C9  UNL     1      27.835   8.561  44.246  1.00  0.00     0.029 A 
HETATM    9  C10 UNL     1      28.707   9.594  43.971  1.00  0.00     0.026 A 
HETATM   10  C11 UNL     1      29.358  10.086  45.115  1.00  0.00     0.038 A 
HETATM   11  C12 UNL     1      29.261   9.699  46.471  1.00  0.00    -0.026 A 
HETATM   12  C13 UNL     1      30.198  10.582  47.188  1.00  0.00     0.122 C 
HETATM   13  N2  UNL     1      31.476  10.646  46.477  1.00  0.00    -0.378 N 
HETATM   14  C14 UNL     1      32.042  11.901  46.254  1.00  0.00     0.146 C 
HETATM   15  C15 UNL     1      32.156   9.478  46.258  1.00  0.00     0.347 C 
HETATM   16  C16 UNL     1      33.140   9.119  47.402  1.00  0.00     0.161 C 
HETATM   17  C17 UNL     1      34.559   9.061  47.131  1.00  0.00     0.199 C 
HETATM   18  O2  UNL     1      35.048   9.612  45.967  1.00  0.00    -0.360 OA
HETATM   19  C18 UNL     1      34.149   9.817  44.960  1.00  0.00     0.443 C 
HETATM   20  N3  UNL     1      32.918   9.060  45.177  1.00  0.00     0.137 N 
HETATM   21  C19 UNL     1      33.377   7.710  45.425  1.00  0.00     0.297 C 
HETATM   22  C20 UNL     1      33.026   6.994  46.688  1.00  0.00     0.154 C 
HETATM   23  N4  UNL     1      32.485   7.840  47.778  1.00  0.00    -0.368 N 
HETATM   24  C21 UNL     1      31.457   7.539  48.837  1.00  0.00     0.032 C 
HETATM   25  C22 UNL     1      31.587   8.791  49.294  1.00  0.00     0.004 C 
HETATM   26  C23 UNL     1      30.388   9.609  49.558  1.00  0.00     0.040 C 
HETATM   27  C24 UNL     1      30.164  10.715  48.622  1.00  0.00    -0.020 C 
HETATM   28  C25 UNL     1      28.684  11.102  48.949  1.00  0.00     0.017 C 
HETATM   29  C26 UNL     1      30.900  11.937  49.085  1.00  0.00     0.017 C 
ENDROOT
BRANCH   9  30
HETATM   30  N1  UNL     1      28.889  10.068  42.650  1.00  0.00    -0.399 N 
HETATM   31  H11 UNL     1      29.452   9.427  42.020  1.00  0.00     0.156 HD
HETATM   32  H12 UNL     1      28.520  10.963  42.285  1.00  0.00     0.156 HD
ENDBRANCH   9  30
BRANCH   1  33
HETATM   33  C2  UNL     1      32.192   5.243  48.470  1.00  0.00     0.035 C 
HETATM   34  C1  UNL     1      32.010   4.020  47.576  1.00  0.00     0.010 C 
ENDBRANCH   1  33
TORSDOF 2
ENDMDL
MODEL 2
REMARK VINA RESULT:      -7.7      1.494      2.246
REMARK  2 active torsions:
REMARK  status: ('A' for Active; 'I' for Inactive)
REMARK    1  A    between atoms: C2_2  and  C3_3 
REMARK    2  A    between atoms: C10_11  and  N1_12 
ROOT
HETATM    1  C3  UNL     1      28.416   7.192  47.852  1.00  0.00    -0.022 C 
HETATM    2  C4  UNL     1      27.361   7.501  47.089  1.00  0.00     0.192 A 
HETATM    3  C5  UNL     1      26.793   8.698  46.482  1.00  0.00     0.130 A 
HETATM    4  O1  UNL     1      27.851   8.605  47.123  1.00  0.00    -0.361 OA
HETATM    5  C6  UNL     1      26.942  10.154  46.229  1.00  0.00     0.083 C 
HETATM    6  C7  UNL     1      28.251  10.481  45.568  1.00  0.00    -0.047 A 
HETATM    7  C8  UNL     1      27.977  10.259  44.203  1.00  0.00     0.010 A 
HETATM    8  C9  UNL     1      28.825  10.403  43.116  1.00  0.00     0.029 A 
HETATM    9  C10 UNL     1      30.118  10.819  43.352  1.00  0.00     0.026 A 
HETATM   10  C11 UNL     1      30.388  11.039  44.713  1.00  0.00     0.038 A 
HETATM   11  C12 UNL     1      29.560  10.905  45.852  1.00  0.00    -0.026 A 
HETATM   12  C13 UNL     1      30.419  11.269  46.992  1.00  0.00     0.122 C 
HETATM   13  N2  UNL     1      31.717  10.602  46.880  1.00  0.00    -0.378 N 
HETATM   14  C14 UNL     1      32.867  11.368  47.066  1.00  0.00     0.146 C 
HETATM   15  C15 UNL     1      31.741   9.235  46.816  1.00  0.00     0.347 C 
HETATM   16  C16 UNL     1      31.837   8.557  48.208  1.00  0.00     0.161 C 
HETATM   17  C17 UNL     1      33.000   7.763  48.536  1.00  0.00     0.199 C 
HETATM   18  O2  UNL     1      34.128   7.861  47.753  1.00  0.00    -0.360 OA
HETATM   19  C18 UNL     1      33.962   8.378  46.500  1.00  0.00     0.443 C 
HETATM   20  N3  UNL     1      32.557   8.373  46.098  1.00  0.00     0.137 N 
HETATM   21  C19 UNL     1      32.129   7.013  46.342  1.00  0.00     0.297 C 
HETATM   22  C20 UNL     1      30.982   6.715  47.252  1.00  0.00     0.154 C 
HETATM   23  N4  UNL     1      30.543   7.833  48.121  1.00  0.00    -0.368 N 
HETATM   24  C21 UNL     1      29.173   8.209  48.621  1.00  0.00     0.032 C 
HETATM   25  C22 UNL     1      29.710   9.267  49.242  1.00  0.00     0.004 C 
HETATM   26  C23 UNL     1      29.098  10.601  49.092  1.00  0.00     0.040 C 
HETATM   27  C24 UNL     1      29.868  11.558  48.291  1.00  0.00    -0.020 C 
HETATM   28  C25 UNL     1      28.799  12.671  48.030  1.00  0.00     0.017 C 
HETATM   29  C26 UNL     1      30.847  12.285  49.163  1.00  0.00     0.017 C 
ENDROOT
BRANCH   9  30
HETATM   30  N1  UNL     1      31.040  10.988  42.291  1.00  0.00    -0.399 N 
HETATM   31  H11 UNL     1      32.054  10.820  42.551  1.00  0.00     0.156 HD
HETATM   32  H12 UNL     1      30.789  11.253  41.324  1.00  0.00     0.156 HD
ENDBRANCH   9  30
BRANCH   1  33
HETATM   33  C2  UNL     1      28.735   5.832  48.304  1.00  0.00     0.035 C 
HETATM   34  C1  UNL     1      27.483   5.023  48.628  1.00  0.00     0.010 C 
ENDBRANCH   1  33
TORSDOF 2
ENDMDL
MODEL 3
REMARK VINA RESULT:      -7.6      8.832     11.985
REMARK  2 active torsions:
REMARK  status: ('A' for Active; 'I' for Inactive)
REMARK    1  A    between atoms: C2_2  and  C3_3 
REMARK    2  A    between atoms: C10_11  and  N1_12 
ROOT
HETATM    1  C3  UNL     1      23.632   2.449  50.714  1.00  0.00    -0.022 C 
HETATM    2  C4  UNL     1      24.570   3.394  50.581  1.00  0.00     0.192 A 
HETATM    3  C5  UNL     1      24.831   4.528  49.703  1.00  0.00     0.130 A 
HETATM    4  O1  UNL     1      23.837   3.785  49.704  1.00  0.00    -0.361 OA
HETATM    5  C6  UNL     1      24.341   5.369  48.582  1.00  0.00     0.083 C 
HETATM    6  C7  UNL     1      22.978   5.940  48.857  1.00  0.00    -0.047 A 
HETATM    7  C8  UNL     1      23.268   7.093  49.613  1.00  0.00     0.010 A 
HETATM    8  C9  UNL     1      22.388   8.021  50.149  1.00  0.00     0.029 A 
HETATM    9  C10 UNL     1      21.038   7.832  49.938  1.00  0.00     0.026 A 
HETATM   10  C11 UNL     1      20.753   6.681  49.184  1.00  0.00     0.038 A 
HETATM   11  C12 UNL     1      21.612   5.710  48.619  1.00  0.00    -0.026 A 
HETATM   12  C13 UNL     1      20.716   4.746  47.957  1.00  0.00     0.122 C 
HETATM   13  N2  UNL     1      19.607   4.395  48.846  1.00  0.00    -0.378 N 
HETATM   14  C14 UNL     1      18.314   4.421  48.325  1.00  0.00     0.146 C 
HETATM   15  C15 UNL     1      19.902   3.852  50.068  1.00  0.00     0.347 C 
HETATM   16  C16 UNL     1      19.995   2.304  50.045  1.00  0.00     0.161 C 
HETATM   17  C17 UNL     1      19.056   1.522  50.818  1.00  0.00     0.199 C 
HETATM   18  O2  UNL     1      17.920   2.123  51.312  1.00  0.00    -0.360 OA
HETATM   19  C18 UNL     1      17.935   3.486  51.397  1.00  0.00     0.443 C 
HETATM   20  N3  UNL     1      19.294   4.016  51.304  1.00  0.00     0.137 N 
HETATM   21  C19 UNL     1      20.032   3.258  52.290  1.00  0.00     0.297 C 
HETATM   22  C20 UNL     1      21.236   2.458  51.909  1.00  0.00     0.154 C 
HETATM   23  N4  UNL     1      21.420   2.226  50.458  1.00  0.00    -0.368 N 
HETATM   24  C21 UNL     1      22.674   2.114  49.632  1.00  0.00     0.032 C 
HETATM   25  C22 UNL     1      21.919   1.955  48.537  1.00  0.00     0.004 C 
HETATM   26  C23 UNL     1      22.200   2.746  47.325  1.00  0.00     0.040 C 
HETATM   27  C24 UNL     1      21.212   3.783  47.008  1.00  0.00    -0.020 C 
HETATM   28  C25 UNL     1      21.986   4.634  45.947  1.00  0.00     0.017 C 
HETATM   29  C26 UNL     1      20.108   3.202  46.176  1.00  0.00     0.017 C 
ENDROOT
BRANCH   9  30
HETATM   30  N1  UNL     1      20.080   8.737  50.455  1.00  0.00    -0.399 N 
HETATM   31  H11 UNL     1      19.516   8.369  51.273  1.00  0.00     0.156 HD
HETATM   32  H12 UNL     1      19.911   9.691  50.093  1.00  0.00     0.156 HD
ENDBRANCH   9  30
BRANCH   1  33
HETATM   33  C2  UNL     1      23.648   1.413  51.754  1.00  0.00     0.035 C 
HETATM   34  C1  UNL     1      24.792   1.608  52.744  1.00  0.00     0.010 C 
ENDBRANCH   1  33
TORSDOF 2
ENDMDL
MODEL 4
REMARK VINA RESULT:      -7.4      1.890      2.770
REMARK  2 active torsions:
REMARK  status: ('A' for Active; 'I' for Inactive)
REMARK    1  A    between atoms: C2_2  and  C3_3 
REMARK    2  A    between atoms: C10_11  and  N1_12 
ROOT
HETATM    1  C3  UNL     1      32.401   4.911  46.783  1.00  0.00    -0.022 C 
HETATM    2  C4  UNL     1      31.239   4.836  47.443  1.00  0.00     0.192 A 
HETATM    3  C5  UNL     1      30.287   5.762  48.043  1.00  0.00     0.130 A 
HETATM    4  O1  UNL     1      31.308   6.041  47.397  1.00  0.00    -0.361 OA
HETATM    5  C6  UNL     1      29.909   7.180  48.274  1.00  0.00     0.083 C 
HETATM    6  C7  UNL     1      29.796   7.951  46.989  1.00  0.00    -0.047 A 
HETATM    7  C8  UNL     1      28.486   7.657  46.561  1.00  0.00     0.010 A 
HETATM    8  C9  UNL     1      27.828   8.097  45.423  1.00  0.00     0.029 A 
HETATM    9  C10 UNL     1      28.506   8.939  44.566  1.00  0.00     0.026 A 
HETATM   10  C11 UNL     1      29.812   9.229  44.996  1.00  0.00     0.038 A 
HETATM   11  C12 UNL     1      30.522   8.805  46.143  1.00  0.00    -0.026 A 
HETATM   12  C13 UNL     1      31.847   9.438  46.026  1.00  0.00     0.122 C 
HETATM   13  N2  UNL     1      32.370   9.270  44.669  1.00  0.00    -0.378 N 
HETATM   14  C14 UNL     1      32.894  10.389  44.024  1.00  0.00     0.146 C 
HETATM   15  C15 UNL     1      32.520   7.998  44.185  1.00  0.00     0.347 C 
HETATM   16  C16 UNL     1      33.913   7.388  44.487  1.00  0.00     0.161 C 
HETATM   17  C17 UNL     1      34.796   7.050  43.393  1.00  0.00     0.199 C 
HETATM   18  O2  UNL     1      34.534   7.543  42.135  1.00  0.00    -0.360 OA
HETATM   19  C18 UNL     1      33.261   7.979  41.900  1.00  0.00     0.443 C 
HETATM   20  N3  UNL     1      32.329   7.484  42.911  1.00  0.00     0.137 N 
HETATM   21  C19 UNL     1      32.572   6.059  42.942  1.00  0.00     0.297 C 
HETATM   22  C20 UNL     1      32.970   5.370  44.207  1.00  0.00     0.154 C 
HETATM   23  N4  UNL     1      33.414   6.256  45.309  1.00  0.00    -0.368 N 
HETATM   24  C21 UNL     1      33.254   6.124  46.801  1.00  0.00     0.032 C 
HETATM   25  C22 UNL     1      33.879   7.298  46.955  1.00  0.00     0.004 C 
HETATM   26  C23 UNL     1      33.302   8.333  47.832  1.00  0.00     0.040 C 
HETATM   27  C24 UNL     1      32.753   9.506  47.144  1.00  0.00    -0.020 C 
HETATM   28  C25 UNL     1      31.922  10.175  48.288  1.00  0.00     0.017 C 
HETATM   29  C26 UNL     1      33.833  10.524  46.925  1.00  0.00     0.017 C 
ENDROOT
BRANCH   9  30
HETATM   30  N1  UNL     1      27.898   9.429  43.385  1.00  0.00    -0.399 N 
HETATM   31  H11 UNL     1      26.880   9.159  43.263  1.00  0.00     0.156 HD
HETATM   32  H12 UNL     1      28.373  10.007  42.671  1.00  0.00     0.156 HD
ENDBRANCH   9  30
BRANCH   1  33
HETATM   33  C2  UNL     1      33.135   3.746  46.274  1.00  0.00     0.035 C 
HETATM   34  C1  UNL     1      34.226   3.286  47.237  1.00  0.00     0.010 C 
ENDBRANCH   1  33
TORSDOF 2
ENDMDL
MODEL 5
REMARK VINA RESULT:      -7.0      2.297      5.979
REMARK  2 active torsions:
REMARK  status: ('A' for Active; 'I' for Inactive)
REMARK    1  A    between atoms: C2_2  and  C3_3 
REMARK    2  A    between atoms: C10_11  and  N1_12 
ROOT
HETATM    1  C3  UNL     1      30.664  11.174  44.057  1.00  0.00    -0.022 C 
HETATM    2  C4  UNL     1      31.951  10.947  44.346  1.00  0.00     0.192 A 
HETATM    3  C5  UNL     1      32.797  10.941  45.533  1.00  0.00     0.130 A 
HETATM    4  O1  UNL     1      31.570  11.118  45.479  1.00  0.00    -0.361 OA
HETATM    5  C6  UNL     1      32.865  11.075  47.010  1.00  0.00     0.083 C 
HETATM    6  C7  UNL     1      31.939  10.120  47.708  1.00  0.00    -0.047 A 
HETATM    7  C8  UNL     1      32.697   8.934  47.766  1.00  0.00     0.010 A 
HETATM    8  C9  UNL     1      32.346   7.707  48.308  1.00  0.00     0.029 A 
HETATM    9  C10 UNL     1      31.096   7.584  48.877  1.00  0.00     0.026 A 
HETATM   10  C11 UNL     1      30.342   8.768  48.817  1.00  0.00     0.038 A 
HETATM   11  C12 UNL     1      30.657  10.037  48.277  1.00  0.00    -0.026 A 
HETATM   12  C13 UNL     1      29.457  10.859  48.509  1.00  0.00     0.122 C 
HETATM   13  N2  UNL     1      28.255  10.117  48.126  1.00  0.00    -0.378 N 
HETATM   14  C14 UNL     1      27.182  10.099  49.017  1.00  0.00     0.146 C 
HETATM   15  C15 UNL     1      28.155   9.665  46.837  1.00  0.00     0.347 C 
HETATM   16  C16 UNL     1      27.481  10.684  45.881  1.00  0.00     0.161 C 
HETATM   17  C17 UNL     1      26.225  10.346  45.250  1.00  0.00     0.199 C 
HETATM   18  O2  UNL     1      25.494   9.280  45.724  1.00  0.00    -0.360 OA
HETATM   19  C18 UNL     1      26.166   8.365  46.483  1.00  0.00     0.443 C 
HETATM   20  N3  UNL     1      27.613   8.495  46.326  1.00  0.00     0.137 N 
HETATM   21  C19 UNL     1      27.811   8.478  44.893  1.00  0.00     0.297 C 
HETATM   22  C20 UNL     1      28.495   9.607  44.193  1.00  0.00     0.154 C 
HETATM   23  N4  UNL     1      28.651  10.852  44.981  1.00  0.00    -0.368 N 
HETATM   24  C21 UNL     1      29.748  11.884  44.983  1.00  0.00     0.032 C 
HETATM   25  C22 UNL     1      29.096  12.551  45.944  1.00  0.00     0.004 C 
HETATM   26  C23 UNL     1      29.817  13.007  47.147  1.00  0.00     0.040 C 
HETATM   27  C24 UNL     1      29.488  12.294  48.385  1.00  0.00    -0.020 C 
HETATM   28  C25 UNL     1      30.656  12.747  49.323  1.00  0.00     0.017 C 
HETATM   29  C26 UNL     1      28.307  12.936  49.049  1.00  0.00     0.017 C 
ENDROOT
BRANCH   9  30
HETATM   30  N1  UNL     1      30.667   6.362  49.450  1.00  0.00    -0.399 N 
HETATM   31  H11 UNL     1      31.447   5.694  49.711  1.00  0.00     0.156 HD
HETATM   32  H12 UNL     1      29.680   6.101  49.618  1.00  0.00     0.156 HD
ENDBRANCH   9  30
BRANCH   1  33
HETATM   33  C2  UNL     1      30.093  11.081  42.707  1.00  0.00     0.035 C 
HETATM   34  C1  UNL     1      30.096  12.427  41.987  1.00  0.00     0.010 C 
ENDBRANCH   1  33
TORSDOF 2
ENDMDL
MODEL 6
REMARK VINA RESULT:      -6.8      9.101     11.686
REMARK  2 active torsions:
REMARK  status: ('A' for Active; 'I' for Inactive)
REMARK    1  A    between atoms: C2_2  and  C3_3 
REMARK    2  A    between atoms: C10_11  and  N1_12 
ROOT
HETATM    1  C3  UNL     1      22.717   5.197  51.246  1.00  0.00    -0.022 C 
HETATM    2  C4  UNL     1      23.113   6.462  51.434  1.00  0.00     0.192 A 
HETATM    3  C5  UNL     1      23.259   7.669  50.631  1.00  0.00     0.130 A 
HETATM    4  O1  UNL     1      22.798   6.574  50.274  1.00  0.00    -0.361 OA
HETATM    5  C6  UNL     1      23.061   8.312  49.307  1.00  0.00     0.083 C 
HETATM    6  C7  UNL     1      21.636   8.215  48.839  1.00  0.00    -0.047 A 
HETATM    7  C8  UNL     1      21.021   9.310  49.479  1.00  0.00     0.010 A 
HETATM    8  C9  UNL     1      19.698   9.719  49.414  1.00  0.00     0.029 A 
HETATM    9  C10 UNL     1      18.831   8.987  48.630  1.00  0.00     0.026 A 
HETATM   10  C11 UNL     1      19.447   7.896  47.995  1.00  0.00     0.038 A 
HETATM   11  C12 UNL     1      20.786   7.442  48.031  1.00  0.00    -0.026 A 
HETATM   12  C13 UNL     1      20.808   6.248  47.168  1.00  0.00     0.122 C 
HETATM   13  N2  UNL     1      19.673   5.378  47.481  1.00  0.00    -0.378 N 
HETATM   14  C14 UNL     1      18.907   4.890  46.423  1.00  0.00     0.146 C 
HETATM   15  C15 UNL     1      19.547   4.911  48.762  1.00  0.00     0.347 C 
HETATM   16  C16 UNL     1      20.275   3.562  48.997  1.00  0.00     0.161 C 
HETATM   17  C17 UNL     1      19.506   2.388  49.346  1.00  0.00     0.199 C 
HETATM   18  O2  UNL     1      18.141   2.397  49.171  1.00  0.00    -0.360 OA
HETATM   19  C18 UNL     1      17.544   3.620  49.066  1.00  0.00     0.443 C 
HETATM   20  N3  UNL     1      18.421   4.689  49.541  1.00  0.00     0.137 N 
HETATM   21  C19 UNL     1      18.841   4.239  50.850  1.00  0.00     0.297 C 
HETATM   22  C20 UNL     1      20.288   4.072  51.183  1.00  0.00     0.154 C 
HETATM   23  N4  UNL     1      21.216   4.068  50.028  1.00  0.00    -0.368 N 
HETATM   24  C21 UNL     1      22.628   4.579  49.901  1.00  0.00     0.032 C 
HETATM   25  C22 UNL     1      22.628   4.206  48.614  1.00  0.00     0.004 C 
HETATM   26  C23 UNL     1      23.092   5.143  47.574  1.00  0.00     0.040 C 
HETATM   27  C24 UNL     1      22.044   5.678  46.698  1.00  0.00    -0.020 C 
HETATM   28  C25 UNL     1      22.793   6.867  46.011  1.00  0.00     0.017 C 
HETATM   29  C26 UNL     1      21.825   4.753  45.538  1.00  0.00     0.017 C 
ENDROOT
BRANCH   9  30
HETATM   30  N1  UNL     1      17.465   9.344  48.515  1.00  0.00    -0.399 N 
HETATM   31  H11 UNL     1      17.279  10.387  48.480  1.00  0.00     0.156 HD
HETATM   32  H12 UNL     1      16.680   8.673  48.466  1.00  0.00     0.156 HD
ENDBRANCH   9  30
BRANCH   1  33
HETATM   33  C2  UNL     1      22.667   4.183  52.306  1.00  0.00     0.035 C 
HETATM   34  C1  UNL     1      23.984   3.425  52.442  1.00  0.00     0.010 C 
ENDBRANCH   1  33
TORSDOF 2
ENDMDL
MODEL 7
REMARK VINA RESULT:      -6.8      2.934      5.849
REMARK  2 active torsions:
REMARK  status: ('A' for Active; 'I' for Inactive)
REMARK    1  A    between atoms: C2_2  and  C3_3 
REMARK    2  A    between atoms: C10_11  and  N1_12 
ROOT
HETATM    1  C3  UNL     1      30.847   9.400  48.115  1.00  0.00    -0.022 C 
HETATM    2  C4  UNL     1      31.461  10.547  47.799  1.00  0.00     0.192 A 
HETATM    3  C5  UNL     1      31.303  11.610  46.815  1.00  0.00     0.130 A 
HETATM    4  O1  UNL     1      30.566  10.628  46.992  1.00  0.00    -0.361 OA
HETATM    5  C6  UNL     1      30.488  12.163  45.704  1.00  0.00     0.083 C 
HETATM    6  C7  UNL     1      29.053  12.365  46.101  1.00  0.00    -0.047 A 
HETATM    7  C8  UNL     1      29.076  13.626  46.730  1.00  0.00     0.010 A 
HETATM    8  C9  UNL     1      28.025  14.328  47.300  1.00  0.00     0.029 A 
HETATM    9  C10 UNL     1      26.771  13.757  47.270  1.00  0.00     0.026 A 
HETATM   10  C11 UNL     1      26.752  12.499  46.643  1.00  0.00     0.038 A 
HETATM   11  C12 UNL     1      27.792  11.747  46.050  1.00  0.00    -0.026 A 
HETATM   12  C13 UNL     1      27.146  10.511  45.576  1.00  0.00     0.122 C 
HETATM   13  N2  UNL     1      26.274   9.964  46.617  1.00  0.00    -0.378 N 
HETATM   14  C14 UNL     1      24.983   9.581  46.258  1.00  0.00     0.146 C 
HETATM   15  C15 UNL     1      26.828   9.654  47.830  1.00  0.00     0.347 C 
HETATM   16  C16 UNL     1      27.353   8.197  47.909  1.00  0.00     0.161 C 
HETATM   17  C17 UNL     1      26.754   7.274  48.847  1.00  0.00     0.199 C 
HETATM   18  O2  UNL     1      25.548   7.590  49.431  1.00  0.00    -0.360 OA
HETATM   19  C18 UNL     1      25.184   8.906  49.413  1.00  0.00     0.443 C 
HETATM   20  N3  UNL     1      26.321   9.774  49.116  1.00  0.00     0.137 N 
HETATM   21  C19 UNL     1      27.336   9.354  50.057  1.00  0.00     0.297 C 
HETATM   22  C20 UNL     1      28.674   8.879  49.591  1.00  0.00     0.154 C 
HETATM   23  N4  UNL     1      28.774   8.555  48.149  1.00  0.00    -0.368 N 
HETATM   24  C21 UNL     1      29.923   8.705  47.186  1.00  0.00     0.032 C 
HETATM   25  C22 UNL     1      29.141   8.232  46.207  1.00  0.00     0.004 C 
HETATM   26  C23 UNL     1      29.067   8.938  44.914  1.00  0.00     0.040 C 
HETATM   27  C24 UNL     1      27.800   9.626  44.646  1.00  0.00    -0.020 C 
HETATM   28  C25 UNL     1      28.194  10.540  43.439  1.00  0.00     0.017 C 
HETATM   29  C26 UNL     1      26.830   8.681  44.001  1.00  0.00     0.017 C 
ENDROOT
BRANCH   9  30
HETATM   30  N1  UNL     1      25.651  14.415  47.833  1.00  0.00    -0.399 N 
HETATM   31  H11 UNL     1      25.792  14.767  48.823  1.00  0.00     0.156 HD
HETATM   32  H12 UNL     1      24.747  14.562  47.352  1.00  0.00     0.156 HD
ENDBRANCH   9  30
BRANCH   1  33
HETATM   33  C2  UNL     1      31.257   8.523  49.219  1.00  0.00     0.035 C 
HETATM   34  C1  UNL     1      32.264   7.467  48.773  1.00  0.00     0.010 C 
ENDBRANCH   1  33
TORSDOF 2
ENDMDL
MODEL 8
REMARK VINA RESULT:      -6.7      6.960     10.194
REMARK  2 active torsions:
REMARK  status: ('A' for Active; 'I' for Inactive)
REMARK    1  A    between atoms: C2_2  and  C3_3 
REMARK    2  A    between atoms: C10_11  and  N1_12 
ROOT
HETATM    1  C3  UNL     1      21.573   5.242  45.230  1.00  0.00    -0.022 C 
HETATM    2  C4  UNL     1      22.389   6.028  44.517  1.00  0.00     0.192 A 
HETATM    3  C5  UNL     1      23.017   7.335  44.667  1.00  0.00     0.130 A 
HETATM    4  O1  UNL     1      22.323   6.730  45.498  1.00  0.00    -0.361 OA
HETATM    5  C6  UNL     1      23.252   8.506  45.549  1.00  0.00     0.083 C 
HETATM    6  C7  UNL     1      23.842   8.108  46.872  1.00  0.00    -0.047 A 
HETATM    7  C8  UNL     1      25.221   8.028  46.589  1.00  0.00     0.010 A 
HETATM    8  C9  UNL     1      26.262   7.698  47.443  1.00  0.00     0.029 A 
HETATM    9  C10 UNL     1      25.957   7.403  48.755  1.00  0.00     0.026 A 
HETATM   10  C11 UNL     1      24.582   7.484  49.033  1.00  0.00     0.038 A 
HETATM   11  C12 UNL     1      23.488   7.814  48.200  1.00  0.00    -0.026 A 
HETATM   12  C13 UNL     1      22.303   7.714  49.068  1.00  0.00     0.122 C 
HETATM   13  N2  UNL     1      22.351   6.477  49.849  1.00  0.00    -0.378 N 
HETATM   14  C14 UNL     1      22.101   6.555  51.219  1.00  0.00     0.146 C 
HETATM   15  C15 UNL     1      22.423   5.287  49.177  1.00  0.00     0.347 C 
HETATM   16  C16 UNL     1      21.032   4.685  48.848  1.00  0.00     0.161 C 
HETATM   17  C17 UNL     1      20.649   3.416  49.428  1.00  0.00     0.199 C 
HETATM   18  O2  UNL     1      21.372   2.910  50.485  1.00  0.00    -0.360 OA
HETATM   19  C18 UNL     1      22.629   3.413  50.666  1.00  0.00     0.443 C 
HETATM   20  N3  UNL     1      23.103   4.115  49.475  1.00  0.00     0.137 N 
HETATM   21  C19 UNL     1      22.890   3.168  48.403  1.00  0.00     0.297 C 
HETATM   22  C20 UNL     1      22.042   3.514  47.222  1.00  0.00     0.154 C 
HETATM   23  N4  UNL     1      21.191   4.717  47.372  1.00  0.00    -0.368 N 
HETATM   24  C21 UNL     1      20.760   5.748  46.362  1.00  0.00     0.032 C 
HETATM   25  C22 UNL     1      20.105   6.399  47.332  1.00  0.00     0.004 C 
HETATM   26  C23 UNL     1      20.279   7.855  47.492  1.00  0.00     0.040 C 
HETATM   27  C24 UNL     1      21.032   8.271  48.679  1.00  0.00    -0.020 C 
HETATM   28  C25 UNL     1      21.342   9.767  48.340  1.00  0.00     0.017 C 
HETATM   29  C26 UNL     1      20.106   8.417  49.850  1.00  0.00     0.017 C 
ENDROOT
BRANCH   9  30
HETATM   30  N1  UNL     1      26.967   7.057  49.684  1.00  0.00    -0.399 N 
HETATM   31  H11 UNL     1      26.685   6.325  50.397  1.00  0.00     0.156 HD
HETATM   32  H12 UNL     1      27.919   7.461  49.702  1.00  0.00     0.156 HD
ENDBRANCH   9  30
BRANCH   1  33
HETATM   33  C2  UNL     1      21.114   3.918  44.791  1.00  0.00     0.035 C 
HETATM   34  C1  UNL     1      20.456   3.964  43.415  1.00  0.00     0.010 C 
ENDBRANCH   1  33
TORSDOF 2
ENDMDL
MODEL 9
REMARK VINA RESULT:      -6.6      2.160      2.987
REMARK  2 active torsions:
REMARK  status: ('A' for Active; 'I' for Inactive)
REMARK    1  A    between atoms: C2_2  and  C3_3 
REMARK    2  A    between atoms: C10_11  and  N1_12 
ROOT
HETATM    1  C3  UNL     1      31.132   9.158  48.459  1.00  0.00    -0.022 C 
HETATM    2  C4  UNL     1      30.078   8.527  48.989  1.00  0.00     0.192 A 
HETATM    3  C5  UNL     1      28.663   8.801  49.206  1.00  0.00     0.130 A 
HETATM    4  O1  UNL     1      29.490   9.514  48.617  1.00  0.00    -0.361 OA
HETATM    5  C6  UNL     1      27.533   9.741  48.992  1.00  0.00     0.083 C 
HETATM    6  C7  UNL     1      27.339  10.071  47.539  1.00  0.00    -0.047 A 
HETATM    7  C8  UNL     1      26.552   8.997  47.076  1.00  0.00     0.010 A 
HETATM    8  C9  UNL     1      26.064   8.769  45.799  1.00  0.00     0.029 A 
HETATM    9  C10 UNL     1      26.361   9.691  44.817  1.00  0.00     0.026 A 
HETATM   10  C11 UNL     1      27.147  10.759  45.282  1.00  0.00     0.038 A 
HETATM   11  C12 UNL     1      27.666  11.032  46.568  1.00  0.00    -0.026 A 
HETATM   12  C13 UNL     1      28.414  12.292  46.418  1.00  0.00     0.122 C 
HETATM   13  N2  UNL     1      29.259  12.239  45.224  1.00  0.00    -0.378 N 
HETATM   14  C14 UNL     1      29.230  13.325  44.350  1.00  0.00     0.146 C 
HETATM   15  C15 UNL     1      30.189  11.239  45.130  1.00  0.00     0.347 C 
HETATM   16  C16 UNL     1      31.565  11.624  45.734  1.00  0.00     0.161 C 
HETATM   17  C17 UNL     1      32.726  11.691  44.875  1.00  0.00     0.199 C 
HETATM   18  O2  UNL     1      32.556  11.717  43.508  1.00  0.00    -0.360 OA
HETATM   19  C18 UNL     1      31.355  11.276  43.031  1.00  0.00     0.443 C 
HETATM   20  N3  UNL     1      30.627  10.506  44.037  1.00  0.00     0.137 N 
HETATM   21  C19 UNL     1      31.590   9.525  44.490  1.00  0.00     0.297 C 
HETATM   22  C20 UNL     1      31.973   9.425  45.930  1.00  0.00     0.154 C 
HETATM   23  N4  UNL     1      31.577  10.571  46.782  1.00  0.00    -0.368 N 
HETATM   24  C21 UNL     1      31.154  10.622  48.227  1.00  0.00     0.032 C 
HETATM   25  C22 UNL     1      30.980  11.945  48.111  1.00  0.00     0.004 C 
HETATM   26  C23 UNL     1      29.739  12.573  48.601  1.00  0.00     0.040 C 
HETATM   27  C24 UNL     1      28.831  13.065  47.561  1.00  0.00    -0.020 C 
HETATM   28  C25 UNL     1      27.519  13.298  48.381  1.00  0.00     0.017 C 
HETATM   29  C26 UNL     1      29.198  14.468  47.180  1.00  0.00     0.017 C 
ENDROOT
BRANCH   9  30
HETATM   30  N1  UNL     1      25.898   9.525  43.489  1.00  0.00    -0.399 N 
HETATM   31  H11 UNL     1      25.084  10.149  43.221  1.00  0.00     0.156 HD
HETATM   32  H12 UNL     1      26.292   8.860  42.803  1.00  0.00     0.156 HD
ENDBRANCH   9  30
BRANCH   1  33
HETATM   33  C2  UNL     1      32.480   8.581  48.373  1.00  0.00     0.035 C 
HETATM   34  C1  UNL     1      32.528   7.149  48.896  1.00  0.00     0.010 C 
ENDBRANCH   1  33
TORSDOF 2
ENDMDL
