MODEL 1
REMARK VINA RESULT:      -9.2      0.000      0.000
REMARK  4 active torsions:
REMARK  status: ('A' for Active; 'I' for Inactive)
REMARK       I    between atoms: C1_2  and  N1_3 
REMARK    1  A    between atoms: C1_2  and  C16_22 
REMARK    2  A    between atoms: N1_3  and  C2_4 
REMARK    3  A    between atoms: C6_8  and  N2_9 
REMARK    4  A    between atoms: C7_11  and  C8_12 
ROOT
HETATM    1  C2  UNL     1      24.464   1.485  52.153  1.00  0.00     0.037 A 
HETATM    2  C3  UNL     1      23.217   1.252  52.717  1.00  0.00     0.029 A 
HETATM    3  C4  UNL     1      22.176   2.107  52.412  1.00  0.00     0.005 A 
HETATM    4  C5  UNL     1      22.347   3.180  51.565  1.00  0.00     0.033 A 
HETATM    5  C6  UNL     1      23.564   3.458  50.977  1.00  0.00     0.079 A 
HETATM    6  C15 UNL     1      24.571   2.576  51.313  1.00  0.00     0.062 A 
ENDROOT
BRANCH   5   7
HETATM    7  N2  UNL     1      23.818   4.539  50.099  1.00  0.00    -0.174 N 
HETATM    8  N3  UNL     1      25.131   4.790  49.678  1.00  0.00    -0.151 NA
HETATM    9  C7  UNL     1      25.452   5.748  48.883  1.00  0.00     0.092 A 
HETATM   10  C13 UNL     1      24.431   6.647  48.368  1.00  0.00     0.053 A 
HETATM   11  C14 UNL     1      23.189   6.417  48.761  1.00  0.00     0.111 A 
HETATM   12  N5  UNL     1      22.801   5.364  49.640  1.00  0.00    -0.289 N 
HETATM   13  H11 UNL     1      21.820   5.245  49.902  1.00  0.00     0.188 HD
BRANCH   9  14
HETATM   14  C8  UNL     1      26.861   5.887  48.531  1.00  0.00     0.012 A 
HETATM   15  C9  UNL     1      27.307   7.100  48.052  1.00  0.00     0.017 A 
HETATM   16  C10 UNL     1      28.610   7.373  47.680  1.00  0.00     0.020 A 
HETATM   17  C11 UNL     1      29.478   6.288  47.830  1.00  0.00     0.116 A 
HETATM   18  N4  UNL     1      29.083   5.090  48.292  1.00  0.00    -0.272 NA
HETATM   19  C12 UNL     1      27.786   4.872  48.646  1.00  0.00     0.130 A 
ENDBRANCH   9  14
ENDBRANCH   5   7
BRANCH   1  20
HETATM   20  N1  UNL     1      25.600   0.657  52.409  1.00  0.00    -0.323 N 
HETATM   21  C1  UNL     1      26.636   0.770  53.355  1.00  0.00     0.257 C 
HETATM   22  O1  UNL     1      26.543   1.784  54.111  1.00  0.00    -0.267 OA
HETATM   23  H1  UNL     1      25.502  -0.104  51.702  1.00  0.00     0.169 HD
BRANCH  21  24
HETATM   24  C16 UNL     1      27.684  -0.247  53.382  1.00  0.00     0.049 A 
HETATM   25  C17 UNL     1      29.037  -0.078  53.693  1.00  0.00     0.020 A 
HETATM   26  C18 UNL     1      29.842  -1.197  53.651  1.00  0.00     0.020 A 
HETATM   27  C19 UNL     1      29.334  -2.433  53.316  1.00  0.00     0.116 A 
HETATM   28  N6  UNL     1      28.046  -2.616  53.017  1.00  0.00    -0.272 NA
HETATM   29  C20 UNL     1      27.229  -1.524  53.051  1.00  0.00     0.133 A 
ENDBRANCH  21  24
ENDBRANCH   1  20
TORSDOF 4
ENDMDL
MODEL 2
REMARK VINA RESULT:      -9.2      1.066      1.294
REMARK  4 active torsions:
REMARK  status: ('A' for Active; 'I' for Inactive)
REMARK       I    between atoms: C1_2  and  N1_3 
REMARK    1  A    between atoms: C1_2  and  C16_22 
REMARK    2  A    between atoms: N1_3  and  C2_4 
REMARK    3  A    between atoms: C6_8  and  N2_9 
REMARK    4  A    between atoms: C7_11  and  C8_12 
ROOT
HETATM    1  C2  UNL     1      24.391   1.690  52.397  1.00  0.00     0.037 A 
HETATM    2  C3  UNL     1      23.100   1.277  52.698  1.00  0.00     0.029 A 
HETATM    3  C4  UNL     1      22.053   2.154  52.494  1.00  0.00     0.005 A 
HETATM    4  C5  UNL     1      22.261   3.423  52.000  1.00  0.00     0.033 A 
HETATM    5  C6  UNL     1      23.522   3.886  51.684  1.00  0.00     0.079 A 
HETATM    6  C15 UNL     1      24.533   2.973  51.906  1.00  0.00     0.062 A 
ENDROOT
BRANCH   5   7
HETATM    7  N2  UNL     1      23.814   5.174  51.175  1.00  0.00    -0.174 N 
HETATM    8  N3  UNL     1      25.002   5.378  50.460  1.00  0.00    -0.151 NA
HETATM    9  C7  UNL     1      25.347   6.512  49.963  1.00  0.00     0.092 A 
HETATM   10  C13 UNL     1      24.490   7.676  50.126  1.00  0.00     0.053 A 
HETATM   11  C14 UNL     1      23.366   7.492  50.800  1.00  0.00     0.111 A 
HETATM   12  N5  UNL     1      22.955   6.248  51.363  1.00  0.00    -0.289 N 
HETATM   13  H11 UNL     1      22.072   6.178  51.872  1.00  0.00     0.188 HD
BRANCH   9  14
HETATM   14  C8  UNL     1      26.614   6.574  49.242  1.00  0.00     0.012 A 
HETATM   15  C9  UNL     1      27.248   5.394  48.915  1.00  0.00     0.017 A 
HETATM   16  C10 UNL     1      28.449   5.303  48.236  1.00  0.00     0.020 A 
HETATM   17  C11 UNL     1      28.997   6.543  47.893  1.00  0.00     0.116 A 
HETATM   18  N4  UNL     1      28.411   7.714  48.194  1.00  0.00    -0.272 NA
HETATM   19  C12 UNL     1      27.227   7.749  48.863  1.00  0.00     0.130 A 
ENDBRANCH   9  14
ENDBRANCH   5   7
BRANCH   1  20
HETATM   20  N1  UNL     1      25.537   0.855  52.576  1.00  0.00    -0.323 N 
HETATM   21  C1  UNL     1      26.535   0.850  53.567  1.00  0.00     0.257 C 
HETATM   22  O1  UNL     1      26.392   1.742  54.456  1.00  0.00    -0.267 OA
HETATM   23  H1  UNL     1      25.481   0.202  51.764  1.00  0.00     0.169 HD
BRANCH  21  24
HETATM   24  C16 UNL     1      27.605  -0.142  53.488  1.00  0.00     0.049 A 
HETATM   25  C17 UNL     1      28.971   0.048  53.724  1.00  0.00     0.020 A 
HETATM   26  C18 UNL     1      29.796  -1.048  53.587  1.00  0.00     0.020 A 
HETATM   27  C19 UNL     1      29.297  -2.281  53.233  1.00  0.00     0.116 A 
HETATM   28  N6  UNL     1      27.996  -2.484  53.004  1.00  0.00    -0.272 NA
HETATM   29  C20 UNL     1      27.160  -1.415  53.132  1.00  0.00     0.133 A 
ENDBRANCH  21  24
ENDBRANCH   1  20
TORSDOF 4
ENDMDL
MODEL 3
REMARK VINA RESULT:      -9.2      3.006      7.395
REMARK  4 active torsions:
REMARK  status: ('A' for Active; 'I' for Inactive)
REMARK       I    between atoms: C1_2  and  N1_3 
REMARK    1  A    between atoms: C1_2  and  C16_22 
REMARK    2  A    between atoms: N1_3  and  C2_4 
REMARK    3  A    between atoms: C6_8  and  N2_9 
REMARK    4  A    between atoms: C7_11  and  C8_12 
ROOT
HETATM    1  C2  UNL     1      28.821   5.615  48.058  1.00  0.00     0.037 A 
HETATM    2  C3  UNL     1      28.402   6.908  47.775  1.00  0.00     0.029 A 
HETATM    3  C4  UNL     1      27.123   7.289  48.130  1.00  0.00     0.005 A 
HETATM    4  C5  UNL     1      26.258   6.419  48.756  1.00  0.00     0.033 A 
HETATM    5  C6  UNL     1      26.622   5.123  49.061  1.00  0.00     0.079 A 
HETATM    6  C15 UNL     1      27.908   4.791  48.685  1.00  0.00     0.062 A 
ENDROOT
BRANCH   5   7
HETATM    7  N2  UNL     1      25.791   4.171  49.700  1.00  0.00    -0.174 N 
HETATM    8  N3  UNL     1      26.343   3.305  50.653  1.00  0.00    -0.151 NA
HETATM    9  C7  UNL     1      25.664   2.413  51.281  1.00  0.00     0.092 A 
HETATM   10  C13 UNL     1      24.240   2.256  51.021  1.00  0.00     0.053 A 
HETATM   11  C14 UNL     1      23.711   3.071  50.123  1.00  0.00     0.111 A 
HETATM   12  N5  UNL     1      24.437   4.070  49.410  1.00  0.00    -0.289 N 
HETATM   13  H11 UNL     1      23.962   4.665  48.729  1.00  0.00     0.188 HD
BRANCH   9  14
HETATM   14  C8  UNL     1      26.374   1.582  52.247  1.00  0.00     0.012 A 
HETATM   15  C9  UNL     1      26.453   0.225  52.021  1.00  0.00     0.017 A 
HETATM   16  C10 UNL     1      27.092  -0.680  52.849  1.00  0.00     0.020 A 
HETATM   17  C11 UNL     1      27.674  -0.096  53.978  1.00  0.00     0.116 A 
HETATM   18  N4  UNL     1      27.619   1.222  54.235  1.00  0.00    -0.272 NA
HETATM   19  C12 UNL     1      26.978   2.072  53.386  1.00  0.00     0.130 A 
ENDBRANCH   9  14
ENDBRANCH   5   7
BRANCH   1  20
HETATM   20  N1  UNL     1      30.124   5.129  47.728  1.00  0.00    -0.323 N 
HETATM   21  C1  UNL     1      31.332   5.154  48.448  1.00  0.00     0.257 C 
HETATM   22  O1  UNL     1      31.249   5.702  49.589  1.00  0.00    -0.267 OA
HETATM   23  H1  UNL     1      29.990   4.724  46.776  1.00  0.00     0.169 HD
BRANCH  21  24
HETATM   24  C16 UNL     1      32.528   4.570  47.845  1.00  0.00     0.049 A 
HETATM   25  C17 UNL     1      32.613   3.430  47.038  1.00  0.00     0.020 A 
HETATM   26  C18 UNL     1      33.863   3.069  46.582  1.00  0.00     0.020 A 
HETATM   27  C19 UNL     1      34.984   3.802  46.906  1.00  0.00     0.116 A 
HETATM   28  N6  UNL     1      34.924   4.893  47.674  1.00  0.00    -0.272 NA
HETATM   29  C20 UNL     1      33.698   5.270  48.139  1.00  0.00     0.133 A 
ENDBRANCH  21  24
ENDBRANCH   1  20
TORSDOF 4
ENDMDL
MODEL 4
REMARK VINA RESULT:      -8.9      2.043      7.499
REMARK  4 active torsions:
REMARK  status: ('A' for Active; 'I' for Inactive)
REMARK       I    between atoms: C1_2  and  N1_3 
REMARK    1  A    between atoms: C1_2  and  C16_22 
REMARK    2  A    between atoms: N1_3  and  C2_4 
REMARK    3  A    between atoms: C6_8  and  N2_9 
REMARK    4  A    between atoms: C7_11  and  C8_12 
ROOT
HETATM    1  C2  UNL     1      24.511   3.844  49.453  1.00  0.00     0.037 A 
HETATM    2  C3  UNL     1      23.245   3.889  48.884  1.00  0.00     0.029 A 
HETATM    3  C4  UNL     1      22.277   3.017  49.342  1.00  0.00     0.005 A 
HETATM    4  C5  UNL     1      22.538   2.109  50.345  1.00  0.00     0.033 A 
HETATM    5  C6  UNL     1      23.778   2.021  50.944  1.00  0.00     0.079 A 
HETATM    6  C15 UNL     1      24.710   2.912  50.452  1.00  0.00     0.062 A 
ENDROOT
BRANCH   5   7
HETATM    7  N2  UNL     1      24.122   1.116  51.977  1.00  0.00    -0.174 N 
HETATM    8  N3  UNL     1      25.473   0.859  52.243  1.00  0.00    -0.151 NA
HETATM    9  C7  UNL     1      25.876   0.053  53.161  1.00  0.00     0.092 A 
HETATM   10  C13 UNL     1      24.913  -0.653  53.992  1.00  0.00     0.053 A 
HETATM   11  C14 UNL     1      23.635  -0.415  53.747  1.00  0.00     0.111 A 
HETATM   12  N5  UNL     1      23.157   0.472  52.738  1.00  0.00    -0.289 N 
HETATM   13  H11 UNL     1      22.153   0.609  52.604  1.00  0.00     0.188 HD
BRANCH   9  14
HETATM   14  C8  UNL     1      27.316  -0.116  53.324  1.00  0.00     0.012 A 
HETATM   15  C9  UNL     1      27.863  -1.366  53.124  1.00  0.00     0.017 A 
HETATM   16  C10 UNL     1      29.206  -1.670  53.244  1.00  0.00     0.020 A 
HETATM   17  C11 UNL     1      30.002  -0.576  53.598  1.00  0.00     0.116 A 
HETATM   18  N4  UNL     1      29.508   0.656  53.803  1.00  0.00    -0.272 NA
HETATM   19  C12 UNL     1      28.176   0.904  53.670  1.00  0.00     0.130 A 
ENDBRANCH   9  14
ENDBRANCH   5   7
BRANCH   1  20
HETATM   20  N1  UNL     1      25.577   4.704  49.046  1.00  0.00    -0.323 N 
HETATM   21  C1  UNL     1      25.953   5.987  49.484  1.00  0.00     0.257 C 
HETATM   22  O1  UNL     1      25.216   6.462  50.401  1.00  0.00    -0.267 OA
HETATM   23  H1  UNL     1      26.057   4.150  48.303  1.00  0.00     0.169 HD
BRANCH  21  24
HETATM   24  C16 UNL     1      27.111   6.634  48.871  1.00  0.00     0.049 A 
HETATM   25  C17 UNL     1      28.180   6.028  48.203  1.00  0.00     0.020 A 
HETATM   26  C18 UNL     1      29.165   6.853  47.705  1.00  0.00     0.020 A 
HETATM   27  C19 UNL     1      29.101   8.221  47.858  1.00  0.00     0.116 A 
HETATM   28  N6  UNL     1      28.089   8.819  48.491  1.00  0.00    -0.272 NA
HETATM   29  C20 UNL     1      27.101   8.024  48.994  1.00  0.00     0.133 A 
ENDBRANCH  21  24
ENDBRANCH   1  20
TORSDOF 4
ENDMDL
MODEL 5
REMARK VINA RESULT:      -8.8      1.796      2.976
REMARK  4 active torsions:
REMARK  status: ('A' for Active; 'I' for Inactive)
REMARK       I    between atoms: C1_2  and  N1_3 
REMARK    1  A    between atoms: C1_2  and  C16_22 
REMARK    2  A    between atoms: N1_3  and  C2_4 
REMARK    3  A    between atoms: C6_8  and  N2_9 
REMARK    4  A    between atoms: C7_11  and  C8_12 
ROOT
HETATM    1  C2  UNL     1      25.994   2.743  50.687  1.00  0.00     0.037 A 
HETATM    2  C3  UNL     1      24.609   2.763  50.780  1.00  0.00     0.029 A 
HETATM    3  C4  UNL     1      23.912   3.782  50.160  1.00  0.00     0.005 A 
HETATM    4  C5  UNL     1      24.558   4.774  49.457  1.00  0.00     0.033 A 
HETATM    5  C6  UNL     1      25.932   4.804  49.333  1.00  0.00     0.079 A 
HETATM    6  C15 UNL     1      26.582   3.765  49.969  1.00  0.00     0.062 A 
ENDROOT
BRANCH   5   7
HETATM    7  N2  UNL     1      26.667   5.789  48.629  1.00  0.00    -0.174 N 
HETATM    8  N3  UNL     1      28.056   5.655  48.508  1.00  0.00    -0.151 NA
HETATM    9  C7  UNL     1      28.801   6.499  47.887  1.00  0.00     0.092 A 
HETATM   10  C13 UNL     1      28.213   7.675  47.262  1.00  0.00     0.053 A 
HETATM   11  C14 UNL     1      26.901   7.808  47.372  1.00  0.00     0.111 A 
HETATM   12  N5  UNL     1      26.049   6.890  48.052  1.00  0.00    -0.289 N 
HETATM   13  H11 UNL     1      25.042   7.056  48.098  1.00  0.00     0.188 HD
BRANCH   9  14
HETATM   14  C8  UNL     1      30.233   6.229  47.842  1.00  0.00     0.012 A 
HETATM   15  C9  UNL     1      30.656   4.930  47.656  1.00  0.00     0.017 A 
HETATM   16  C10 UNL     1      31.978   4.530  47.594  1.00  0.00     0.020 A 
HETATM   17  C11 UNL     1      32.892   5.578  47.739  1.00  0.00     0.116 A 
HETATM   18  N4  UNL     1      32.520   6.856  47.924  1.00  0.00    -0.272 NA
HETATM   19  C12 UNL     1      31.204   7.199  47.976  1.00  0.00     0.130 A 
ENDBRANCH   9  14
ENDBRANCH   5   7
BRANCH   1  20
HETATM   20  N1  UNL     1      26.800   1.731  51.294  1.00  0.00    -0.323 N 
HETATM   21  C1  UNL     1      27.091   1.463  52.644  1.00  0.00     0.257 C 
HETATM   22  O1  UNL     1      26.541   2.258  53.464  1.00  0.00    -0.267 OA
HETATM   23  H1  UNL     1      27.156   1.191  50.475  1.00  0.00     0.169 HD
BRANCH  21  24
HETATM   24  C16 UNL     1      27.965   0.338  52.970  1.00  0.00     0.049 A 
HETATM   25  C17 UNL     1      29.293   0.381  53.407  1.00  0.00     0.020 A 
HETATM   26  C18 UNL     1      29.918  -0.822  53.654  1.00  0.00     0.020 A 
HETATM   27  C19 UNL     1      29.262  -2.020  53.477  1.00  0.00     0.116 A 
HETATM   28  N6  UNL     1      27.994  -2.083  53.061  1.00  0.00    -0.272 NA
HETATM   29  C20 UNL     1      27.354  -0.905  52.810  1.00  0.00     0.133 A 
ENDBRANCH  21  24
ENDBRANCH   1  20
TORSDOF 4
ENDMDL
MODEL 6
REMARK VINA RESULT:      -8.7      2.847      8.158
REMARK  4 active torsions:
REMARK  status: ('A' for Active; 'I' for Inactive)
REMARK       I    between atoms: C1_2  and  N1_3 
REMARK    1  A    between atoms: C1_2  and  C16_22 
REMARK    2  A    between atoms: N1_3  and  C2_4 
REMARK    3  A    between atoms: C6_8  and  N2_9 
REMARK    4  A    between atoms: C7_11  and  C8_12 
ROOT
HETATM    1  C2  UNL     1      26.201   2.083  52.060  1.00  0.00     0.037 A 
HETATM    2  C3  UNL     1      27.343   1.407  52.468  1.00  0.00     0.029 A 
HETATM    3  C4  UNL     1      27.204   0.235  53.186  1.00  0.00     0.005 A 
HETATM    4  C5  UNL     1      25.964  -0.274  53.504  1.00  0.00     0.033 A 
HETATM    5  C6  UNL     1      24.797   0.358  53.125  1.00  0.00     0.079 A 
HETATM    6  C15 UNL     1      24.989   1.523  52.411  1.00  0.00     0.062 A 
ENDROOT
BRANCH   5   7
HETATM    7  N2  UNL     1      23.490  -0.101  53.415  1.00  0.00    -0.174 N 
HETATM    8  N3  UNL     1      22.439   0.218  52.545  1.00  0.00    -0.151 NA
HETATM    9  C7  UNL     1      21.224  -0.156  52.729  1.00  0.00     0.092 A 
HETATM   10  C13 UNL     1      20.871  -0.956  53.893  1.00  0.00     0.053 A 
HETATM   11  C14 UNL     1      21.857  -1.262  54.720  1.00  0.00     0.111 A 
HETATM   12  N5  UNL     1      23.214  -0.863  54.543  1.00  0.00    -0.289 N 
HETATM   13  H11 UNL     1      23.926  -1.136  55.223  1.00  0.00     0.188 HD
BRANCH   9  14
HETATM   14  C8  UNL     1      20.235   0.251  51.738  1.00  0.00     0.012 A 
HETATM   15  C9  UNL     1      18.920  -0.117  51.923  1.00  0.00     0.017 A 
HETATM   16  C10 UNL     1      17.881   0.198  51.066  1.00  0.00     0.020 A 
HETATM   17  C11 UNL     1      18.276   0.947  49.954  1.00  0.00     0.116 A 
HETATM   18  N4  UNL     1      19.547   1.325  49.737  1.00  0.00    -0.272 NA
HETATM   19  C12 UNL     1      20.534   0.990  50.612  1.00  0.00     0.130 A 
ENDBRANCH   9  14
ENDBRANCH   5   7
BRANCH   1  20
HETATM   20  N1  UNL     1      26.244   3.302  51.315  1.00  0.00    -0.323 N 
HETATM   21  C1  UNL     1      26.481   3.547  49.950  1.00  0.00     0.257 C 
HETATM   22  O1  UNL     1      26.692   2.503  49.262  1.00  0.00    -0.267 OA
HETATM   23  H1  UNL     1      26.051   4.028  52.040  1.00  0.00     0.169 HD
BRANCH  21  24
HETATM   24  C16 UNL     1      26.463   4.925  49.464  1.00  0.00     0.049 A 
HETATM   25  C17 UNL     1      27.334   5.524  48.548  1.00  0.00     0.020 A 
HETATM   26  C18 UNL     1      27.116   6.850  48.241  1.00  0.00     0.020 A 
HETATM   27  C19 UNL     1      26.082   7.558  48.813  1.00  0.00     0.116 A 
HETATM   28  N6  UNL     1      25.240   7.005  49.689  1.00  0.00    -0.272 NA
HETATM   29  C20 UNL     1      25.434   5.694  50.010  1.00  0.00     0.133 A 
ENDBRANCH  21  24
ENDBRANCH   1  20
TORSDOF 4
ENDMDL
MODEL 7
REMARK VINA RESULT:      -8.6      4.013      8.661
REMARK  4 active torsions:
REMARK  status: ('A' for Active; 'I' for Inactive)
REMARK       I    between atoms: C1_2  and  N1_3 
REMARK    1  A    between atoms: C1_2  and  C16_22 
REMARK    2  A    between atoms: N1_3  and  C2_4 
REMARK    3  A    between atoms: C6_8  and  N2_9 
REMARK    4  A    between atoms: C7_11  and  C8_12 
ROOT
HETATM    1  C2  UNL     1      20.245   0.366  52.666  1.00  0.00     0.037 A 
HETATM    2  C3  UNL     1      20.062  -0.640  53.605  1.00  0.00     0.029 A 
HETATM    3  C4  UNL     1      21.172  -1.223  54.184  1.00  0.00     0.005 A 
HETATM    4  C5  UNL     1      22.449  -0.831  53.852  1.00  0.00     0.033 A 
HETATM    5  C6  UNL     1      22.689   0.163  52.924  1.00  0.00     0.079 A 
HETATM    6  C15 UNL     1      21.549   0.713  52.375  1.00  0.00     0.062 A 
ENDROOT
BRANCH   5   7
HETATM    7  N2  UNL     1      23.970   0.619  52.530  1.00  0.00    -0.174 N 
HETATM    8  N3  UNL     1      25.092  -0.184  52.775  1.00  0.00    -0.151 NA
HETATM    9  C7  UNL     1      26.290   0.150  52.451  1.00  0.00     0.092 A 
HETATM   10  C13 UNL     1      26.545   1.423  51.793  1.00  0.00     0.053 A 
HETATM   11  C14 UNL     1      25.490   2.187  51.558  1.00  0.00     0.111 A 
HETATM   12  N5  UNL     1      24.150   1.845  51.904  1.00  0.00    -0.289 N 
HETATM   13  H11 UNL     1      23.382   2.485  51.691  1.00  0.00     0.188 HD
BRANCH   9  14
HETATM   14  C8  UNL     1      27.360  -0.788  52.769  1.00  0.00     0.012 A 
HETATM   15  C9  UNL     1      28.554  -0.293  53.250  1.00  0.00     0.017 A 
HETATM   16  C10 UNL     1      29.650  -1.063  53.591  1.00  0.00     0.020 A 
HETATM   17  C11 UNL     1      29.455  -2.435  53.405  1.00  0.00     0.116 A 
HETATM   18  N4  UNL     1      28.308  -2.957  52.938  1.00  0.00    -0.272 NA
HETATM   19  C12 UNL     1      27.256  -2.154  52.618  1.00  0.00     0.130 A 
ENDBRANCH   9  14
ENDBRANCH   5   7
BRANCH   1  20
HETATM   20  N1  UNL     1      19.159   1.027  52.013  1.00  0.00    -0.323 N 
HETATM   21  C1  UNL     1      18.829   2.391  51.914  1.00  0.00     0.257 C 
HETATM   22  O1  UNL     1      19.636   3.168  52.508  1.00  0.00    -0.267 OA
HETATM   23  H1  UNL     1      18.620   0.238  51.594  1.00  0.00     0.169 HD
BRANCH  21  24
HETATM   24  C16 UNL     1      17.634   2.778  51.167  1.00  0.00     0.049 A 
HETATM   25  C17 UNL     1      17.365   4.005  50.553  1.00  0.00     0.020 A 
HETATM   26  C18 UNL     1      16.158   4.137  49.900  1.00  0.00     0.020 A 
HETATM   27  C19 UNL     1      15.252   3.100  49.853  1.00  0.00     0.116 A 
HETATM   28  N6  UNL     1      15.490   1.920  50.432  1.00  0.00    -0.272 NA
HETATM   29  C20 UNL     1      16.677   1.766  51.085  1.00  0.00     0.133 A 
ENDBRANCH  21  24
ENDBRANCH   1  20
TORSDOF 4
ENDMDL
MODEL 8
REMARK VINA RESULT:      -8.6      2.384      6.243
REMARK  4 active torsions:
REMARK  status: ('A' for Active; 'I' for Inactive)
REMARK       I    between atoms: C1_2  and  N1_3 
REMARK    1  A    between atoms: C1_2  and  C16_22 
REMARK    2  A    between atoms: N1_3  and  C2_4 
REMARK    3  A    between atoms: C6_8  and  N2_9 
REMARK    4  A    between atoms: C7_11  and  C8_12 
ROOT
HETATM    1  C2  UNL     1      25.969   2.559  50.999  1.00  0.00     0.037 A 
HETATM    2  C3  UNL     1      26.496   3.582  50.223  1.00  0.00     0.029 A 
HETATM    3  C4  UNL     1      25.648   4.563  49.746  1.00  0.00     0.005 A 
HETATM    4  C5  UNL     1      24.299   4.548  50.022  1.00  0.00     0.033 A 
HETATM    5  C6  UNL     1      23.722   3.555  50.787  1.00  0.00     0.079 A 
HETATM    6  C15 UNL     1      24.610   2.599  51.239  1.00  0.00     0.062 A 
ENDROOT
BRANCH   5   7
HETATM    7  N2  UNL     1      22.347   3.470  51.112  1.00  0.00    -0.174 N 
HETATM    8  N3  UNL     1      21.850   2.302  51.704  1.00  0.00    -0.151 NA
HETATM    9  C7  UNL     1      20.618   2.139  52.032  1.00  0.00     0.092 A 
HETATM   10  C13 UNL     1      19.649   3.198  51.794  1.00  0.00     0.053 A 
HETATM   11  C14 UNL     1      20.110   4.305  51.235  1.00  0.00     0.111 A 
HETATM   12  N5  UNL     1      21.469   4.516  50.861  1.00  0.00    -0.289 N 
HETATM   13  H11 UNL     1      21.756   5.399  50.433  1.00  0.00     0.188 HD
BRANCH   9  14
HETATM   14  C8  UNL     1      20.246   0.867  52.641  1.00  0.00     0.012 A 
HETATM   15  C9  UNL     1      19.013   0.326  52.344  1.00  0.00     0.017 A 
HETATM   16  C10 UNL     1      18.530  -0.868  52.848  1.00  0.00     0.020 A 
HETATM   17  C11 UNL     1      19.417  -1.513  53.715  1.00  0.00     0.116 A 
HETATM   18  N4  UNL     1      20.625  -1.018  54.031  1.00  0.00    -0.272 NA
HETATM   19  C12 UNL     1      21.055   0.162  53.507  1.00  0.00     0.130 A 
ENDBRANCH   9  14
ENDBRANCH   5   7
BRANCH   1  20
HETATM   20  N1  UNL     1      26.765   1.500  51.536  1.00  0.00    -0.323 N 
HETATM   21  C1  UNL     1      27.234   1.264  52.841  1.00  0.00     0.257 C 
HETATM   22  O1  UNL     1      26.890   2.143  53.688  1.00  0.00    -0.267 OA
HETATM   23  H1  UNL     1      26.942   0.894  50.706  1.00  0.00     0.169 HD
BRANCH  21  24
HETATM   24  C16 UNL     1      28.044   0.075  53.097  1.00  0.00     0.049 A 
HETATM   25  C17 UNL     1      29.372   0.018  53.535  1.00  0.00     0.020 A 
HETATM   26  C18 UNL     1      29.930  -1.231  53.707  1.00  0.00     0.020 A 
HETATM   27  C19 UNL     1      29.209  -2.378  53.458  1.00  0.00     0.116 A 
HETATM   28  N6  UNL     1      27.940  -2.346  53.041  1.00  0.00    -0.272 NA
HETATM   29  C20 UNL     1      27.367  -1.122  52.863  1.00  0.00     0.133 A 
ENDBRANCH  21  24
ENDBRANCH   1  20
TORSDOF 4
ENDMDL
MODEL 9
REMARK VINA RESULT:      -8.4      2.929      4.267
REMARK  4 active torsions:
REMARK  status: ('A' for Active; 'I' for Inactive)
REMARK       I    between atoms: C1_2  and  N1_3 
REMARK    1  A    between atoms: C1_2  and  C16_22 
REMARK    2  A    between atoms: N1_3  and  C2_4 
REMARK    3  A    between atoms: C6_8  and  N2_9 
REMARK    4  A    between atoms: C7_11  and  C8_12 
ROOT
HETATM    1  C2  UNL     1      23.360  -0.366  53.829  1.00  0.00     0.037 A 
HETATM    2  C3  UNL     1      22.568  -1.235  54.567  1.00  0.00     0.029 A 
HETATM    3  C4  UNL     1      21.204  -1.025  54.606  1.00  0.00     0.005 A 
HETATM    4  C5  UNL     1      20.615   0.022  53.933  1.00  0.00     0.033 A 
HETATM    5  C6  UNL     1      21.354   0.916  53.185  1.00  0.00     0.079 A 
HETATM    6  C15 UNL     1      22.710   0.664  53.177  1.00  0.00     0.062 A 
ENDROOT
BRANCH   5   7
HETATM    7  N2  UNL     1      20.822   2.015  52.467  1.00  0.00    -0.174 N 
HETATM    8  N3  UNL     1      21.665   3.075  52.109  1.00  0.00    -0.151 NA
HETATM    9  C7  UNL     1      21.268   4.110  51.459  1.00  0.00     0.092 A 
HETATM   10  C13 UNL     1      19.876   4.232  51.051  1.00  0.00     0.053 A 
HETATM   11  C14 UNL     1      19.074   3.234  51.386  1.00  0.00     0.111 A 
HETATM   12  N5  UNL     1      19.483   2.074  52.105  1.00  0.00    -0.289 N 
HETATM   13  H11 UNL     1      18.808   1.340  52.330  1.00  0.00     0.188 HD
BRANCH   9  14
HETATM   14  C8  UNL     1      22.259   5.136  51.156  1.00  0.00     0.012 A 
HETATM   15  C9  UNL     1      23.566   4.752  50.944  1.00  0.00     0.017 A 
HETATM   16  C10 UNL     1      24.607   5.614  50.650  1.00  0.00     0.020 A 
HETATM   17  C11 UNL     1      24.223   6.957  50.581  1.00  0.00     0.116 A 
HETATM   18  N4  UNL     1      22.961   7.372  50.781  1.00  0.00    -0.272 NA
HETATM   19  C12 UNL     1      21.972   6.482  51.067  1.00  0.00     0.130 A 
ENDBRANCH   9  14
ENDBRANCH   5   7
BRANCH   1  20
HETATM   20  N1  UNL     1      24.780  -0.501  53.729  1.00  0.00    -0.323 N 
HETATM   21  C1  UNL     1      25.807   0.460  53.760  1.00  0.00     0.257 C 
HETATM   22  O1  UNL     1      25.402   1.653  53.902  1.00  0.00    -0.267 OA
HETATM   23  H1  UNL     1      24.911  -1.530  53.620  1.00  0.00     0.169 HD
BRANCH  21  24
HETATM   24  C16 UNL     1      27.194   0.017  53.632  1.00  0.00     0.049 A 
HETATM   25  C17 UNL     1      27.663  -1.215  53.165  1.00  0.00     0.020 A 
HETATM   26  C18 UNL     1      29.028  -1.404  53.135  1.00  0.00     0.020 A 
HETATM   27  C19 UNL     1      29.897  -0.418  53.549  1.00  0.00     0.116 A 
HETATM   28  N6  UNL     1      29.470   0.765  53.997  1.00  0.00    -0.272 NA
HETATM   29  C20 UNL     1      28.123   0.976  54.037  1.00  0.00     0.133 A 
ENDBRANCH  21  24
ENDBRANCH   1  20
TORSDOF 4
ENDMDL
