MODEL 1
REMARK VINA RESULT:      -6.8      0.000      0.000
REMARK  4 active torsions:
REMARK  status: ('A' for Active; 'I' for Inactive)
REMARK    1  A    between atoms: C3_3  and  C4_4 
REMARK       I    between atoms: C4_4  and  N1_6 
REMARK    2  A    between atoms: N1_6  and  C5_7 
REMARK    3  A    between atoms: C12_17  and  N4_18 
REMARK    4  A    between atoms: N4_18  and  C13_19 
ROOT
HETATM    1  C5  UNL     1      24.470  -0.523  54.289  1.00  0.00     0.140 C 
HETATM    2  N2  UNL     1      24.007  -1.171  55.294  1.00  0.00    -0.224 NA
HETATM    3  C6  UNL     1      22.677  -1.642  55.328  1.00  0.00     0.229 C 
HETATM    4  N3  UNL     1      21.886  -1.468  54.345  1.00  0.00    -0.278 NA
HETATM    5  C7  UNL     1      22.274  -0.791  53.100  1.00  0.00     0.193 C 
HETATM    6  C8  UNL     1      23.504  -0.003  53.284  1.00  0.00     0.017 C 
HETATM    7  C9  UNL     1      23.652   1.217  52.680  1.00  0.00    -0.012 C 
HETATM    8  C10 UNL     1      24.676   2.283  52.827  1.00  0.00     0.058 C 
HETATM    9  C11 UNL     1      23.906   3.578  52.798  1.00  0.00     0.072 C 
HETATM   10  S1  UNL     1      22.694   3.247  51.488  1.00  0.00    -0.106 SA
HETATM   11  C12 UNL     1      22.711   1.590  51.614  1.00  0.00     0.073 C 
ENDROOT
BRANCH   1  12
HETATM   12  N1  UNL     1      25.817  -0.028  54.140  1.00  0.00    -0.308 N 
HETATM   13  C4  UNL     1      26.655  -0.853  53.304  1.00  0.00     0.246 C 
HETATM   14  O1  UNL     1      26.182  -1.916  52.773  1.00  0.00    -0.268 OA
HETATM   15  H6  UNL     1      26.139   0.863  54.564  1.00  0.00     0.170 HD
BRANCH  13  16
HETATM   16  C3  UNL     1      28.042  -0.452  53.083  1.00  0.00     0.070 C 
HETATM   17  C2  UNL     1      29.123  -0.778  53.813  1.00  0.00    -0.026 C 
HETATM   18  C1  UNL     1      30.493  -0.305  53.486  1.00  0.00     0.036 C 
ENDBRANCH  13  16
ENDBRANCH   1  12
BRANCH  11  19
HETATM   19  N4  UNL     1      21.886   0.811  50.687  1.00  0.00    -0.384 N 
HETATM   20  H13 UNL     1      21.720  -0.197  50.651  1.00  0.00     0.160 HD
BRANCH  19  21
HETATM   21  C13 UNL     1      21.177   1.477  49.612  1.00  0.00     0.116 C 
HETATM   22  C14 UNL     1      21.917   1.358  48.303  1.00  0.00     0.026 C 
ENDBRANCH  19  21
ENDBRANCH  11  19
TORSDOF 4
ENDMDL
MODEL 2
REMARK VINA RESULT:      -6.3      2.638      5.606
REMARK  4 active torsions:
REMARK  status: ('A' for Active; 'I' for Inactive)
REMARK    1  A    between atoms: C3_3  and  C4_4 
REMARK       I    between atoms: C4_4  and  N1_6 
REMARK    2  A    between atoms: N1_6  and  C5_7 
REMARK    3  A    between atoms: C12_17  and  N4_18 
REMARK    4  A    between atoms: N4_18  and  C13_19 
ROOT
HETATM    1  C5  UNL     1      23.211   0.067  52.975  1.00  0.00     0.140 C 
HETATM    2  N2  UNL     1      24.223  -0.569  53.437  1.00  0.00    -0.224 NA
HETATM    3  C6  UNL     1      25.440   0.081  53.736  1.00  0.00     0.229 C 
HETATM    4  N3  UNL     1      25.574   1.338  53.587  1.00  0.00    -0.278 NA
HETATM    5  C7  UNL     1      24.497   2.221  53.117  1.00  0.00     0.193 C 
HETATM    6  C8  UNL     1      23.424   1.450  52.467  1.00  0.00     0.017 C 
HETATM    7  C9  UNL     1      22.786   1.934  51.356  1.00  0.00    -0.012 C 
HETATM    8  C10 UNL     1      21.821   1.313  50.412  1.00  0.00     0.058 C 
HETATM    9  C11 UNL     1      22.240   1.793  49.046  1.00  0.00     0.072 C 
HETATM   10  S1  UNL     1      22.645   3.530  49.384  1.00  0.00    -0.106 SA
HETATM   11  C12 UNL     1      22.971   3.348  51.003  1.00  0.00     0.073 C 
ENDROOT
BRANCH   1  12
HETATM   12  N1  UNL     1      21.917  -0.493  52.669  1.00  0.00    -0.308 N 
HETATM   13  C4  UNL     1      20.974  -0.417  53.758  1.00  0.00     0.246 C 
HETATM   14  O1  UNL     1      21.318   0.113  54.870  1.00  0.00    -0.268 OA
HETATM   15  H6  UNL     1      21.678  -0.878  51.736  1.00  0.00     0.170 HD
BRANCH  13  16
HETATM   16  C3  UNL     1      19.629  -0.956  53.565  1.00  0.00     0.070 C 
HETATM   17  C2  UNL     1      18.684  -0.529  52.710  1.00  0.00    -0.026 C 
HETATM   18  C1  UNL     1      17.343  -1.163  52.603  1.00  0.00     0.036 C 
ENDBRANCH  13  16
ENDBRANCH   1  12
BRANCH  11  19
HETATM   19  N4  UNL     1      23.322   4.539  51.782  1.00  0.00    -0.384 N 
HETATM   20  H13 UNL     1      23.771   4.611  52.697  1.00  0.00     0.160 HD
BRANCH  19  21
HETATM   21  C13 UNL     1      23.004   5.859  51.272  1.00  0.00     0.116 C 
HETATM   22  C14 UNL     1      24.239   6.714  51.142  1.00  0.00     0.026 C 
ENDBRANCH  19  21
ENDBRANCH  11  19
TORSDOF 4
ENDMDL
MODEL 3
REMARK VINA RESULT:      -6.1      3.901      5.684
REMARK  4 active torsions:
REMARK  status: ('A' for Active; 'I' for Inactive)
REMARK    1  A    between atoms: C3_3  and  C4_4 
REMARK       I    between atoms: C4_4  and  N1_6 
REMARK    2  A    between atoms: N1_6  and  C5_7 
REMARK    3  A    between atoms: C12_17  and  N4_18 
REMARK    4  A    between atoms: N4_18  and  C13_19 
ROOT
HETATM    1  C5  UNL     1      26.090   3.409  50.160  1.00  0.00     0.140 C 
HETATM    2  N2  UNL     1      27.023   3.729  49.341  1.00  0.00    -0.224 NA
HETATM    3  C6  UNL     1      27.144   5.036  48.823  1.00  0.00     0.229 C 
HETATM    4  N3  UNL     1      26.346   5.965  49.173  1.00  0.00    -0.278 NA
HETATM    5  C7  UNL     1      25.255   5.778  50.139  1.00  0.00     0.193 C 
HETATM    6  C8  UNL     1      24.949   4.350  50.327  1.00  0.00     0.017 C 
HETATM    7  C9  UNL     1      23.657   3.923  50.478  1.00  0.00    -0.012 C 
HETATM    8  C10 UNL     1      23.052   2.567  50.502  1.00  0.00     0.058 C 
HETATM    9  C11 UNL     1      21.772   2.691  49.717  1.00  0.00     0.072 C 
HETATM   10  S1  UNL     1      21.150   4.295  50.295  1.00  0.00    -0.106 SA
HETATM   11  C12 UNL     1      22.617   4.925  50.755  1.00  0.00     0.073 C 
ENDROOT
BRANCH   1  12
HETATM   12  N1  UNL     1      25.897   2.116  50.772  1.00  0.00    -0.308 N 
HETATM   13  C4  UNL     1      26.852   1.810  51.808  1.00  0.00     0.246 C 
HETATM   14  O1  UNL     1      27.765   2.655  52.109  1.00  0.00    -0.268 OA
HETATM   15  H6  UNL     1      25.115   1.484  50.514  1.00  0.00     0.170 HD
BRANCH  13  16
HETATM   16  C3  UNL     1      26.757   0.526  52.498  1.00  0.00     0.070 C 
HETATM   17  C2  UNL     1      26.893  -0.705  51.974  1.00  0.00    -0.026 C 
HETATM   18  C1  UNL     1      26.772  -1.946  52.782  1.00  0.00     0.036 C 
ENDBRANCH  13  16
ENDBRANCH   1  12
BRANCH  11  19
HETATM   19  N4  UNL     1      22.645   6.259  51.361  1.00  0.00    -0.384 N 
HETATM   20  H13 UNL     1      23.201   6.608  52.144  1.00  0.00     0.160 HD
BRANCH  19  21
HETATM   21  C13 UNL     1      21.773   7.302  50.858  1.00  0.00     0.116 C 
HETATM   22  C14 UNL     1      22.416   8.063  49.726  1.00  0.00     0.026 C 
ENDBRANCH  19  21
ENDBRANCH  11  19
TORSDOF 4
ENDMDL
MODEL 4
REMARK VINA RESULT:      -6.1      3.537      4.860
REMARK  4 active torsions:
REMARK  status: ('A' for Active; 'I' for Inactive)
REMARK    1  A    between atoms: C3_3  and  C4_4 
REMARK       I    between atoms: C4_4  and  N1_6 
REMARK    2  A    between atoms: N1_6  and  C5_7 
REMARK    3  A    between atoms: C12_17  and  N4_18 
REMARK    4  A    between atoms: N4_18  and  C13_19 
ROOT
HETATM    1  C5  UNL     1      25.218   3.029  51.521  1.00  0.00     0.140 C 
HETATM    2  N2  UNL     1      25.719   2.368  52.499  1.00  0.00    -0.224 NA
HETATM    3  C6  UNL     1      25.058   1.257  53.064  1.00  0.00     0.229 C 
HETATM    4  N3  UNL     1      23.944   0.843  52.605  1.00  0.00    -0.278 NA
HETATM    5  C7  UNL     1      23.260   1.456  51.458  1.00  0.00     0.193 C 
HETATM    6  C8  UNL     1      23.786   2.803  51.182  1.00  0.00     0.017 C 
HETATM    7  C9  UNL     1      22.951   3.817  50.795  1.00  0.00    -0.012 C 
HETATM    8  C10 UNL     1      23.167   5.278  50.630  1.00  0.00     0.058 C 
HETATM    9  C11 UNL     1      21.924   5.926  51.182  1.00  0.00     0.072 C 
HETATM   10  S1  UNL     1      20.631   4.823  50.547  1.00  0.00    -0.106 SA
HETATM   11  C12 UNL     1      21.587   3.476  50.367  1.00  0.00     0.073 C 
ENDROOT
BRANCH   1  12
HETATM   12  N1  UNL     1      25.824   4.154  50.852  1.00  0.00    -0.308 N 
HETATM   13  C4  UNL     1      26.583   3.798  49.678  1.00  0.00     0.246 C 
HETATM   14  O1  UNL     1      26.671   2.574  49.317  1.00  0.00    -0.268 OA
HETATM   15  H6  UNL     1      25.690   5.134  51.166  1.00  0.00     0.170 HD
BRANCH  13  16
HETATM   16  C3  UNL     1      27.245   4.857  48.919  1.00  0.00     0.070 C 
HETATM   17  C2  UNL     1      26.778   6.085  48.636  1.00  0.00    -0.026 C 
HETATM   18  C1  UNL     1      27.550   7.082  47.848  1.00  0.00     0.036 C 
ENDBRANCH  13  16
ENDBRANCH   1  12
BRANCH  11  19
HETATM   19  N4  UNL     1      20.985   2.261  49.810  1.00  0.00    -0.384 N 
HETATM   20  H13 UNL     1      20.588   1.451  50.290  1.00  0.00     0.160 HD
BRANCH  19  21
HETATM   21  C13 UNL     1      20.914   2.080  48.373  1.00  0.00     0.116 C 
HETATM   22  C14 UNL     1      22.288   1.937  47.766  1.00  0.00     0.026 C 
ENDBRANCH  19  21
ENDBRANCH  11  19
TORSDOF 4
ENDMDL
MODEL 5
REMARK VINA RESULT:      -6.1      2.980      4.562
REMARK  4 active torsions:
REMARK  status: ('A' for Active; 'I' for Inactive)
REMARK    1  A    between atoms: C3_3  and  C4_4 
REMARK       I    between atoms: C4_4  and  N1_6 
REMARK    2  A    between atoms: N1_6  and  C5_7 
REMARK    3  A    between atoms: C12_17  and  N4_18 
REMARK    4  A    between atoms: N4_18  and  C13_19 
ROOT
HETATM    1  C5  UNL     1      25.494   2.495  52.294  1.00  0.00     0.140 C 
HETATM    2  N2  UNL     1      26.288   2.072  53.208  1.00  0.00    -0.224 NA
HETATM    3  C6  UNL     1      25.994   0.927  53.979  1.00  0.00     0.229 C 
HETATM    4  N3  UNL     1      24.938   0.244  53.777  1.00  0.00    -0.278 NA
HETATM    5  C7  UNL     1      23.951   0.562  52.736  1.00  0.00     0.193 C 
HETATM    6  C8  UNL     1      24.112   1.944  52.255  1.00  0.00     0.017 C 
HETATM    7  C9  UNL     1      23.020   2.714  51.954  1.00  0.00    -0.012 C 
HETATM    8  C10 UNL     1      22.877   4.157  51.632  1.00  0.00     0.058 C 
HETATM    9  C11 UNL     1      21.633   4.602  52.357  1.00  0.00     0.072 C 
HETATM   10  S1  UNL     1      20.527   3.191  52.074  1.00  0.00    -0.106 SA
HETATM   11  C12 UNL     1      21.713   2.054  51.825  1.00  0.00     0.073 C 
ENDROOT
BRANCH   1  12
HETATM   12  N1  UNL     1      25.714   3.630  51.431  1.00  0.00    -0.308 N 
HETATM   13  C4  UNL     1      26.463   3.322  50.238  1.00  0.00     0.246 C 
HETATM   14  O1  UNL     1      26.868   2.127  50.024  1.00  0.00    -0.268 OA
HETATM   15  H6  UNL     1      25.330   4.573  51.634  1.00  0.00     0.170 HD
BRANCH  13  16
HETATM   16  C3  UNL     1      26.749   4.395  49.288  1.00  0.00     0.070 C 
HETATM   17  C2  UNL     1      26.199   5.621  49.238  1.00  0.00    -0.026 C 
HETATM   18  C1  UNL     1      26.574   6.634  48.217  1.00  0.00     0.036 C 
ENDBRANCH  13  16
ENDBRANCH   1  12
BRANCH  11  19
HETATM   19  N4  UNL     1      21.309   0.685  51.496  1.00  0.00    -0.384 N 
HETATM   20  H13 UNL     1      21.728   0.020  50.842  1.00  0.00     0.160 HD
BRANCH  19  21
HETATM   21  C13 UNL     1      20.137   0.103  52.122  1.00  0.00     0.116 C 
HETATM   22  C14 UNL     1      20.420  -0.314  53.544  1.00  0.00     0.026 C 
ENDBRANCH  19  21
ENDBRANCH  11  19
TORSDOF 4
ENDMDL
MODEL 6
REMARK VINA RESULT:      -5.9      2.647      3.301
REMARK  4 active torsions:
REMARK  status: ('A' for Active; 'I' for Inactive)
REMARK    1  A    between atoms: C3_3  and  C4_4 
REMARK       I    between atoms: C4_4  and  N1_6 
REMARK    2  A    between atoms: N1_6  and  C5_7 
REMARK    3  A    between atoms: C12_17  and  N4_18 
REMARK    4  A    between atoms: N4_18  and  C13_19 
ROOT
HETATM    1  C5  UNL     1      23.929  -0.084  53.218  1.00  0.00     0.140 C 
HETATM    2  N2  UNL     1      24.439  -0.566  54.291  1.00  0.00    -0.224 NA
HETATM    3  C6  UNL     1      23.642  -1.152  55.298  1.00  0.00     0.229 C 
HETATM    4  N3  UNL     1      22.379  -1.255  55.168  1.00  0.00    -0.278 NA
HETATM    5  C7  UNL     1      21.645  -0.801  53.979  1.00  0.00     0.193 C 
HETATM    6  C8  UNL     1      22.457   0.127  53.175  1.00  0.00     0.017 C 
HETATM    7  C9  UNL     1      21.885   1.214  52.566  1.00  0.00    -0.012 C 
HETATM    8  C10 UNL     1      22.471   2.385  51.865  1.00  0.00     0.058 C 
HETATM    9  C11 UNL     1      21.645   3.565  52.309  1.00  0.00     0.072 C 
HETATM   10  S1  UNL     1      19.972   2.862  52.286  1.00  0.00    -0.106 SA
HETATM   11  C12 UNL     1      20.420   1.273  52.473  1.00  0.00     0.073 C 
ENDROOT
BRANCH   1  12
HETATM   12  N1  UNL     1      24.654   0.504  52.117  1.00  0.00    -0.308 N 
HETATM   13  C4  UNL     1      25.522   1.589  52.502  1.00  0.00     0.246 C 
HETATM   14  O1  UNL     1      25.597   1.948  53.728  1.00  0.00    -0.268 OA
HETATM   15  H6  UNL     1      24.584   0.149  51.145  1.00  0.00     0.170 HD
BRANCH  13  16
HETATM   16  C3  UNL     1      26.306   2.264  51.470  1.00  0.00     0.070 C 
HETATM   17  C2  UNL     1      25.854   2.994  50.436  1.00  0.00    -0.026 C 
HETATM   18  C1  UNL     1      26.756   3.636  49.443  1.00  0.00     0.036 C 
ENDBRANCH  13  16
ENDBRANCH   1  12
BRANCH  11  19
HETATM   19  N4  UNL     1      19.372   0.248  52.471  1.00  0.00    -0.384 N 
HETATM   20  H13 UNL     1      19.043  -0.350  53.231  1.00  0.00     0.160 HD
BRANCH  19  21
HETATM   21  C13 UNL     1      18.653  -0.051  51.248  1.00  0.00     0.116 C 
HETATM   22  C14 UNL     1      17.207  -0.381  51.523  1.00  0.00     0.026 C 
ENDBRANCH  19  21
ENDBRANCH  11  19
TORSDOF 4
ENDMDL
MODEL 7
REMARK VINA RESULT:      -5.9      9.894     11.982
REMARK  4 active torsions:
REMARK  status: ('A' for Active; 'I' for Inactive)
REMARK    1  A    between atoms: C3_3  and  C4_4 
REMARK       I    between atoms: C4_4  and  N1_6 
REMARK    2  A    between atoms: N1_6  and  C5_7 
REMARK    3  A    between atoms: C12_17  and  N4_18 
REMARK    4  A    between atoms: N4_18  and  C13_19 
ROOT
HETATM    1  C5  UNL     1      30.869   7.037  48.198  1.00  0.00     0.140 C 
HETATM    2  N2  UNL     1      31.041   8.185  48.744  1.00  0.00    -0.224 NA
HETATM    3  C6  UNL     1      31.822   9.191  48.136  1.00  0.00     0.229 C 
HETATM    4  N3  UNL     1      32.367   9.011  46.999  1.00  0.00    -0.278 NA
HETATM    5  C7  UNL     1      32.227   7.775  46.217  1.00  0.00     0.193 C 
HETATM    6  C8  UNL     1      31.750   6.665  47.058  1.00  0.00     0.017 C 
HETATM    7  C9  UNL     1      32.236   5.395  46.885  1.00  0.00    -0.012 C 
HETATM    8  C10 UNL     1      32.078   4.152  47.682  1.00  0.00     0.058 C 
HETATM    9  C11 UNL     1      33.438   3.504  47.678  1.00  0.00     0.072 C 
HETATM   10  S1  UNL     1      33.959   3.774  45.960  1.00  0.00    -0.106 SA
HETATM   11  C12 UNL     1      33.000   5.098  45.666  1.00  0.00     0.073 C 
ENDROOT
BRANCH   1  12
HETATM   12  N1  UNL     1      30.067   5.956  48.717  1.00  0.00    -0.308 N 
HETATM   13  C4  UNL     1      28.713   5.941  48.220  1.00  0.00     0.246 C 
HETATM   14  O1  UNL     1      28.322   6.837  47.395  1.00  0.00    -0.268 OA
HETATM   15  H6  UNL     1      30.446   5.233  49.357  1.00  0.00     0.170 HD
BRANCH  13  16
HETATM   16  C3  UNL     1      27.806   4.891  48.679  1.00  0.00     0.070 C 
HETATM   17  C2  UNL     1      26.516   5.014  49.036  1.00  0.00    -0.026 C 
HETATM   18  C1  UNL     1      25.689   3.864  49.490  1.00  0.00     0.036 C 
ENDBRANCH  13  16
ENDBRANCH   1  12
BRANCH  11  19
HETATM   19  N4  UNL     1      33.025   5.694  44.327  1.00  0.00    -0.384 N 
HETATM   20  H13 UNL     1      32.433   6.426  43.928  1.00  0.00     0.160 HD
BRANCH  19  21
HETATM   21  C13 UNL     1      33.982   5.228  43.343  1.00  0.00     0.116 C 
HETATM   22  C14 UNL     1      33.293   4.638  42.138  1.00  0.00     0.026 C 
ENDBRANCH  19  21
ENDBRANCH  11  19
TORSDOF 4
ENDMDL
MODEL 8
REMARK VINA RESULT:      -5.8      3.384      5.698
REMARK  4 active torsions:
REMARK  status: ('A' for Active; 'I' for Inactive)
REMARK    1  A    between atoms: C3_3  and  C4_4 
REMARK       I    between atoms: C4_4  and  N1_6 
REMARK    2  A    between atoms: N1_6  and  C5_7 
REMARK    3  A    between atoms: C12_17  and  N4_18 
REMARK    4  A    between atoms: N4_18  and  C13_19 
ROOT
HETATM    1  C5  UNL     1      24.728   2.674  50.900  1.00  0.00     0.140 C 
HETATM    2  N2  UNL     1      25.843   2.723  50.268  1.00  0.00    -0.224 NA
HETATM    3  C6  UNL     1      26.372   3.938  49.782  1.00  0.00     0.229 C 
HETATM    4  N3  UNL     1      25.775   5.046  49.977  1.00  0.00    -0.278 NA
HETATM    5  C7  UNL     1      24.516   5.171  50.723  1.00  0.00     0.193 C 
HETATM    6  C8  UNL     1      23.841   3.869  50.851  1.00  0.00     0.017 C 
HETATM    7  C9  UNL     1      22.478   3.772  50.759  1.00  0.00    -0.012 C 
HETATM    8  C10 UNL     1      21.566   2.603  50.670  1.00  0.00     0.058 C 
HETATM    9  C11 UNL     1      20.519   2.995  49.660  1.00  0.00     0.072 C 
HETATM   10  S1  UNL     1      20.214   4.726  50.111  1.00  0.00    -0.106 SA
HETATM   11  C12 UNL     1      21.682   5.005  50.837  1.00  0.00     0.073 C 
ENDROOT
BRANCH   1  12
HETATM   12  N1  UNL     1      24.118   1.495  51.464  1.00  0.00    -0.308 N 
HETATM   13  C4  UNL     1      24.396   1.306  52.867  1.00  0.00     0.246 C 
HETATM   14  O1  UNL     1      25.127   2.147  53.495  1.00  0.00    -0.268 OA
HETATM   15  H6  UNL     1      23.501   0.864  50.917  1.00  0.00     0.170 HD
BRANCH  13  16
HETATM   16  C3  UNL     1      23.832   0.142  53.547  1.00  0.00     0.070 C 
HETATM   17  C2  UNL     1      22.537  -0.124  53.790  1.00  0.00    -0.026 C 
HETATM   18  C1  UNL     1      22.082  -1.351  54.497  1.00  0.00     0.036 C 
ENDBRANCH  13  16
ENDBRANCH   1  12
BRANCH  11  19
HETATM   19  N4  UNL     1      21.925   6.319  51.438  1.00  0.00    -0.384 N 
HETATM   20  H13 UNL     1      22.369   6.558  52.327  1.00  0.00     0.160 HD
BRANCH  19  21
HETATM   21  C13 UNL     1      21.487   7.521  50.755  1.00  0.00     0.116 C 
HETATM   22  C14 UNL     1      22.596   8.125  49.930  1.00  0.00     0.026 C 
ENDBRANCH  19  21
ENDBRANCH  11  19
TORSDOF 4
ENDMDL
MODEL 9
REMARK VINA RESULT:      -5.7     10.101     12.165
REMARK  4 active torsions:
REMARK  status: ('A' for Active; 'I' for Inactive)
REMARK    1  A    between atoms: C3_3  and  C4_4 
REMARK       I    between atoms: C4_4  and  N1_6 
REMARK    2  A    between atoms: N1_6  and  C5_7 
REMARK    3  A    between atoms: C12_17  and  N4_18 
REMARK    4  A    between atoms: N4_18  and  C13_19 
ROOT
HETATM    1  C5  UNL     1      29.782   8.121  48.629  1.00  0.00     0.140 C 
HETATM    2  N2  UNL     1      29.408   9.218  49.178  1.00  0.00    -0.224 NA
HETATM    3  C6  UNL     1      29.870  10.472  48.727  1.00  0.00     0.229 C 
HETATM    4  N3  UNL     1      30.659  10.570  47.732  1.00  0.00    -0.278 NA
HETATM    5  C7  UNL     1      31.142   9.417  46.961  1.00  0.00     0.193 C 
HETATM    6  C8  UNL     1      30.948   8.161  47.705  1.00  0.00     0.017 C 
HETATM    7  C9  UNL     1      31.889   7.166  47.661  1.00  0.00    -0.012 C 
HETATM    8  C10 UNL     1      32.042   5.905  48.431  1.00  0.00     0.058 C 
HETATM    9  C11 UNL     1      33.517   5.797  48.722  1.00  0.00     0.072 C 
HETATM   10  S1  UNL     1      34.235   6.338  47.146  1.00  0.00    -0.106 SA
HETATM   11  C12 UNL     1      32.937   7.239  46.634  1.00  0.00     0.073 C 
ENDROOT
BRANCH   1  12
HETATM   12  N1  UNL     1      29.347   6.794  48.990  1.00  0.00    -0.308 N 
HETATM   13  C4  UNL     1      28.173   6.349  48.279  1.00  0.00     0.246 C 
HETATM   14  O1  UNL     1      27.616   7.114  47.418  1.00  0.00    -0.268 OA
HETATM   15  H6  UNL     1      29.858   6.200  49.671  1.00  0.00     0.170 HD
BRANCH  13  16
HETATM   16  C3  UNL     1      27.637   5.020  48.564  1.00  0.00     0.070 C 
HETATM   17  C2  UNL     1      26.551   4.706  49.290  1.00  0.00    -0.026 C 
HETATM   18  C1  UNL     1      26.102   3.306  49.512  1.00  0.00     0.036 C 
ENDBRANCH  13  16
ENDBRANCH   1  12
BRANCH  11  19
HETATM   19  N4  UNL     1      33.009   7.882  45.318  1.00  0.00    -0.384 N 
HETATM   20  H13 UNL     1      32.276   8.023  44.620  1.00  0.00     0.160 HD
BRANCH  19  21
HETATM   21  C13 UNL     1      34.271   8.409  44.837  1.00  0.00     0.116 C 
HETATM   22  C14 UNL     1      34.568   9.764  45.429  1.00  0.00     0.026 C 
ENDBRANCH  19  21
ENDBRANCH  11  19
TORSDOF 4
ENDMDL
