MODEL 1
REMARK VINA RESULT:      -8.0      0.000      0.000
REMARK  4 active torsions:
REMARK  status: ('A' for Active; 'I' for Inactive)
REMARK    1  A    between atoms: N1_2  and  C2_3 
REMARK    2  A    between atoms: C7_8  and  C8_9 
REMARK    3  A    between atoms: C8_9  and  N2_11 
REMARK    4  A    between atoms: N3_14  and  C12_15 
ROOT
HETATM    1  N2  UNL     1      25.327   0.799  52.300  1.00  0.00     0.100 N 
HETATM    2  C10 UNL     1      26.244   1.747  51.696  1.00  0.00     0.293 C 
HETATM    3  C11 UNL     1      25.492   2.710  50.789  1.00  0.00     0.154 C 
HETATM    4  N3  UNL     1      24.614   3.537  51.595  1.00  0.00    -0.372 N 
HETATM    5  C17 UNL     1      24.362   2.927  52.864  1.00  0.00     0.154 C 
HETATM    6  C18 UNL     1      24.038   1.448  52.579  1.00  0.00     0.293 C 
ENDROOT
BRANCH   1   7
HETATM    7  C8  UNL     1      25.787   0.266  53.540  1.00  0.00     0.254 C 
HETATM    8  C9  UNL     1      24.688  -0.532  54.195  1.00  0.00     0.048 C 
BRANCH   7   9
HETATM    9  C7  UNL     1      27.032  -0.550  53.437  1.00  0.00     0.003 A 
HETATM   10  C2  UNL     1      28.208  -0.067  53.973  1.00  0.00     0.064 A 
HETATM   11  C3  UNL     1      29.378  -0.822  53.890  1.00  0.00     0.032 A 
HETATM   12  C4  UNL     1      29.401  -2.068  53.273  1.00  0.00     0.002 A 
HETATM   13  C5  UNL     1      28.208  -2.548  52.732  1.00  0.00     0.001 A 
HETATM   14  C6  UNL     1      27.054  -1.790  52.821  1.00  0.00     0.012 A 
BRANCH  10  15
HETATM   15  N1  UNL     1      28.322   1.193  54.622  1.00  0.00    -0.271 NA
HETATM   16  C1  UNL     1      29.000   2.155  54.065  1.00  0.00     0.149 C 
ENDBRANCH  10  15
ENDBRANCH   7   9
ENDBRANCH   1   7
BRANCH   4  17
HETATM   17  C12 UNL     1      24.164   4.759  51.007  1.00  0.00     0.078 C 
HETATM   18  S1  UNL     1      22.660   5.220  51.531  1.00  0.00    -0.060 SA
HETATM   19  N4  UNL     1      21.671   6.663  51.093  1.00  0.00    -0.220 NA
HETATM   20  H15 UNL     1      22.444   4.745  52.882  1.00  0.00     0.122 HD
HETATM   21  C13 UNL     1      21.938   7.615  50.261  1.00  0.00     0.117 C 
HETATM   22  C14 UNL     1      23.114   8.121  50.097  1.00  0.00     0.175 C 
HETATM   23  O1  UNL     1      24.239   7.691  49.407  1.00  0.00    -0.332 OA
HETATM   24  C15 UNL     1      25.078   6.604  49.432  1.00  0.00     0.144 C 
HETATM   25  C16 UNL     1      25.103   5.404  50.052  1.00  0.00     0.062 C 
ENDBRANCH   4  17
TORSDOF 4
ENDMDL
MODEL 2
REMARK VINA RESULT:      -7.2      2.031      2.416
REMARK  4 active torsions:
REMARK  status: ('A' for Active; 'I' for Inactive)
REMARK    1  A    between atoms: N1_2  and  C2_3 
REMARK    2  A    between atoms: C7_8  and  C8_9 
REMARK    3  A    between atoms: C8_9  and  N2_11 
REMARK    4  A    between atoms: N3_14  and  C12_15 
ROOT
HETATM    1  N2  UNL     1      24.930   0.482  52.343  1.00  0.00     0.100 N 
HETATM    2  C10 UNL     1      25.362   1.759  51.810  1.00  0.00     0.293 C 
HETATM    3  C11 UNL     1      24.291   2.348  50.904  1.00  0.00     0.154 C 
HETATM    4  N3  UNL     1      23.123   2.677  51.698  1.00  0.00    -0.372 N 
HETATM    5  C17 UNL     1      23.127   1.959  52.935  1.00  0.00     0.154 C 
HETATM    6  C18 UNL     1      23.480   0.499  52.587  1.00  0.00     0.293 C 
ENDROOT
BRANCH   1   7
HETATM    7  C8  UNL     1      25.543   0.139  53.583  1.00  0.00     0.254 C 
HETATM    8  C9  UNL     1      24.621  -0.739  54.389  1.00  0.00     0.048 C 
BRANCH   7   9
HETATM    9  C7  UNL     1      26.886  -0.499  53.451  1.00  0.00     0.003 A 
HETATM   10  C2  UNL     1      28.013   0.206  53.821  1.00  0.00     0.064 A 
HETATM   11  C3  UNL     1      29.274  -0.381  53.710  1.00  0.00     0.032 A 
HETATM   12  C4  UNL     1      29.437  -1.676  53.229  1.00  0.00     0.002 A 
HETATM   13  C5  UNL     1      28.293  -2.381  52.857  1.00  0.00     0.001 A 
HETATM   14  C6  UNL     1      27.047  -1.788  52.972  1.00  0.00     0.012 A 
BRANCH  10  15
HETATM   15  N1  UNL     1      27.985   1.537  54.318  1.00  0.00    -0.271 NA
HETATM   16  C1  UNL     1      28.672   2.470  53.724  1.00  0.00     0.149 C 
ENDBRANCH  10  15
ENDBRANCH   7   9
ENDBRANCH   1   7
BRANCH   4  17
HETATM   17  C12 UNL     1      22.205   3.614  51.132  1.00  0.00     0.078 C 
HETATM   18  S1  UNL     1      22.897   4.599  49.990  1.00  0.00    -0.060 SA
HETATM   19  N4  UNL     1      22.169   5.921  49.004  1.00  0.00    -0.220 NA
HETATM   20  H15 UNL     1      23.980   3.899  49.331  1.00  0.00     0.122 HD
HETATM   21  C13 UNL     1      20.959   6.376  49.012  1.00  0.00     0.117 C 
HETATM   22  C14 UNL     1      19.912   5.637  49.161  1.00  0.00     0.175 C 
HETATM   23  O1  UNL     1      19.316   5.055  50.272  1.00  0.00    -0.332 OA
HETATM   24  C15 UNL     1      19.674   4.160  51.250  1.00  0.00     0.144 C 
HETATM   25  C16 UNL     1      20.811   3.547  51.643  1.00  0.00     0.062 C 
ENDBRANCH   4  17
TORSDOF 4
ENDMDL
MODEL 3
REMARK VINA RESULT:      -7.2      4.217      5.715
REMARK  4 active torsions:
REMARK  status: ('A' for Active; 'I' for Inactive)
REMARK    1  A    between atoms: N1_2  and  C2_3 
REMARK    2  A    between atoms: C7_8  and  C8_9 
REMARK    3  A    between atoms: C8_9  and  N2_11 
REMARK    4  A    between atoms: N3_14  and  C12_15 
ROOT
HETATM    1  N2  UNL     1      24.389   1.583  52.771  1.00  0.00     0.100 N 
HETATM    2  C10 UNL     1      23.788   0.352  53.248  1.00  0.00     0.293 C 
HETATM    3  C11 UNL     1      22.316   0.566  53.565  1.00  0.00     0.154 C 
HETATM    4  N3  UNL     1      21.600   0.852  52.337  1.00  0.00    -0.372 N 
HETATM    5  C17 UNL     1      22.496   1.299  51.316  1.00  0.00     0.154 C 
HETATM    6  C18 UNL     1      23.417   2.345  51.974  1.00  0.00     0.293 C 
ENDROOT
BRANCH   1   7
HETATM    7  C8  UNL     1      25.526   1.381  51.935  1.00  0.00     0.254 C 
HETATM    8  C9  UNL     1      25.642   2.510  50.944  1.00  0.00     0.048 C 
BRANCH   7   9
HETATM    9  C7  UNL     1      26.810   1.202  52.674  1.00  0.00     0.003 A 
HETATM   10  C2  UNL     1      27.298  -0.070  52.893  1.00  0.00     0.064 A 
HETATM   11  C3  UNL     1      28.501  -0.252  53.575  1.00  0.00     0.032 A 
HETATM   12  C4  UNL     1      29.239   0.826  54.053  1.00  0.00     0.002 A 
HETATM   13  C5  UNL     1      28.739   2.108  53.828  1.00  0.00     0.001 A 
HETATM   14  C6  UNL     1      27.544   2.276  53.150  1.00  0.00     0.012 A 
BRANCH  10  15
HETATM   15  N1  UNL     1      26.637  -1.254  52.465  1.00  0.00    -0.271 NA
HETATM   16  C1  UNL     1      27.263  -2.395  52.486  1.00  0.00     0.149 C 
ENDBRANCH  10  15
ENDBRANCH   7   9
ENDBRANCH   1   7
BRANCH   4  17
HETATM   17  C12 UNL     1      20.185   0.656  52.358  1.00  0.00     0.078 C 
HETATM   18  S1  UNL     1      19.358   1.771  51.449  1.00  0.00    -0.060 SA
HETATM   19  N4  UNL     1      17.587   1.947  51.160  1.00  0.00    -0.220 NA
HETATM   20  H15 UNL     1      20.184   2.212  50.345  1.00  0.00     0.122 HD
HETATM   21  C13 UNL     1      16.608   1.244  51.626  1.00  0.00     0.117 C 
HETATM   22  C14 UNL     1      16.657  -0.035  51.800  1.00  0.00     0.175 C 
HETATM   23  O1  UNL     1      17.225  -0.833  52.783  1.00  0.00    -0.332 OA
HETATM   24  C15 UNL     1      18.479  -1.054  53.298  1.00  0.00     0.144 C 
HETATM   25  C16 UNL     1      19.700  -0.494  53.165  1.00  0.00     0.062 C 
ENDBRANCH   4  17
TORSDOF 4
ENDMDL
MODEL 4
REMARK VINA RESULT:      -7.0      2.727      4.219
REMARK  4 active torsions:
REMARK  status: ('A' for Active; 'I' for Inactive)
REMARK    1  A    between atoms: N1_2  and  C2_3 
REMARK    2  A    between atoms: C7_8  and  C8_9 
REMARK    3  A    between atoms: C8_9  and  N2_11 
REMARK    4  A    between atoms: N3_14  and  C12_15 
ROOT
HETATM    1  N2  UNL     1      25.277   1.861  52.233  1.00  0.00     0.100 N 
HETATM    2  C10 UNL     1      24.279   2.499  51.397  1.00  0.00     0.293 C 
HETATM    3  C11 UNL     1      24.746   3.882  50.972  1.00  0.00     0.154 C 
HETATM    4  N3  UNL     1      25.899   3.750  50.101  1.00  0.00    -0.372 N 
HETATM    5  C17 UNL     1      26.521   2.473  50.269  1.00  0.00     0.154 C 
HETATM    6  C18 UNL     1      26.627   2.238  51.788  1.00  0.00     0.293 C 
ENDROOT
BRANCH   1   7
HETATM    7  C8  UNL     1      25.226   0.437  52.205  1.00  0.00     0.254 C 
HETATM    8  C9  UNL     1      26.616  -0.125  52.055  1.00  0.00     0.048 C 
BRANCH   7   9
HETATM    9  C7  UNL     1      24.539  -0.179  53.378  1.00  0.00     0.003 A 
HETATM   10  C2  UNL     1      23.177  -0.397  53.332  1.00  0.00     0.064 A 
HETATM   11  C3  UNL     1      22.524  -0.978  54.419  1.00  0.00     0.032 A 
HETATM   12  C4  UNL     1      23.210  -1.352  55.569  1.00  0.00     0.002 A 
HETATM   13  C5  UNL     1      24.586  -1.127  55.608  1.00  0.00     0.001 A 
HETATM   14  C6  UNL     1      25.223  -0.550  54.524  1.00  0.00     0.012 A 
BRANCH  10  15
HETATM   15  N1  UNL     1      22.359  -0.053  52.221  1.00  0.00    -0.271 NA
HETATM   16  C1  UNL     1      21.133   0.340  52.411  1.00  0.00     0.149 C 
ENDBRANCH  10  15
ENDBRANCH   7   9
ENDBRANCH   1   7
BRANCH   4  17
HETATM   17  C12 UNL     1      26.208   4.870  49.269  1.00  0.00     0.078 C 
HETATM   18  S1  UNL     1      24.904   5.856  48.990  1.00  0.00    -0.060 SA
HETATM   19  N4  UNL     1      24.782   7.370  48.019  1.00  0.00    -0.220 NA
HETATM   20  H15 UNL     1      24.000   5.804  50.120  1.00  0.00     0.122 HD
HETATM   21  C13 UNL     1      25.692   7.975  47.329  1.00  0.00     0.117 C 
HETATM   22  C14 UNL     1      26.928   8.066  47.688  1.00  0.00     0.175 C 
HETATM   23  O1  UNL     1      27.994   7.177  47.642  1.00  0.00    -0.332 OA
HETATM   24  C15 UNL     1      28.288   5.935  48.148  1.00  0.00     0.144 C 
HETATM   25  C16 UNL     1      27.618   4.966  48.808  1.00  0.00     0.062 C 
ENDBRANCH   4  17
TORSDOF 4
ENDMDL
MODEL 5
REMARK VINA RESULT:      -7.0      4.709      8.270
REMARK  4 active torsions:
REMARK  status: ('A' for Active; 'I' for Inactive)
REMARK    1  A    between atoms: N1_2  and  C2_3 
REMARK    2  A    between atoms: C7_8  and  C8_9 
REMARK    3  A    between atoms: C8_9  and  N2_11 
REMARK    4  A    between atoms: N3_14  and  C12_15 
ROOT
HETATM    1  N2  UNL     1      21.742   0.292  52.183  1.00  0.00     0.100 N 
HETATM    2  C10 UNL     1      22.304  -0.437  53.304  1.00  0.00     0.293 C 
HETATM    3  C11 UNL     1      23.796  -0.655  53.103  1.00  0.00     0.154 C 
HETATM    4  N3  UNL     1      24.475   0.626  53.142  1.00  0.00    -0.372 N 
HETATM    5  C17 UNL     1      23.560   1.697  52.890  1.00  0.00     0.154 C 
HETATM    6  C18 UNL     1      22.716   1.269  51.674  1.00  0.00     0.293 C 
ENDROOT
BRANCH   1   7
HETATM    7  C8  UNL     1      20.565   1.026  52.507  1.00  0.00     0.254 C 
HETATM    8  C9  UNL     1      20.828   2.505  52.375  1.00  0.00     0.048 C 
BRANCH   7   9
HETATM    9  C7  UNL     1      19.359   0.639  51.718  1.00  0.00     0.003 A 
HETATM   10  C2  UNL     1      18.521  -0.347  52.195  1.00  0.00     0.064 A 
HETATM   11  C3  UNL     1      17.386  -0.713  51.471  1.00  0.00     0.032 A 
HETATM   12  C4  UNL     1      17.066  -0.109  50.260  1.00  0.00     0.002 A 
HETATM   13  C5  UNL     1      17.919   0.886  49.784  1.00  0.00     0.001 A 
HETATM   14  C6  UNL     1      19.042   1.242  50.512  1.00  0.00     0.012 A 
BRANCH  10  15
HETATM   15  N1  UNL     1      18.739  -1.048  53.413  1.00  0.00    -0.271 NA
HETATM   16  C1  UNL     1      18.076  -2.141  53.664  1.00  0.00     0.149 C 
ENDBRANCH  10  15
ENDBRANCH   7   9
ENDBRANCH   1   7
BRANCH   4  17
HETATM   17  C12 UNL     1      25.880   0.602  53.405  1.00  0.00     0.078 C 
HETATM   18  S1  UNL     1      26.530  -0.923  53.334  1.00  0.00    -0.060 SA
HETATM   19  N4  UNL     1      28.229  -1.471  53.586  1.00  0.00    -0.220 NA
HETATM   20  H15 UNL     1      25.782  -1.732  52.395  1.00  0.00     0.122 HD
HETATM   21  C13 UNL     1      29.276  -0.777  53.894  1.00  0.00     0.117 C 
HETATM   22  C14 UNL     1      29.512   0.409  53.444  1.00  0.00     0.175 C 
HETATM   23  O1  UNL     1      29.024   1.664  53.786  1.00  0.00    -0.332 OA
HETATM   24  C15 UNL     1      27.801   2.288  53.828  1.00  0.00     0.144 C 
HETATM   25  C16 UNL     1      26.511   1.918  53.683  1.00  0.00     0.062 C 
ENDBRANCH   4  17
TORSDOF 4
ENDMDL
MODEL 6
REMARK VINA RESULT:      -7.0      1.985      2.292
REMARK  4 active torsions:
REMARK  status: ('A' for Active; 'I' for Inactive)
REMARK    1  A    between atoms: N1_2  and  C2_3 
REMARK    2  A    between atoms: C7_8  and  C8_9 
REMARK    3  A    between atoms: C8_9  and  N2_11 
REMARK    4  A    between atoms: N3_14  and  C12_15 
ROOT
HETATM    1  N2  UNL     1      25.208   2.053  51.198  1.00  0.00     0.100 N 
HETATM    2  C10 UNL     1      26.325   2.907  50.843  1.00  0.00     0.293 C 
HETATM    3  C11 UNL     1      25.924   3.877  49.742  1.00  0.00     0.154 C 
HETATM    4  N3  UNL     1      24.929   4.798  50.257  1.00  0.00    -0.372 N 
HETATM    5  C17 UNL     1      24.296   4.266  51.424  1.00  0.00     0.154 C 
HETATM    6  C18 UNL     1      23.946   2.801  51.098  1.00  0.00     0.293 C 
ENDROOT
BRANCH   1   7
HETATM    7  C8  UNL     1      25.272   1.547  52.529  1.00  0.00     0.254 C 
HETATM    8  C9  UNL     1      23.910   1.069  52.964  1.00  0.00     0.048 C 
BRANCH   7   9
HETATM    9  C7  UNL     1      26.289   0.474  52.732  1.00  0.00     0.003 A 
HETATM   10  C2  UNL     1      27.465   0.768  53.392  1.00  0.00     0.064 A 
HETATM   11  C3  UNL     1      28.422  -0.227  53.595  1.00  0.00     0.032 A 
HETATM   12  C4  UNL     1      28.228  -1.529  53.147  1.00  0.00     0.002 A 
HETATM   13  C5  UNL     1      27.037  -1.818  52.481  1.00  0.00     0.001 A 
HETATM   14  C6  UNL     1      26.095  -0.822  52.285  1.00  0.00     0.012 A 
BRANCH  10  15
HETATM   15  N1  UNL     1      27.790   2.059  53.891  1.00  0.00    -0.271 NA
HETATM   16  C1  UNL     1      29.005   2.513  53.784  1.00  0.00     0.149 C 
ENDBRANCH  10  15
ENDBRANCH   7   9
ENDBRANCH   1   7
BRANCH   4  17
HETATM   17  C12 UNL     1      24.752   6.021  49.538  1.00  0.00     0.078 C 
HETATM   18  S1  UNL     1      25.602   7.289  50.187  1.00  0.00    -0.060 SA
HETATM   19  N4  UNL     1      25.707   9.008  49.655  1.00  0.00    -0.220 NA
HETATM   20  H15 UNL     1      26.801   6.795  50.831  1.00  0.00     0.122 HD
HETATM   21  C13 UNL     1      25.117   9.596  48.666  1.00  0.00     0.117 C 
HETATM   22  C14 UNL     1      24.910   9.042  47.518  1.00  0.00     0.175 C 
HETATM   23  O1  UNL     1      23.967   8.128  47.067  1.00  0.00    -0.332 OA
HETATM   24  C15 UNL     1      23.583   6.846  47.377  1.00  0.00     0.144 C 
HETATM   25  C16 UNL     1      23.862   5.952  48.350  1.00  0.00     0.062 C 
ENDBRANCH   4  17
TORSDOF 4
ENDMDL
MODEL 7
REMARK VINA RESULT:      -6.9      2.870      4.018
REMARK  4 active torsions:
REMARK  status: ('A' for Active; 'I' for Inactive)
REMARK    1  A    between atoms: N1_2  and  C2_3 
REMARK    2  A    between atoms: C7_8  and  C8_9 
REMARK    3  A    between atoms: C8_9  and  N2_11 
REMARK    4  A    between atoms: N3_14  and  C12_15 
ROOT
HETATM    1  N2  UNL     1      24.991   3.083  50.967  1.00  0.00     0.100 N 
HETATM    2  C10 UNL     1      26.412   3.246  50.727  1.00  0.00     0.293 C 
HETATM    3  C11 UNL     1      26.650   3.927  49.388  1.00  0.00     0.154 C 
HETATM    4  N3  UNL     1      26.147   5.286  49.447  1.00  0.00    -0.372 N 
HETATM    5  C17 UNL     1      25.200   5.434  50.510  1.00  0.00     0.154 C 
HETATM    6  C18 UNL     1      24.248   4.226  50.414  1.00  0.00     0.293 C 
ENDROOT
BRANCH   1   7
HETATM    7  C8  UNL     1      24.646   3.009  52.348  1.00  0.00     0.254 C 
HETATM    8  C9  UNL     1      23.221   3.458  52.548  1.00  0.00     0.048 C 
BRANCH   7   9
HETATM    9  C7  UNL     1      24.861   1.668  52.966  1.00  0.00     0.003 A 
HETATM   10  C2  UNL     1      25.980   1.447  53.742  1.00  0.00     0.064 A 
HETATM   11  C3  UNL     1      26.190   0.200  54.332  1.00  0.00     0.032 A 
HETATM   12  C4  UNL     1      25.293  -0.848  54.160  1.00  0.00     0.002 A 
HETATM   13  C5  UNL     1      24.164  -0.618  53.374  1.00  0.00     0.001 A 
HETATM   14  C6  UNL     1      23.967   0.624  52.794  1.00  0.00     0.012 A 
BRANCH  10  15
HETATM   15  N1  UNL     1      26.977   2.430  53.988  1.00  0.00    -0.271 NA
HETATM   16  C1  UNL     1      28.218   2.195  53.672  1.00  0.00     0.149 C 
ENDBRANCH  10  15
ENDBRANCH   7   9
ENDBRANCH   1   7
BRANCH   4  17
HETATM   17  C12 UNL     1      26.652   6.202  48.473  1.00  0.00     0.078 C 
HETATM   18  S1  UNL     1      25.485   7.204  47.853  1.00  0.00    -0.060 SA
HETATM   19  N4  UNL     1      25.616   8.510  46.616  1.00  0.00    -0.220 NA
HETATM   20  H15 UNL     1      24.456   7.432  48.846  1.00  0.00     0.122 HD
HETATM   21  C13 UNL     1      26.652   8.907  45.952  1.00  0.00     0.117 C 
HETATM   22  C14 UNL     1      27.841   8.980  46.448  1.00  0.00     0.175 C 
HETATM   23  O1  UNL     1      28.819   8.027  46.703  1.00  0.00    -0.332 OA
HETATM   24  C15 UNL     1      28.937   6.887  47.460  1.00  0.00     0.144 C 
HETATM   25  C16 UNL     1      28.108   6.111  48.191  1.00  0.00     0.062 C 
ENDBRANCH   4  17
TORSDOF 4
ENDMDL
MODEL 8
REMARK VINA RESULT:      -6.7      2.415      4.540
REMARK  4 active torsions:
REMARK  status: ('A' for Active; 'I' for Inactive)
REMARK    1  A    between atoms: N1_2  and  C2_3 
REMARK    2  A    between atoms: C7_8  and  C8_9 
REMARK    3  A    between atoms: C8_9  and  N2_11 
REMARK    4  A    between atoms: N3_14  and  C12_15 
ROOT
HETATM    1  N2  UNL     1      24.656   1.944  52.699  1.00  0.00     0.100 N 
HETATM    2  C10 UNL     1      23.485   2.777  52.504  1.00  0.00     0.293 C 
HETATM    3  C11 UNL     1      23.894   4.222  52.265  1.00  0.00     0.154 C 
HETATM    4  N3  UNL     1      24.603   4.315  51.004  1.00  0.00    -0.372 N 
HETATM    5  C17 UNL     1      25.106   3.037  50.605  1.00  0.00     0.154 C 
HETATM    6  C18 UNL     1      25.763   2.420  51.856  1.00  0.00     0.293 C 
ENDROOT
BRANCH   1   7
HETATM    7  C8  UNL     1      24.451   0.575  52.360  1.00  0.00     0.254 C 
HETATM    8  C9  UNL     1      25.764  -0.166  52.392  1.00  0.00     0.048 C 
BRANCH   7   9
HETATM    9  C7  UNL     1      23.439  -0.125  53.204  1.00  0.00     0.003 A 
HETATM   10  C2  UNL     1      22.158  -0.302  52.723  1.00  0.00     0.064 A 
HETATM   11  C3  UNL     1      21.203  -0.960  53.498  1.00  0.00     0.032 A 
HETATM   12  C4  UNL     1      21.503  -1.452  54.764  1.00  0.00     0.002 A 
HETATM   13  C5  UNL     1      22.800  -1.268  55.243  1.00  0.00     0.001 A 
HETATM   14  C6  UNL     1      23.738  -0.613  54.465  1.00  0.00     0.012 A 
BRANCH  10  15
HETATM   15  N1  UNL     1      21.720   0.160  51.452  1.00  0.00    -0.271 NA
HETATM   16  C1  UNL     1      20.465   0.447  51.258  1.00  0.00     0.149 C 
ENDBRANCH  10  15
ENDBRANCH   7   9
ENDBRANCH   1   7
BRANCH   4  17
HETATM   17  C12 UNL     1      24.682   5.611  50.405  1.00  0.00     0.078 C 
HETATM   18  S1  UNL     1      25.815   5.702  49.197  1.00  0.00    -0.060 SA
HETATM   19  N4  UNL     1      26.288   7.095  48.154  1.00  0.00    -0.220 NA
HETATM   20  H15 UNL     1      25.954   4.411  48.557  1.00  0.00     0.122 HD
HETATM   21  C13 UNL     1      25.845   8.310  48.161  1.00  0.00     0.117 C 
HETATM   22  C14 UNL     1      24.611   8.626  48.372  1.00  0.00     0.175 C 
HETATM   23  O1  UNL     1      23.844   8.722  49.525  1.00  0.00    -0.332 OA
HETATM   24  C15 UNL     1      23.454   7.888  50.544  1.00  0.00     0.144 C 
HETATM   25  C16 UNL     1      23.752   6.635  50.948  1.00  0.00     0.062 C 
ENDBRANCH   4  17
TORSDOF 4
ENDMDL
MODEL 9
REMARK VINA RESULT:      -6.7      4.892      7.328
REMARK  4 active torsions:
REMARK  status: ('A' for Active; 'I' for Inactive)
REMARK    1  A    between atoms: N1_2  and  C2_3 
REMARK    2  A    between atoms: C7_8  and  C8_9 
REMARK    3  A    between atoms: C8_9  and  N2_11 
REMARK    4  A    between atoms: N3_14  and  C12_15 
ROOT
HETATM    1  N2  UNL     1      23.390   1.867  51.386  1.00  0.00     0.100 N 
HETATM    2  C10 UNL     1      22.395   2.077  50.351  1.00  0.00     0.293 C 
HETATM    3  C11 UNL     1      21.388   0.938  50.342  1.00  0.00     0.154 C 
HETATM    4  N3  UNL     1      20.623   0.968  51.574  1.00  0.00    -0.372 N 
HETATM    5  C17 UNL     1      21.312   1.709  52.585  1.00  0.00     0.154 C 
HETATM    6  C18 UNL     1      22.775   1.225  52.556  1.00  0.00     0.293 C 
ENDROOT
BRANCH   1   7
HETATM    7  C8  UNL     1      23.993   3.070  51.856  1.00  0.00     0.254 C 
HETATM    8  C9  UNL     1      24.727   2.808  53.146  1.00  0.00     0.048 C 
BRANCH   7   9
HETATM    9  C7  UNL     1      24.894   3.735  50.870  1.00  0.00     0.003 A 
HETATM   10  C2  UNL     1      24.695   5.063  50.554  1.00  0.00     0.064 A 
HETATM   11  C3  UNL     1      25.535   5.699  49.639  1.00  0.00     0.032 A 
HETATM   12  C4  UNL     1      26.585   5.027  49.023  1.00  0.00     0.002 A 
HETATM   13  C5  UNL     1      26.779   3.685  49.347  1.00  0.00     0.001 A 
HETATM   14  C6  UNL     1      25.939   3.065  50.256  1.00  0.00     0.012 A 
BRANCH  10  15
HETATM   15  N1  UNL     1      23.655   5.860  51.105  1.00  0.00    -0.271 NA
HETATM   16  C1  UNL     1      23.629   7.143  50.886  1.00  0.00     0.149 C 
ENDBRANCH  10  15
ENDBRANCH   7   9
ENDBRANCH   1   7
BRANCH   4  17
HETATM   17  C12 UNL     1      19.372   0.277  51.571  1.00  0.00     0.078 C 
HETATM   18  S1  UNL     1      19.097  -0.582  52.963  1.00  0.00    -0.060 SA
HETATM   19  N4  UNL     1      17.689  -1.603  53.437  1.00  0.00    -0.220 NA
HETATM   20  H15 UNL     1      19.758   0.067  54.077  1.00  0.00     0.122 HD
HETATM   21  C13 UNL     1      16.619  -1.883  52.767  1.00  0.00     0.117 C 
HETATM   22  C14 UNL     1      16.010  -1.044  51.999  1.00  0.00     0.175 C 
HETATM   23  O1  UNL     1      16.261  -0.586  50.712  1.00  0.00    -0.332 OA
HETATM   24  C15 UNL     1      17.276   0.070  50.060  1.00  0.00     0.144 C 
HETATM   25  C16 UNL     1      18.541   0.445  50.350  1.00  0.00     0.062 C 
ENDBRANCH   4  17
TORSDOF 4
ENDMDL
