MODEL 1
REMARK VINA RESULT:     -10.2      0.000      0.000
REMARK  3 active torsions:
REMARK  status: ('A' for Active; 'I' for Inactive)
REMARK    1  A    between atoms: C2_2  and  C3_3 
REMARK    2  A    between atoms: C24_29  and  C25_30 
REMARK    3  A    between atoms: C26_31  and  O3_32 
ROOT
HETATM    1  C3  UNL     1      22.083   2.520  48.894  1.00  0.00     0.227 C 
HETATM    2  O1  UNL     1      22.569   3.230  47.776  1.00  0.00    -0.365 OA
HETATM    3  C4  UNL     1      22.311   4.589  47.976  1.00  0.00     0.190 C 
HETATM    4  C5  UNL     1      22.964   5.416  46.917  1.00  0.00     0.146 C 
HETATM    5  N1  UNL     1      22.769   6.831  47.209  1.00  0.00    -0.387 N 
HETATM    6  C6  UNL     1      23.291   6.814  48.566  1.00  0.00     0.039 A 
HETATM    7  C7  UNL     1      22.225   7.231  49.342  1.00  0.00     0.030 A 
HETATM    8  C8  UNL     1      22.222   7.404  50.736  1.00  0.00     0.002 A 
HETATM    9  C9  UNL     1      23.399   7.132  51.434  1.00  0.00     0.001 A 
HETATM   10  C10 UNL     1      24.457   6.711  50.616  1.00  0.00     0.014 A 
HETATM   11  C11 UNL     1      24.447   6.546  49.252  1.00  0.00    -0.000 A 
HETATM   12  C12 UNL     1      25.804   6.101  48.902  1.00  0.00    -0.007 A 
HETATM   13  C13 UNL     1      26.576   5.017  49.079  1.00  0.00     0.023 A 
HETATM   14  C14 UNL     1      26.712   3.649  49.642  1.00  0.00     0.086 C 
HETATM   15  C15 UNL     1      25.451   3.054  50.078  1.00  0.00    -0.025 A 
HETATM   16  C16 UNL     1      24.348   3.024  49.277  1.00  0.00     0.102 A 
HETATM   17  N2  UNL     1      23.245   2.436  49.845  1.00  0.00    -0.328 N 
HETATM   18  C17 UNL     1      23.661   2.068  51.068  1.00  0.00     0.047 A 
HETATM   19  C18 UNL     1      22.852   1.438  51.971  1.00  0.00     0.030 A 
HETATM   20  C19 UNL     1      23.484   1.145  53.187  1.00  0.00     0.002 A 
HETATM   21  C20 UNL     1      24.824   1.481  53.425  1.00  0.00     0.001 A 
HETATM   22  C21 UNL     1      25.553   2.120  52.437  1.00  0.00     0.014 A 
HETATM   23  C22 UNL     1      24.981   2.434  51.218  1.00  0.00    -0.001 A 
HETATM   24  C23 UNL     1      27.833   5.444  48.405  1.00  0.00     0.249 A 
HETATM   25  O2  UNL     1      29.000   5.003  48.146  1.00  0.00    -0.268 OA
HETATM   26  N3  UNL     1      27.741   6.742  47.874  1.00  0.00    -0.345 N 
HETATM   27  C24 UNL     1      26.420   7.240  48.223  1.00  0.00     0.152 A 
HETATM   28  H11 UNL     1      22.423   7.734  46.817  1.00  0.00     0.159 HD
HETATM   29  H23 UNL     1      28.268   7.450  47.336  1.00  0.00     0.163 HD
ENDROOT
BRANCH  27  30
HETATM   30  C25 UNL     1      26.518   8.487  49.021  1.00  0.00    -0.018 A 
HETATM   31  C26 UNL     1      26.990   9.248  50.077  1.00  0.00     0.052 A 
HETATM   32  C27 UNL     1      26.099   9.866  49.172  1.00  0.00     0.103 A 
BRANCH  31  33
HETATM   33  O3  UNL     1      27.728   9.497  51.232  1.00  0.00    -0.364 OA
HETATM   34  H25 UNL     1      27.492   9.045  52.121  1.00  0.00     0.217 HD
ENDBRANCH  31  33
ENDBRANCH  27  30
BRANCH   1  35
HETATM   35  C2  UNL     1      21.429   1.254  48.655  1.00  0.00     0.049 C 
HETATM   36  C1  UNL     1      20.182   1.103  49.531  1.00  0.00     0.009 C 
ENDBRANCH   1  35
TORSDOF 3
ENDMDL
MODEL 2
REMARK VINA RESULT:      -7.9      3.443      7.001
REMARK  3 active torsions:
REMARK  status: ('A' for Active; 'I' for Inactive)
REMARK    1  A    between atoms: C2_2  and  C3_3 
REMARK    2  A    between atoms: C24_29  and  C25_30 
REMARK    3  A    between atoms: C26_31  and  O3_32 
ROOT
HETATM    1  C3  UNL     1      23.905   3.195  52.525  1.00  0.00     0.227 C 
HETATM    2  O1  UNL     1      23.367   4.413  52.060  1.00  0.00    -0.365 OA
HETATM    3  C4  UNL     1      23.347   4.377  50.662  1.00  0.00     0.190 C 
HETATM    4  C5  UNL     1      22.619   5.559  50.110  1.00  0.00     0.146 C 
HETATM    5  N1  UNL     1      22.521   5.441  48.660  1.00  0.00    -0.387 N 
HETATM    6  C6  UNL     1      21.923   4.116  48.622  1.00  0.00     0.039 A 
HETATM    7  C7  UNL     1      22.837   3.356  47.915  1.00  0.00     0.030 A 
HETATM    8  C8  UNL     1      22.716   1.997  47.584  1.00  0.00     0.002 A 
HETATM    9  C9  UNL     1      21.569   1.319  47.999  1.00  0.00     0.001 A 
HETATM   10  C10 UNL     1      20.667   2.120  48.713  1.00  0.00     0.014 A 
HETATM   11  C11 UNL     1      20.797   3.450  49.031  1.00  0.00    -0.000 A 
HETATM   12  C12 UNL     1      19.576   3.797  49.773  1.00  0.00    -0.007 A 
HETATM   13  C13 UNL     1      19.016   3.516  50.960  1.00  0.00     0.023 A 
HETATM   14  C14 UNL     1      19.107   2.790  52.252  1.00  0.00     0.086 C 
HETATM   15  C15 UNL     1      20.427   2.230  52.531  1.00  0.00    -0.025 A 
HETATM   16  C16 UNL     1      21.565   2.973  52.436  1.00  0.00     0.102 A 
HETATM   17  N2  UNL     1      22.720   2.290  52.725  1.00  0.00    -0.328 N 
HETATM   18  C17 UNL     1      22.304   1.049  53.023  1.00  0.00     0.047 A 
HETATM   19  C18 UNL     1      23.157   0.040  53.371  1.00  0.00     0.030 A 
HETATM   20  C19 UNL     1      22.514  -1.176  53.639  1.00  0.00     0.002 A 
HETATM   21  C20 UNL     1      21.122  -1.314  53.549  1.00  0.00     0.001 A 
HETATM   22  C21 UNL     1      20.351  -0.223  53.186  1.00  0.00     0.014 A 
HETATM   23  C22 UNL     1      20.931   1.002  52.910  1.00  0.00    -0.001 A 
HETATM   24  C23 UNL     1      17.747   4.291  50.871  1.00  0.00     0.249 A 
HETATM   25  O2  UNL     1      16.705   4.540  51.561  1.00  0.00    -0.268 OA
HETATM   26  N3  UNL     1      17.624   4.978  49.651  1.00  0.00    -0.345 N 
HETATM   27  C24 UNL     1      18.800   4.641  48.865  1.00  0.00     0.152 A 
HETATM   28  H11 UNL     1      22.712   5.931  47.759  1.00  0.00     0.159 HD
HETATM   29  H23 UNL     1      17.009   5.623  49.129  1.00  0.00     0.163 HD
ENDROOT
BRANCH  27  30
HETATM   30  C25 UNL     1      18.414   4.013  47.578  1.00  0.00    -0.018 A 
HETATM   31  C26 UNL     1      17.690   3.123  46.801  1.00  0.00     0.052 A 
HETATM   32  C27 UNL     1      18.612   3.968  46.143  1.00  0.00     0.103 A 
BRANCH  31  33
HETATM   33  O3  UNL     1      16.761   2.114  46.560  1.00  0.00    -0.364 OA
HETATM   34  H25 UNL     1      15.980   2.255  45.912  1.00  0.00     0.217 HD
ENDBRANCH  31  33
ENDBRANCH  27  30
BRANCH   1  35
HETATM   35  C2  UNL     1      24.803   3.244  53.656  1.00  0.00     0.049 C 
HETATM   36  C1  UNL     1      25.934   2.222  53.506  1.00  0.00     0.009 C 
ENDBRANCH   1  35
TORSDOF 3
ENDMDL
MODEL 3
REMARK VINA RESULT:      -7.7      6.697     10.502
REMARK  3 active torsions:
REMARK  status: ('A' for Active; 'I' for Inactive)
REMARK    1  A    between atoms: C2_2  and  C3_3 
REMARK    2  A    between atoms: C24_29  and  C25_30 
REMARK    3  A    between atoms: C26_31  and  O3_32 
ROOT
HETATM    1  C3  UNL     1      29.087  12.832  46.236  1.00  0.00     0.227 C 
HETATM    2  O1  UNL     1      29.973  12.793  47.332  1.00  0.00    -0.365 OA
HETATM    3  C4  UNL     1      29.598  11.732  48.162  1.00  0.00     0.190 C 
HETATM    4  C5  UNL     1      30.606  11.520  49.244  1.00  0.00     0.146 C 
HETATM    5  N1  UNL     1      30.245  10.344  50.027  1.00  0.00    -0.387 N 
HETATM    6  C6  UNL     1      30.136   9.410  48.918  1.00  0.00     0.039 A 
HETATM    7  C7  UNL     1      28.824   8.976  48.972  1.00  0.00     0.030 A 
HETATM    8  C8  UNL     1      28.218   8.040  48.119  1.00  0.00     0.002 A 
HETATM    9  C9  UNL     1      28.993   7.475  47.105  1.00  0.00     0.001 A 
HETATM   10  C10 UNL     1      30.315   7.938  47.081  1.00  0.00     0.014 A 
HETATM   11  C11 UNL     1      30.898   8.856  47.922  1.00  0.00    -0.000 A 
HETATM   12  C12 UNL     1      32.291   8.973  47.468  1.00  0.00    -0.007 A 
HETATM   13  C13 UNL     1      32.957   9.450  46.404  1.00  0.00     0.023 A 
HETATM   14  C14 UNL     1      32.897  10.113  45.077  1.00  0.00     0.086 C 
HETATM   15  C15 UNL     1      31.597  10.700  44.761  1.00  0.00    -0.025 A 
HETATM   16  C16 UNL     1      30.946  11.527  45.625  1.00  0.00     0.102 A 
HETATM   17  N2  UNL     1      29.732  11.984  45.175  1.00  0.00    -0.328 N 
HETATM   18  C17 UNL     1      29.599  11.425  43.961  1.00  0.00     0.047 A 
HETATM   19  C18 UNL     1      28.509  11.627  43.163  1.00  0.00     0.030 A 
HETATM   20  C19 UNL     1      28.571  10.947  41.939  1.00  0.00     0.002 A 
HETATM   21  C20 UNL     1      29.665  10.141  41.594  1.00  0.00     0.001 A 
HETATM   22  C21 UNL     1      30.718  10.006  42.482  1.00  0.00     0.014 A 
HETATM   23  C22 UNL     1      30.711  10.653  43.703  1.00  0.00    -0.001 A 
HETATM   24  C23 UNL     1      34.364   9.128  46.777  1.00  0.00     0.249 A 
HETATM   25  O2  UNL     1      35.546   9.249  46.319  1.00  0.00    -0.268 OA
HETATM   26  N3  UNL     1      34.453   8.486  48.024  1.00  0.00    -0.345 N 
HETATM   27  C24 UNL     1      33.090   8.318  48.502  1.00  0.00     0.152 A 
HETATM   28  H11 UNL     1      30.063   9.998  50.994  1.00  0.00     0.159 HD
HETATM   29  H23 UNL     1      35.128   8.100  48.703  1.00  0.00     0.163 HD
ENDROOT
BRANCH  27  30
HETATM   30  C25 UNL     1      32.784   6.885  48.737  1.00  0.00    -0.018 A 
HETATM   31  C26 UNL     1      32.199   5.840  49.432  1.00  0.00     0.052 A 
HETATM   32  C27 UNL     1      32.960   5.518  48.287  1.00  0.00     0.103 A 
BRANCH  31  33
HETATM   33  O3  UNL     1      31.439   5.258  50.445  1.00  0.00    -0.364 OA
HETATM   34  H25 UNL     1      30.502   5.604  50.671  1.00  0.00     0.217 HD
ENDBRANCH  31  33
ENDBRANCH  27  30
BRANCH   1  35
HETATM   35  C2  UNL     1      28.652  14.128  45.768  1.00  0.00     0.049 C 
HETATM   36  C1  UNL     1      29.092  15.238  46.727  1.00  0.00     0.009 C 
ENDBRANCH   1  35
TORSDOF 3
ENDMDL
MODEL 4
REMARK VINA RESULT:      -7.7      3.219      6.293
REMARK  3 active torsions:
REMARK  status: ('A' for Active; 'I' for Inactive)
REMARK    1  A    between atoms: C2_2  and  C3_3 
REMARK    2  A    between atoms: C24_29  and  C25_30 
REMARK    3  A    between atoms: C26_31  and  O3_32 
ROOT
HETATM    1  C3  UNL     1      17.844   3.933  50.393  1.00  0.00     0.227 C 
HETATM    2  O1  UNL     1      18.689   3.960  51.521  1.00  0.00    -0.365 OA
HETATM    3  C4  UNL     1      19.649   2.954  51.372  1.00  0.00     0.190 C 
HETATM    4  C5  UNL     1      20.688   3.047  52.442  1.00  0.00     0.146 C 
HETATM    5  N1  UNL     1      21.731   2.058  52.201  1.00  0.00    -0.387 N 
HETATM    6  C6  UNL     1      22.037   2.441  50.832  1.00  0.00     0.039 A 
HETATM    7  C7  UNL     1      21.769   1.302  50.096  1.00  0.00     0.030 A 
HETATM    8  C8  UNL     1      21.925   1.146  48.709  1.00  0.00     0.002 A 
HETATM    9  C9  UNL     1      22.397   2.235  47.974  1.00  0.00     0.001 A 
HETATM   10  C10 UNL     1      22.657   3.371  48.753  1.00  0.00     0.014 A 
HETATM   11  C11 UNL     1      22.499   3.511  50.111  1.00  0.00    -0.000 A 
HETATM   12  C12 UNL     1      22.919   4.887  50.414  1.00  0.00    -0.007 A 
HETATM   13  C13 UNL     1      22.486   6.137  50.184  1.00  0.00     0.023 A 
HETATM   14  C14 UNL     1      21.459   7.018  49.574  1.00  0.00     0.086 C 
HETATM   15  C15 UNL     1      20.248   6.320  49.148  1.00  0.00    -0.025 A 
HETATM   16  C16 UNL     1      19.574   5.470  49.973  1.00  0.00     0.102 A 
HETATM   17  N2  UNL     1      18.462   4.891  49.412  1.00  0.00    -0.328 N 
HETATM   18  C17 UNL     1      18.419   5.396  48.169  1.00  0.00     0.047 A 
HETATM   19  C18 UNL     1      17.449   5.069  47.265  1.00  0.00     0.030 A 
HETATM   20  C19 UNL     1      17.593   5.707  46.025  1.00  0.00     0.002 A 
HETATM   21  C20 UNL     1      18.646   6.594  45.767  1.00  0.00     0.001 A 
HETATM   22  C21 UNL     1      19.577   6.854  46.758  1.00  0.00     0.014 A 
HETATM   23  C22 UNL     1      19.485   6.254  48.000  1.00  0.00    -0.001 A 
HETATM   24  C23 UNL     1      23.555   6.939  50.842  1.00  0.00     0.249 A 
HETATM   25  O2  UNL     1      23.870   8.154  51.058  1.00  0.00    -0.268 OA
HETATM   26  N3  UNL     1      24.552   6.132  51.417  1.00  0.00    -0.345 N 
HETATM   27  C24 UNL     1      24.195   4.754  51.116  1.00  0.00     0.152 A 
HETATM   28  H11 UNL     1      22.261   1.268  52.631  1.00  0.00     0.159 HD
HETATM   29  H23 UNL     1      25.427   6.171  51.965  1.00  0.00     0.163 HD
ENDROOT
BRANCH  27  30
HETATM   30  C25 UNL     1      25.278   4.082  50.357  1.00  0.00    -0.018 A 
HETATM   31  C26 UNL     1      26.348   4.062  49.477  1.00  0.00     0.052 A 
HETATM   32  C27 UNL     1      25.951   2.835  50.052  1.00  0.00     0.103 A 
BRANCH  31  33
HETATM   33  O3  UNL     1      27.278   4.613  48.598  1.00  0.00    -0.364 OA
HETATM   34  H25 UNL     1      27.169   4.520  47.584  1.00  0.00     0.217 HD
ENDBRANCH  31  33
ENDBRANCH  27  30
BRANCH   1  35
HETATM   35  C2  UNL     1      16.430   4.143  50.606  1.00  0.00     0.049 C 
HETATM   36  C1  UNL     1      16.112   4.284  52.098  1.00  0.00     0.009 C 
ENDBRANCH   1  35
TORSDOF 3
ENDMDL
MODEL 5
REMARK VINA RESULT:      -7.5      5.437      9.107
REMARK  3 active torsions:
REMARK  status: ('A' for Active; 'I' for Inactive)
REMARK    1  A    between atoms: C2_2  and  C3_3 
REMARK    2  A    between atoms: C24_29  and  C25_30 
REMARK    3  A    between atoms: C26_31  and  O3_32 
ROOT
HETATM    1  C3  UNL     1      32.250   7.646  48.129  1.00  0.00     0.227 C 
HETATM    2  O1  UNL     1      32.691   8.984  48.187  1.00  0.00    -0.365 OA
HETATM    3  C4  UNL     1      32.645   9.516  46.895  1.00  0.00     0.190 C 
HETATM    4  C5  UNL     1      32.922  10.985  46.913  1.00  0.00     0.146 C 
HETATM    5  N1  UNL     1      32.763  11.531  45.571  1.00  0.00    -0.387 N 
HETATM    6  C6  UNL     1      31.419  11.031  45.326  1.00  0.00     0.039 A 
HETATM    7  C7  UNL     1      31.561  10.220  44.215  1.00  0.00     0.030 A 
HETATM    8  C8  UNL     1      30.540   9.511  43.561  1.00  0.00     0.002 A 
HETATM    9  C9  UNL     1      29.242   9.616  44.063  1.00  0.00     0.001 A 
HETATM   10  C10 UNL     1      29.137  10.445  45.189  1.00  0.00     0.014 A 
HETATM   11  C11 UNL     1      30.145  11.133  45.820  1.00  0.00    -0.000 A 
HETATM   12  C12 UNL     1      29.496  11.847  46.929  1.00  0.00    -0.007 A 
HETATM   13  C13 UNL     1      28.901  11.549  48.095  1.00  0.00     0.023 A 
HETATM   14  C14 UNL     1      28.476  10.502  49.057  1.00  0.00     0.086 C 
HETATM   15  C15 UNL     1      29.056   9.185  48.802  1.00  0.00    -0.025 A 
HETATM   16  C16 UNL     1      30.394   9.005  48.616  1.00  0.00     0.102 A 
HETATM   17  N2  UNL     1      30.768   7.706  48.378  1.00  0.00    -0.328 N 
HETATM   18  C17 UNL     1      29.616   7.018  48.417  1.00  0.00     0.047 A 
HETATM   19  C18 UNL     1      29.547   5.667  48.225  1.00  0.00     0.030 A 
HETATM   20  C19 UNL     1      28.247   5.150  48.305  1.00  0.00     0.002 A 
HETATM   21  C20 UNL     1      27.139   5.969  48.559  1.00  0.00     0.001 A 
HETATM   22  C21 UNL     1      27.323   7.330  48.738  1.00  0.00     0.014 A 
HETATM   23  C22 UNL     1      28.583   7.895  48.670  1.00  0.00    -0.001 A 
HETATM   24  C23 UNL     1      28.507  12.905  48.572  1.00  0.00     0.249 A 
HETATM   25  O2  UNL     1      27.922  13.459  49.559  1.00  0.00    -0.268 OA
HETATM   26  N3  UNL     1      28.883  13.918  47.675  1.00  0.00    -0.345 N 
HETATM   27  C24 UNL     1      29.505  13.256  46.539  1.00  0.00     0.152 A 
HETATM   28  H11 UNL     1      33.233  12.090  44.826  1.00  0.00     0.159 HD
HETATM   29  H23 UNL     1      28.874  14.942  47.540  1.00  0.00     0.163 HD
ENDROOT
BRANCH  27  30
HETATM   30  C25 UNL     1      28.787  13.578  45.281  1.00  0.00    -0.018 A 
HETATM   31  C26 UNL     1      27.646  13.760  44.517  1.00  0.00     0.052 A 
HETATM   32  C27 UNL     1      28.895  13.952  43.885  1.00  0.00     0.103 A 
BRANCH  31  33
HETATM   33  O3  UNL     1      26.275  13.800  44.273  1.00  0.00    -0.364 OA
HETATM   34  H25 UNL     1      25.890  13.531  43.362  1.00  0.00     0.217 HD
ENDBRANCH  31  33
ENDBRANCH  27  30
BRANCH   1  35
HETATM   35  C2  UNL     1      32.943   6.673  48.942  1.00  0.00     0.049 C 
HETATM   36  C1  UNL     1      33.350   5.451  48.114  1.00  0.00     0.009 C 
ENDBRANCH   1  35
TORSDOF 3
ENDMDL
MODEL 6
REMARK VINA RESULT:      -7.5      6.040      9.662
REMARK  3 active torsions:
REMARK  status: ('A' for Active; 'I' for Inactive)
REMARK    1  A    between atoms: C2_2  and  C3_3 
REMARK    2  A    between atoms: C24_29  and  C25_30 
REMARK    3  A    between atoms: C26_31  and  O3_32 
ROOT
HETATM    1  C3  UNL     1      34.773   7.169  48.006  1.00  0.00     0.227 C 
HETATM    2  O1  UNL     1      33.962   8.227  48.466  1.00  0.00    -0.365 OA
HETATM    3  C4  UNL     1      33.606   9.015  47.367  1.00  0.00     0.190 C 
HETATM    4  C5  UNL     1      32.597  10.046  47.757  1.00  0.00     0.146 C 
HETATM    5  N1  UNL     1      32.166  10.781  46.574  1.00  0.00    -0.387 N 
HETATM    6  C6  UNL     1      31.782   9.631  45.770  1.00  0.00     0.039 A 
HETATM    7  C7  UNL     1      32.598   9.713  44.657  1.00  0.00     0.030 A 
HETATM    8  C8  UNL     1      32.604   8.837  43.559  1.00  0.00     0.002 A 
HETATM    9  C9  UNL     1      31.708   7.767  43.566  1.00  0.00     0.001 A 
HETATM   10  C10 UNL     1      30.899   7.716  44.710  1.00  0.00     0.014 A 
HETATM   11  C11 UNL     1      30.903   8.580  45.779  1.00  0.00    -0.000 A 
HETATM   12  C12 UNL     1      29.863   8.080  46.689  1.00  0.00    -0.007 A 
HETATM   13  C13 UNL     1      29.659   7.017  47.484  1.00  0.00     0.023 A 
HETATM   14  C14 UNL     1      30.170   5.729  48.015  1.00  0.00     0.086 C 
HETATM   15  C15 UNL     1      31.587   5.493  47.748  1.00  0.00    -0.025 A 
HETATM   16  C16 UNL     1      32.543   6.422  48.029  1.00  0.00     0.102 A 
HETATM   17  N2  UNL     1      33.822   6.042  47.708  1.00  0.00    -0.328 N 
HETATM   18  C17 UNL     1      33.681   4.808  47.199  1.00  0.00     0.047 A 
HETATM   19  C18 UNL     1      34.735   4.062  46.748  1.00  0.00     0.030 A 
HETATM   20  C19 UNL     1      34.366   2.804  46.254  1.00  0.00     0.002 A 
HETATM   21  C20 UNL     1      33.031   2.377  46.237  1.00  0.00     0.001 A 
HETATM   22  C21 UNL     1      32.040   3.216  46.718  1.00  0.00     0.014 A 
HETATM   23  C22 UNL     1      32.346   4.468  47.218  1.00  0.00    -0.001 A 
HETATM   24  C23 UNL     1      28.305   7.320  48.028  1.00  0.00     0.249 A 
HETATM   25  O2  UNL     1      27.439   6.824  48.820  1.00  0.00    -0.268 OA
HETATM   26  N3  UNL     1      27.786   8.528  47.532  1.00  0.00    -0.345 N 
HETATM   27  C24 UNL     1      28.771   9.048  46.597  1.00  0.00     0.152 A 
HETATM   28  H11 UNL     1      32.056  11.736  46.167  1.00  0.00     0.159 HD
HETATM   29  H23 UNL     1      26.973   9.161  47.595  1.00  0.00     0.163 HD
ENDROOT
BRANCH  27  30
HETATM   30  C25 UNL     1      28.180   9.221  45.247  1.00  0.00    -0.018 A 
HETATM   31  C26 UNL     1      27.345   8.857  44.204  1.00  0.00     0.052 A 
HETATM   32  C27 UNL     1      28.133  10.017  44.036  1.00  0.00     0.103 A 
BRANCH  31  33
HETATM   33  O3  UNL     1      26.400   8.069  43.551  1.00  0.00    -0.364 OA
HETATM   34  H25 UNL     1      25.410   8.335  43.530  1.00  0.00     0.217 HD
ENDBRANCH  31  33
ENDBRANCH  27  30
BRANCH   1  35
HETATM   35  C2  UNL     1      35.903   6.783  48.820  1.00  0.00     0.049 C 
HETATM   36  C1  UNL     1      35.548   5.607  49.735  1.00  0.00     0.009 C 
ENDBRANCH   1  35
TORSDOF 3
ENDMDL
MODEL 7
REMARK VINA RESULT:      -7.4      2.866      6.800
REMARK  3 active torsions:
REMARK  status: ('A' for Active; 'I' for Inactive)
REMARK    1  A    between atoms: C2_2  and  C3_3 
REMARK    2  A    between atoms: C24_29  and  C25_30 
REMARK    3  A    between atoms: C26_31  and  O3_32 
ROOT
HETATM    1  C3  UNL     1      24.380   8.086  49.854  1.00  0.00     0.227 C 
HETATM    2  O1  UNL     1      23.104   8.337  50.399  1.00  0.00    -0.365 OA
HETATM    3  C4  UNL     1      22.162   8.241  49.370  1.00  0.00     0.190 C 
HETATM    4  C5  UNL     1      20.772   8.313  49.912  1.00  0.00     0.146 C 
HETATM    5  N1  UNL     1      19.814   8.104  48.834  1.00  0.00    -0.387 N 
HETATM    6  C6  UNL     1      20.357   6.846  48.345  1.00  0.00     0.039 A 
HETATM    7  C7  UNL     1      20.702   7.118  47.034  1.00  0.00     0.030 A 
HETATM    8  C8  UNL     1      21.256   6.215  46.111  1.00  0.00     0.002 A 
HETATM    9  C9  UNL     1      21.494   4.907  46.534  1.00  0.00     0.001 A 
HETATM   10  C10 UNL     1      21.132   4.669  47.867  1.00  0.00     0.014 A 
HETATM   11  C11 UNL     1      20.591   5.562  48.761  1.00  0.00    -0.000 A 
HETATM   12  C12 UNL     1      20.397   4.802  50.004  1.00  0.00    -0.007 A 
HETATM   13  C13 UNL     1      21.156   4.233  50.955  1.00  0.00     0.023 A 
HETATM   14  C14 UNL     1      22.518   3.940  51.466  1.00  0.00     0.086 C 
HETATM   15  C15 UNL     1      23.580   4.699  50.810  1.00  0.00    -0.025 A 
HETATM   16  C16 UNL     1      23.517   6.052  50.660  1.00  0.00     0.102 A 
HETATM   17  N2  UNL     1      24.594   6.605  50.013  1.00  0.00    -0.328 N 
HETATM   18  C17 UNL     1      25.388   5.558  49.738  1.00  0.00     0.047 A 
HETATM   19  C18 UNL     1      26.583   5.679  49.087  1.00  0.00     0.030 A 
HETATM   20  C19 UNL     1      27.250   4.461  48.899  1.00  0.00     0.002 A 
HETATM   21  C20 UNL     1      26.715   3.247  49.348  1.00  0.00     0.001 A 
HETATM   22  C21 UNL     1      25.492   3.239  49.997  1.00  0.00     0.014 A 
HETATM   23  C22 UNL     1      24.789   4.410  50.211  1.00  0.00    -0.001 A 
HETATM   24  C23 UNL     1      20.113   3.648  51.844  1.00  0.00     0.249 A 
HETATM   25  O2  UNL     1      20.016   2.975  52.921  1.00  0.00    -0.268 OA
HETATM   26  N3  UNL     1      18.811   3.897  51.378  1.00  0.00    -0.345 N 
HETATM   27  C24 UNL     1      18.951   4.623  50.126  1.00  0.00     0.152 A 
HETATM   28  H11 UNL     1      18.975   8.506  48.360  1.00  0.00     0.159 HD
HETATM   29  H23 UNL     1      17.815   3.749  51.605  1.00  0.00     0.163 HD
ENDROOT
BRANCH  27  30
HETATM   30  C25 UNL     1      18.299   3.890  49.013  1.00  0.00    -0.018 A 
HETATM   31  C26 UNL     1      17.501   3.805  47.884  1.00  0.00     0.052 A 
HETATM   32  C27 UNL     1      18.091   2.613  48.360  1.00  0.00     0.103 A 
BRANCH  31  33
HETATM   33  O3  UNL     1      16.673   4.293  46.876  1.00  0.00    -0.364 OA
HETATM   34  H25 UNL     1      16.959   4.264  45.893  1.00  0.00     0.217 HD
ENDBRANCH  31  33
ENDBRANCH  27  30
BRANCH   1  35
HETATM   35  C2  UNL     1      25.484   8.892  50.325  1.00  0.00     0.049 C 
HETATM   36  C1  UNL     1      26.253   9.511  49.154  1.00  0.00     0.009 C 
ENDBRANCH   1  35
TORSDOF 3
ENDMDL
MODEL 8
REMARK VINA RESULT:      -7.3      6.566     10.831
REMARK  3 active torsions:
REMARK  status: ('A' for Active; 'I' for Inactive)
REMARK    1  A    between atoms: C2_2  and  C3_3 
REMARK    2  A    between atoms: C24_29  and  C25_30 
REMARK    3  A    between atoms: C26_31  and  O3_32 
ROOT
HETATM    1  C3  UNL     1      34.980   9.491  44.280  1.00  0.00     0.227 C 
HETATM    2  O1  UNL     1      34.788   9.977  45.589  1.00  0.00    -0.365 OA
HETATM    3  C4  UNL     1      33.553  10.632  45.636  1.00  0.00     0.190 C 
HETATM    4  C5  UNL     1      33.203  11.010  47.038  1.00  0.00     0.146 C 
HETATM    5  N1  UNL     1      31.867  11.593  47.070  1.00  0.00    -0.387 N 
HETATM    6  C6  UNL     1      31.174  10.505  46.398  1.00  0.00     0.039 A 
HETATM    7  C7  UNL     1      30.637  11.097  45.269  1.00  0.00     0.030 A 
HETATM    8  C8  UNL     1      29.851  10.468  44.290  1.00  0.00     0.002 A 
HETATM    9  C9  UNL     1      29.568   9.110  44.445  1.00  0.00     0.001 A 
HETATM   10  C10 UNL     1      30.129   8.545  45.600  1.00  0.00     0.014 A 
HETATM   11  C11 UNL     1      30.898   9.172  46.551  1.00  0.00    -0.000 A 
HETATM   12  C12 UNL     1      31.214   8.134  47.543  1.00  0.00    -0.007 A 
HETATM   13  C13 UNL     1      31.949   7.013  47.615  1.00  0.00     0.023 A 
HETATM   14  C14 UNL     1      32.863   6.064  46.931  1.00  0.00     0.086 C 
HETATM   15  C15 UNL     1      33.399   6.557  45.664  1.00  0.00    -0.025 A 
HETATM   16  C16 UNL     1      33.978   7.785  45.552  1.00  0.00     0.102 A 
HETATM   17  N2  UNL     1      34.421   8.095  44.290  1.00  0.00    -0.328 N 
HETATM   18  C17 UNL     1      34.114   7.012  43.557  1.00  0.00     0.047 A 
HETATM   19  C18 UNL     1      34.389   6.912  42.223  1.00  0.00     0.030 A 
HETATM   20  C19 UNL     1      33.982   5.699  41.651  1.00  0.00     0.002 A 
HETATM   21  C20 UNL     1      33.352   4.699  42.406  1.00  0.00     0.001 A 
HETATM   22  C21 UNL     1      33.120   4.907  43.754  1.00  0.00     0.014 A 
HETATM   23  C22 UNL     1      33.500   6.084  44.372  1.00  0.00    -0.001 A 
HETATM   24  C23 UNL     1      31.669   6.573  49.011  1.00  0.00     0.249 A 
HETATM   25  O2  UNL     1      31.973   5.636  49.817  1.00  0.00    -0.268 OA
HETATM   26  N3  UNL     1      30.793   7.445  49.681  1.00  0.00    -0.345 N 
HETATM   27  C24 UNL     1      30.425   8.477  48.725  1.00  0.00     0.152 A 
HETATM   28  H11 UNL     1      31.317  12.425  47.377  1.00  0.00     0.159 HD
HETATM   29  H23 UNL     1      30.331   7.607  50.590  1.00  0.00     0.163 HD
ENDROOT
BRANCH  27  30
HETATM   30  C25 UNL     1      28.955   8.514  48.527  1.00  0.00    -0.018 A 
HETATM   31  C26 UNL     1      27.716   7.927  48.328  1.00  0.00     0.052 A 
HETATM   32  C27 UNL     1      27.768   9.337  48.406  1.00  0.00     0.103 A 
BRANCH  31  33
HETATM   33  O3  UNL     1      26.826   6.870  48.154  1.00  0.00    -0.364 OA
HETATM   34  H25 UNL     1      27.124   5.992  47.718  1.00  0.00     0.217 HD
ENDBRANCH  31  33
ENDBRANCH  27  30
BRANCH   1  35
HETATM   35  C2  UNL     1      36.307   9.587  43.715  1.00  0.00     0.049 C 
HETATM   36  C1  UNL     1      36.292  10.385  42.407  1.00  0.00     0.009 C 
ENDBRANCH   1  35
TORSDOF 3
ENDMDL
MODEL 9
REMARK VINA RESULT:      -7.3      3.681      5.251
REMARK  3 active torsions:
REMARK  status: ('A' for Active; 'I' for Inactive)
REMARK    1  A    between atoms: C2_2  and  C3_3 
REMARK    2  A    between atoms: C24_29  and  C25_30 
REMARK    3  A    between atoms: C26_31  and  O3_32 
ROOT
HETATM    1  C3  UNL     1      23.014   7.987  45.529  1.00  0.00     0.227 C 
HETATM    2  O1  UNL     1      24.214   7.715  44.840  1.00  0.00    -0.365 OA
HETATM    3  C4  UNL     1      25.003   8.870  44.863  1.00  0.00     0.190 C 
HETATM    4  C5  UNL     1      26.365   8.595  44.312  1.00  0.00     0.146 C 
HETATM    5  N1  UNL     1      27.197   9.784  44.447  1.00  0.00    -0.387 N 
HETATM    6  C6  UNL     1      27.000   9.988  45.873  1.00  0.00     0.039 A 
HETATM    7  C7  UNL     1      26.425  11.243  45.956  1.00  0.00     0.030 A 
HETATM    8  C8  UNL     1      26.056  11.917  47.132  1.00  0.00     0.002 A 
HETATM    9  C9  UNL     1      26.278  11.279  48.353  1.00  0.00     0.001 A 
HETATM   10  C10 UNL     1      26.860  10.010  48.229  1.00  0.00     0.014 A 
HETATM   11  C11 UNL     1      27.216   9.360  47.072  1.00  0.00    -0.000 A 
HETATM   12  C12 UNL     1      27.785   8.076  47.504  1.00  0.00    -0.007 A 
HETATM   13  C13 UNL     1      27.359   6.936  48.072  1.00  0.00     0.023 A 
HETATM   14  C14 UNL     1      26.224   6.157  48.628  1.00  0.00     0.086 C 
HETATM   15  C15 UNL     1      24.909   6.718  48.326  1.00  0.00    -0.025 A 
HETATM   16  C16 UNL     1      24.543   7.066  47.060  1.00  0.00     0.102 A 
HETATM   17  N2  UNL     1      23.277   7.586  46.955  1.00  0.00    -0.328 N 
HETATM   18  C17 UNL     1      22.806   7.567  48.212  1.00  0.00     0.047 A 
HETATM   19  C18 UNL     1      21.557   8.009  48.547  1.00  0.00     0.030 A 
HETATM   20  C19 UNL     1      21.269   7.903  49.914  1.00  0.00     0.002 A 
HETATM   21  C20 UNL     1      22.197   7.387  50.829  1.00  0.00     0.001 A 
HETATM   22  C21 UNL     1      23.437   6.968  50.380  1.00  0.00     0.014 A 
HETATM   23  C22 UNL     1      23.777   7.049  49.042  1.00  0.00    -0.001 A 
HETATM   24  C23 UNL     1      28.633   6.170  48.172  1.00  0.00     0.249 A 
HETATM   25  O2  UNL     1      29.063   5.042  48.579  1.00  0.00    -0.268 OA
HETATM   26  N3  UNL     1      29.730   6.887  47.667  1.00  0.00    -0.345 N 
HETATM   27  C24 UNL     1      29.221   8.185  47.253  1.00  0.00     0.152 A 
HETATM   28  H11 UNL     1      27.809  10.450  43.925  1.00  0.00     0.159 HD
HETATM   29  H23 UNL     1      30.746   6.820  47.490  1.00  0.00     0.163 HD
ENDROOT
BRANCH  27  30
HETATM   30  C25 UNL     1      29.917   9.280  47.972  1.00  0.00    -0.018 A 
HETATM   31  C26 UNL     1      30.443   9.882  49.104  1.00  0.00     0.052 A 
HETATM   32  C27 UNL     1      30.557  10.578  47.880  1.00  0.00     0.103 A 
BRANCH  31  33
HETATM   33  O3  UNL     1      30.759   9.982  50.457  1.00  0.00    -0.364 OA
HETATM   34  H25 UNL     1      31.733   9.988  50.776  1.00  0.00     0.217 HD
ENDBRANCH  31  33
ENDBRANCH  27  30
BRANCH   1  35
HETATM   35  C2  UNL     1      21.789   7.449  44.984  1.00  0.00     0.049 C 
HETATM   36  C1  UNL     1      21.868   5.926  44.846  1.00  0.00     0.009 C 
ENDBRANCH   1  35
TORSDOF 3
ENDMDL
