MODEL 1
REMARK VINA RESULT:      -9.3      0.000      0.000
REMARK  6 active torsions:
REMARK  status: ('A' for Active; 'I' for Inactive)
REMARK    1  A    between atoms: C2_2  and  C3_3 
REMARK    2  A    between atoms: C6_6  and  N1_7 
REMARK       I    between atoms: N1_7  and  C7_8 
REMARK    3  A    between atoms: N1_7  and  C14_17 
REMARK       I    between atoms: C7_8  and  N2_10 
REMARK    4  A    between atoms: N2_10  and  C8_11 
REMARK    5  A    between atoms: C17_20  and  O2_21 
REMARK    6  A    between atoms: C19_23  and  O3_24 
ROOT
HETATM    1  N1  UNL     1      25.177   1.562  51.991  1.00  0.00    -0.265 N 
HETATM    2  C7  UNL     1      25.885   2.536  51.255  1.00  0.00     0.332 C 
HETATM    3  O1  UNL     1      27.112   2.395  51.464  1.00  0.00    -0.246 OA
HETATM    4  N2  UNL     1      25.424   3.555  50.391  1.00  0.00    -0.308 N 
HETATM    5  H9  UNL     1      24.386   3.538  50.327  1.00  0.00     0.170 HD
ENDROOT
BRANCH   1   6
HETATM    6  C6  UNL     1      23.815   1.200  52.172  1.00  0.00     0.025 A 
HETATM    7  C5  UNL     1      22.754   1.372  51.147  1.00  0.00     0.085 A 
HETATM    8  C4  UNL     1      21.544   0.844  51.837  1.00  0.00    -0.014 A 
HETATM    9  C3  UNL     1      21.946   0.461  53.038  1.00  0.00    -0.060 A 
HETATM   10  C20 UNL     1      23.365   0.665  53.296  1.00  0.00     0.032 A 
BRANCH   9  11
HETATM   11  C2  UNL     1      21.051  -0.137  54.083  1.00  0.00     0.034 C 
HETATM   12  C1  UNL     1      21.551  -1.518  54.428  1.00  0.00     0.010 C 
ENDBRANCH   9  11
ENDBRANCH   1   6
BRANCH   1  13
HETATM   13  C14 UNL     1      26.253   0.887  52.629  1.00  0.00     0.077 A 
HETATM   14  C15 UNL     1      26.675  -0.317  52.075  1.00  0.00     0.036 A 
HETATM   15  C16 UNL     1      27.727  -1.008  52.673  1.00  0.00     0.039 A 
HETATM   16  C17 UNL     1      28.344  -0.506  53.799  1.00  0.00     0.068 A 
HETATM   17  C18 UNL     1      27.936   0.680  54.353  1.00  0.00     0.075 A 
HETATM   18  C19 UNL     1      26.889   1.378  53.767  1.00  0.00     0.095 A 
BRANCH  16  19
HETATM   19  O2  UNL     1      29.388  -1.192  54.392  1.00  0.00    -0.361 OA
HETATM   20  H17 UNL     1      29.366  -2.189  54.519  1.00  0.00     0.217 HD
ENDBRANCH  16  19
BRANCH  18  21
HETATM   21  O3  UNL     1      26.371   2.588  54.216  1.00  0.00    -0.358 OA
HETATM   22  H19 UNL     1      26.357   2.801  55.221  1.00  0.00     0.217 HD
ENDBRANCH  18  21
ENDBRANCH   1  13
BRANCH   4  23
HETATM   23  C8  UNL     1      26.181   4.510  49.676  1.00  0.00     0.036 A 
HETATM   24  C9  UNL     1      25.713   5.805  49.656  1.00  0.00     0.029 A 
HETATM   25  C10 UNL     1      26.375   6.812  48.987  1.00  0.00     0.002 A 
HETATM   26  C11 UNL     1      27.540   6.560  48.307  1.00  0.00     0.000 A 
HETATM   27  C12 UNL     1      28.027   5.276  48.311  1.00  0.00     0.002 A 
HETATM   28  C13 UNL     1      27.345   4.305  48.983  1.00  0.00     0.029 A 
ENDBRANCH   4  23
TORSDOF 6
ENDMDL
MODEL 2
REMARK VINA RESULT:      -9.0      0.964      1.186
REMARK  6 active torsions:
REMARK  status: ('A' for Active; 'I' for Inactive)
REMARK    1  A    between atoms: C2_2  and  C3_3 
REMARK    2  A    between atoms: C6_6  and  N1_7 
REMARK       I    between atoms: N1_7  and  C7_8 
REMARK    3  A    between atoms: N1_7  and  C14_17 
REMARK       I    between atoms: C7_8  and  N2_10 
REMARK    4  A    between atoms: N2_10  and  C8_11 
REMARK    5  A    between atoms: C17_20  and  O2_21 
REMARK    6  A    between atoms: C19_23  and  O3_24 
ROOT
HETATM    1  N1  UNL     1      24.888   2.079  51.250  1.00  0.00    -0.265 N 
HETATM    2  C7  UNL     1      25.775   3.009  50.663  1.00  0.00     0.332 C 
HETATM    3  O1  UNL     1      26.898   2.904  51.208  1.00  0.00    -0.246 OA
HETATM    4  N2  UNL     1      25.571   3.954  49.633  1.00  0.00    -0.308 N 
HETATM    5  H9  UNL     1      24.590   3.915  49.290  1.00  0.00     0.170 HD
ENDROOT
BRANCH   1   6
HETATM    6  C6  UNL     1      23.528   1.710  51.080  1.00  0.00     0.025 A 
HETATM    7  C5  UNL     1      22.704   2.048  49.890  1.00  0.00     0.085 A 
HETATM    8  C4  UNL     1      21.387   1.435  50.219  1.00  0.00    -0.014 A 
HETATM    9  C3  UNL     1      21.534   0.869  51.406  1.00  0.00    -0.060 A 
HETATM   10  C20 UNL     1      22.861   1.015  51.988  1.00  0.00     0.032 A 
BRANCH   9  11
HETATM   11  C2  UNL     1      20.450   0.128  52.133  1.00  0.00     0.034 C 
HETATM   12  C1  UNL     1      21.015  -0.441  53.410  1.00  0.00     0.010 C 
ENDBRANCH   9  11
ENDBRANCH   1   6
BRANCH   1  13
HETATM   13  C14 UNL     1      25.747   1.471  52.205  1.00  0.00     0.077 A 
HETATM   14  C15 UNL     1      26.442   0.333  51.811  1.00  0.00     0.036 A 
HETATM   15  C16 UNL     1      27.293  -0.292  52.721  1.00  0.00     0.039 A 
HETATM   16  C17 UNL     1      27.446   0.210  53.995  1.00  0.00     0.068 A 
HETATM   17  C18 UNL     1      26.765   1.332  54.394  1.00  0.00     0.075 A 
HETATM   18  C19 UNL     1      25.915   1.963  53.497  1.00  0.00     0.095 A 
BRANCH  16  19
HETATM   19  O2  UNL     1      28.291  -0.410  54.897  1.00  0.00    -0.361 OA
HETATM   20  H17 UNL     1      29.221  -0.070  55.076  1.00  0.00     0.217 HD
ENDBRANCH  16  19
BRANCH  18  21
HETATM   21  O3  UNL     1      25.164   3.104  53.760  1.00  0.00    -0.358 OA
HETATM   22  H19 UNL     1      24.327   3.310  53.202  1.00  0.00     0.217 HD
ENDBRANCH  18  21
ENDBRANCH   1  13
BRANCH   4  23
HETATM   23  C8  UNL     1      26.499   4.866  49.081  1.00  0.00     0.036 A 
HETATM   24  C9  UNL     1      26.077   6.162  48.889  1.00  0.00     0.029 A 
HETATM   25  C10 UNL     1      26.902   7.130  48.357  1.00  0.00     0.002 A 
HETATM   26  C11 UNL     1      28.192   6.835  47.993  1.00  0.00     0.000 A 
HETATM   27  C12 UNL     1      28.636   5.548  48.174  1.00  0.00     0.002 A 
HETATM   28  C13 UNL     1      27.792   4.617  48.703  1.00  0.00     0.029 A 
ENDBRANCH   4  23
TORSDOF 6
ENDMDL
MODEL 3
REMARK VINA RESULT:      -8.8      1.303      6.173
REMARK  6 active torsions:
REMARK  status: ('A' for Active; 'I' for Inactive)
REMARK    1  A    between atoms: C2_2  and  C3_3 
REMARK    2  A    between atoms: C6_6  and  N1_7 
REMARK       I    between atoms: N1_7  and  C7_8 
REMARK    3  A    between atoms: N1_7  and  C14_17 
REMARK       I    between atoms: C7_8  and  N2_10 
REMARK    4  A    between atoms: N2_10  and  C8_11 
REMARK    5  A    between atoms: C17_20  and  O2_21 
REMARK    6  A    between atoms: C19_23  and  O3_24 
ROOT
HETATM    1  N1  UNL     1      25.134   1.675  51.745  1.00  0.00    -0.265 N 
HETATM    2  C7  UNL     1      23.997   0.993  52.231  1.00  0.00     0.332 C 
HETATM    3  O1  UNL     1      24.360   0.144  53.077  1.00  0.00    -0.246 OA
HETATM    4  N2  UNL     1      22.628   1.138  51.912  1.00  0.00    -0.308 N 
HETATM    5  H9  UNL     1      22.496   1.880  51.196  1.00  0.00     0.170 HD
ENDROOT
BRANCH   1   6
HETATM    6  C6  UNL     1      25.386   2.715  50.811  1.00  0.00     0.025 A 
HETATM    7  C5  UNL     1      24.346   3.614  50.249  1.00  0.00     0.085 A 
HETATM    8  C4  UNL     1      25.131   4.499  49.343  1.00  0.00    -0.014 A 
HETATM    9  C3  UNL     1      26.388   4.098  49.442  1.00  0.00    -0.060 A 
HETATM   10  C20 UNL     1      26.599   2.980  50.352  1.00  0.00     0.032 A 
BRANCH   9  11
HETATM   11  C2  UNL     1      27.537   4.712  48.697  1.00  0.00     0.034 C 
HETATM   12  C1  UNL     1      27.260   6.180  48.487  1.00  0.00     0.010 C 
ENDBRANCH   9  11
ENDBRANCH   1   6
BRANCH   1  13
HETATM   13  C14 UNL     1      26.160   1.027  52.483  1.00  0.00     0.077 A 
HETATM   14  C15 UNL     1      26.645  -0.179  51.987  1.00  0.00     0.036 A 
HETATM   15  C16 UNL     1      27.651  -0.845  52.684  1.00  0.00     0.039 A 
HETATM   16  C17 UNL     1      28.162  -0.317  53.851  1.00  0.00     0.068 A 
HETATM   17  C18 UNL     1      27.692   0.871  54.348  1.00  0.00     0.075 A 
HETATM   18  C19 UNL     1      26.690   1.544  53.664  1.00  0.00     0.095 A 
BRANCH  16  19
HETATM   19  O2  UNL     1      29.161  -0.977  54.542  1.00  0.00    -0.361 OA
HETATM   20  H17 UNL     1      29.855  -0.483  55.076  1.00  0.00     0.217 HD
ENDBRANCH  16  19
BRANCH  18  21
HETATM   21  O3  UNL     1      26.118   2.753  54.047  1.00  0.00    -0.358 OA
HETATM   22  H19 UNL     1      26.716   3.544  54.314  1.00  0.00     0.217 HD
ENDBRANCH  18  21
ENDBRANCH   1  13
BRANCH   4  23
HETATM   23  C8  UNL     1      21.525   0.425  52.432  1.00  0.00     0.036 A 
HETATM   24  C9  UNL     1      20.315   0.573  51.792  1.00  0.00     0.029 A 
HETATM   25  C10 UNL     1      19.177  -0.077  52.218  1.00  0.00     0.002 A 
HETATM   26  C11 UNL     1      19.205  -0.907  53.311  1.00  0.00     0.000 A 
HETATM   27  C12 UNL     1      20.401  -1.071  53.967  1.00  0.00     0.002 A 
HETATM   28  C13 UNL     1      21.506  -0.412  53.517  1.00  0.00     0.029 A 
ENDBRANCH   4  23
TORSDOF 6
ENDMDL
MODEL 4
REMARK VINA RESULT:      -8.4      2.625      7.071
REMARK  6 active torsions:
REMARK  status: ('A' for Active; 'I' for Inactive)
REMARK    1  A    between atoms: C2_2  and  C3_3 
REMARK    2  A    between atoms: C6_6  and  N1_7 
REMARK       I    between atoms: N1_7  and  C7_8 
REMARK    3  A    between atoms: N1_7  and  C14_17 
REMARK       I    between atoms: C7_8  and  N2_10 
REMARK    4  A    between atoms: N2_10  and  C8_11 
REMARK    5  A    between atoms: C17_20  and  O2_21 
REMARK    6  A    between atoms: C19_23  and  O3_24 
ROOT
HETATM    1  N1  UNL     1      24.935   4.166  50.701  1.00  0.00    -0.265 N 
HETATM    2  C7  UNL     1      25.504   3.143  51.491  1.00  0.00     0.332 C 
HETATM    3  O1  UNL     1      24.598   2.587  52.154  1.00  0.00    -0.246 OA
HETATM    4  N2  UNL     1      26.843   2.710  51.614  1.00  0.00    -0.308 N 
HETATM    5  H9  UNL     1      27.467   3.273  51.002  1.00  0.00     0.170 HD
ENDROOT
BRANCH   1   6
HETATM    6  C6  UNL     1      25.407   5.122  49.762  1.00  0.00     0.025 A 
HETATM    7  C5  UNL     1      24.558   6.143  49.098  1.00  0.00     0.085 A 
HETATM    8  C4  UNL     1      25.531   6.866  48.233  1.00  0.00    -0.014 A 
HETATM    9  C3  UNL     1      26.702   6.288  48.439  1.00  0.00    -0.060 A 
HETATM   10  C20 UNL     1      26.676   5.186  49.391  1.00  0.00     0.032 A 
BRANCH   9  11
HETATM   11  C2  UNL     1      27.981   6.697  47.768  1.00  0.00     0.034 C 
HETATM   12  C1  UNL     1      29.074   5.735  48.163  1.00  0.00     0.010 C 
ENDBRANCH   9  11
ENDBRANCH   1   6
BRANCH   1  13
HETATM   13  C14 UNL     1      23.568   4.050  51.072  1.00  0.00     0.077 A 
HETATM   14  C15 UNL     1      22.772   3.183  50.332  1.00  0.00     0.036 A 
HETATM   15  C16 UNL     1      21.427   3.043  50.666  1.00  0.00     0.039 A 
HETATM   16  C17 UNL     1      20.889   3.754  51.717  1.00  0.00     0.068 A 
HETATM   17  C18 UNL     1      21.664   4.611  52.454  1.00  0.00     0.075 A 
HETATM   18  C19 UNL     1      23.006   4.760  52.131  1.00  0.00     0.095 A 
BRANCH  16  19
HETATM   19  O2  UNL     1      19.553   3.614  52.049  1.00  0.00    -0.361 OA
HETATM   20  H17 UNL     1      19.237   3.633  53.003  1.00  0.00     0.217 HD
ENDBRANCH  16  19
BRANCH  18  21
HETATM   21  O3  UNL     1      23.909   5.590  52.787  1.00  0.00    -0.358 OA
HETATM   22  H19 UNL     1      24.145   6.508  52.392  1.00  0.00     0.217 HD
ENDBRANCH  18  21
ENDBRANCH   1  13
BRANCH   4  23
HETATM   23  C8  UNL     1      27.360   1.675  52.425  1.00  0.00     0.036 A 
HETATM   24  C9  UNL     1      28.260   2.028  53.406  1.00  0.00     0.029 A 
HETATM   25  C10 UNL     1      28.825   1.096  54.251  1.00  0.00     0.002 A 
HETATM   26  C11 UNL     1      28.508  -0.235  54.145  1.00  0.00     0.000 A 
HETATM   27  C12 UNL     1      27.613  -0.612  53.174  1.00  0.00     0.002 A 
HETATM   28  C13 UNL     1      27.074   0.337  52.357  1.00  0.00     0.029 A 
ENDBRANCH   4  23
TORSDOF 6
ENDMDL
MODEL 5
REMARK VINA RESULT:      -8.3      1.407      2.315
REMARK  6 active torsions:
REMARK  status: ('A' for Active; 'I' for Inactive)
REMARK    1  A    between atoms: C2_2  and  C3_3 
REMARK    2  A    between atoms: C6_6  and  N1_7 
REMARK       I    between atoms: N1_7  and  C7_8 
REMARK    3  A    between atoms: N1_7  and  C14_17 
REMARK       I    between atoms: C7_8  and  N2_10 
REMARK    4  A    between atoms: N2_10  and  C8_11 
REMARK    5  A    between atoms: C17_20  and  O2_21 
REMARK    6  A    between atoms: C19_23  and  O3_24 
ROOT
HETATM    1  N1  UNL     1      25.609   0.502  53.099  1.00  0.00    -0.265 N 
HETATM    2  C7  UNL     1      25.944   1.535  52.196  1.00  0.00     0.332 C 
HETATM    3  O1  UNL     1      27.185   1.544  52.027  1.00  0.00    -0.246 OA
HETATM    4  N2  UNL     1      25.128   2.472  51.523  1.00  0.00    -0.308 N 
HETATM    5  H9  UNL     1      24.128   2.332  51.772  1.00  0.00     0.170 HD
ENDROOT
BRANCH   1   6
HETATM    6  C6  UNL     1      24.416  -0.012  53.674  1.00  0.00     0.025 A 
HETATM    7  C5  UNL     1      24.372  -0.968  54.810  1.00  0.00     0.085 A 
HETATM    8  C4  UNL     1      22.910  -1.173  55.009  1.00  0.00    -0.014 A 
HETATM    9  C3  UNL     1      22.310  -0.423  54.101  1.00  0.00    -0.060 A 
HETATM   10  C20 UNL     1      23.213   0.326  53.238  1.00  0.00     0.032 A 
BRANCH   9  11
HETATM   11  C2  UNL     1      20.822  -0.319  53.934  1.00  0.00     0.034 C 
HETATM   12  C1  UNL     1      20.511   0.059  52.507  1.00  0.00     0.010 C 
ENDBRANCH   9  11
ENDBRANCH   1   6
BRANCH   1  13
HETATM   13  C14 UNL     1      26.898  -0.026  53.377  1.00  0.00     0.077 A 
HETATM   14  C15 UNL     1      27.665   0.624  54.338  1.00  0.00     0.036 A 
HETATM   15  C16 UNL     1      28.935   0.136  54.638  1.00  0.00     0.039 A 
HETATM   16  C17 UNL     1      29.427  -0.979  53.992  1.00  0.00     0.068 A 
HETATM   17  C18 UNL     1      28.679  -1.628  53.044  1.00  0.00     0.075 A 
HETATM   18  C19 UNL     1      27.413  -1.151  52.736  1.00  0.00     0.095 A 
BRANCH  16  19
HETATM   19  O2  UNL     1      30.687  -1.464  54.291  1.00  0.00    -0.361 OA
HETATM   20  H17 UNL     1      31.325  -0.960  54.882  1.00  0.00     0.217 HD
ENDBRANCH  16  19
BRANCH  18  21
HETATM   21  O3  UNL     1      26.545  -1.704  51.801  1.00  0.00    -0.358 OA
HETATM   22  H19 UNL     1      26.314  -2.704  51.840  1.00  0.00     0.217 HD
ENDBRANCH  18  21
ENDBRANCH   1  13
BRANCH   4  23
HETATM   23  C8  UNL     1      25.518   3.491  50.625  1.00  0.00     0.036 A 
HETATM   24  C9  UNL     1      24.722   4.613  50.554  1.00  0.00     0.029 A 
HETATM   25  C10 UNL     1      25.012   5.664  49.711  1.00  0.00     0.002 A 
HETATM   26  C11 UNL     1      26.119   5.633  48.899  1.00  0.00     0.000 A 
HETATM   27  C12 UNL     1      26.928   4.525  48.952  1.00  0.00     0.002 A 
HETATM   28  C13 UNL     1      26.610   3.504  49.797  1.00  0.00     0.029 A 
ENDBRANCH   4  23
TORSDOF 6
ENDMDL
MODEL 6
REMARK VINA RESULT:      -8.3      2.382      5.607
REMARK  6 active torsions:
REMARK  status: ('A' for Active; 'I' for Inactive)
REMARK    1  A    between atoms: C2_2  and  C3_3 
REMARK    2  A    between atoms: C6_6  and  N1_7 
REMARK       I    between atoms: N1_7  and  C7_8 
REMARK    3  A    between atoms: N1_7  and  C14_17 
REMARK       I    between atoms: C7_8  and  N2_10 
REMARK    4  A    between atoms: N2_10  and  C8_11 
REMARK    5  A    between atoms: C17_20  and  O2_21 
REMARK    6  A    between atoms: C19_23  and  O3_24 
ROOT
HETATM    1  N1  UNL     1      23.724   1.135  52.346  1.00  0.00    -0.265 N 
HETATM    2  C7  UNL     1      25.090   0.819  52.514  1.00  0.00     0.332 C 
HETATM    3  O1  UNL     1      25.783   1.649  51.882  1.00  0.00    -0.246 OA
HETATM    4  N2  UNL     1      25.713  -0.220  53.241  1.00  0.00    -0.308 N 
HETATM    5  H9  UNL     1      25.001  -0.819  53.706  1.00  0.00     0.170 HD
ENDROOT
BRANCH   1   6
HETATM    6  C6  UNL     1      22.485   0.605  52.793  1.00  0.00     0.025 A 
HETATM    7  C5  UNL     1      22.277  -0.065  54.102  1.00  0.00     0.085 A 
HETATM    8  C4  UNL     1      20.831  -0.420  54.063  1.00  0.00    -0.014 A 
HETATM    9  C3  UNL     1      20.380   0.014  52.898  1.00  0.00    -0.060 A 
HETATM   10  C20 UNL     1      21.381   0.665  52.064  1.00  0.00     0.032 A 
BRANCH   9  11
HETATM   11  C2  UNL     1      18.962  -0.131  52.428  1.00  0.00     0.034 C 
HETATM   12  C1  UNL     1      18.286  -1.217  53.228  1.00  0.00     0.010 C 
ENDBRANCH   9  11
ENDBRANCH   1   6
BRANCH   1  13
HETATM   13  C14 UNL     1      23.824   2.277  51.506  1.00  0.00     0.077 A 
HETATM   14  C15 UNL     1      23.668   2.084  50.137  1.00  0.00     0.036 A 
HETATM   15  C16 UNL     1      23.760   3.180  49.281  1.00  0.00     0.039 A 
HETATM   16  C17 UNL     1      24.003   4.441  49.783  1.00  0.00     0.068 A 
HETATM   17  C18 UNL     1      24.159   4.642  51.130  1.00  0.00     0.075 A 
HETATM   18  C19 UNL     1      24.069   3.559  51.993  1.00  0.00     0.095 A 
BRANCH  16  19
HETATM   19  O2  UNL     1      24.094   5.528  48.933  1.00  0.00    -0.361 OA
HETATM   20  H17 UNL     1      23.817   5.474  47.968  1.00  0.00     0.217 HD
ENDBRANCH  16  19
BRANCH  18  21
HETATM   21  O3  UNL     1      24.205   3.612  53.376  1.00  0.00    -0.358 OA
HETATM   22  H19 UNL     1      23.725   4.345  53.913  1.00  0.00     0.217 HD
ENDBRANCH  18  21
ENDBRANCH   1  13
BRANCH   4  23
HETATM   23  C8  UNL     1      27.093  -0.492  53.377  1.00  0.00     0.036 A 
HETATM   24  C9  UNL     1      27.547  -1.709  52.919  1.00  0.00     0.029 A 
HETATM   25  C10 UNL     1      28.874  -2.074  53.004  1.00  0.00     0.002 A 
HETATM   26  C11 UNL     1      29.804  -1.229  53.555  1.00  0.00     0.000 A 
HETATM   27  C12 UNL     1      29.375  -0.009  54.019  1.00  0.00     0.002 A 
HETATM   28  C13 UNL     1      28.056   0.318  53.919  1.00  0.00     0.029 A 
ENDBRANCH   4  23
TORSDOF 6
ENDMDL
MODEL 7
REMARK VINA RESULT:      -8.2      2.529      4.982
REMARK  6 active torsions:
REMARK  status: ('A' for Active; 'I' for Inactive)
REMARK    1  A    between atoms: C2_2  and  C3_3 
REMARK    2  A    between atoms: C6_6  and  N1_7 
REMARK       I    between atoms: N1_7  and  C7_8 
REMARK    3  A    between atoms: N1_7  and  C14_17 
REMARK       I    between atoms: C7_8  and  N2_10 
REMARK    4  A    between atoms: N2_10  and  C8_11 
REMARK    5  A    between atoms: C17_20  and  O2_21 
REMARK    6  A    between atoms: C19_23  and  O3_24 
ROOT
HETATM    1  N1  UNL     1      25.567   2.662  51.235  1.00  0.00    -0.265 N 
HETATM    2  C7  UNL     1      25.798   3.756  50.372  1.00  0.00     0.332 C 
HETATM    3  O1  UNL     1      24.701   4.284  50.078  1.00  0.00    -0.246 OA
HETATM    4  N2  UNL     1      27.002   4.280  49.850  1.00  0.00    -0.308 N 
HETATM    5  H9  UNL     1      27.817   3.730  50.187  1.00  0.00     0.170 HD
ENDROOT
BRANCH   1   6
HETATM    6  C6  UNL     1      26.365   1.695  51.903  1.00  0.00     0.025 A 
HETATM    7  C5  UNL     1      26.058   0.243  51.960  1.00  0.00     0.085 A 
HETATM    8  C4  UNL     1      27.188  -0.299  52.766  1.00  0.00    -0.014 A 
HETATM    9  C3  UNL     1      27.952   0.738  53.066  1.00  0.00    -0.060 A 
HETATM   10  C20 UNL     1      27.477   2.013  52.547  1.00  0.00     0.032 A 
BRANCH   9  11
HETATM   11  C2  UNL     1      29.214   0.657  53.874  1.00  0.00     0.034 C 
HETATM   12  C1  UNL     1      29.853  -0.692  53.658  1.00  0.00     0.010 C 
ENDBRANCH   9  11
ENDBRANCH   1   6
BRANCH   1  13
HETATM   13  C14 UNL     1      24.151   2.707  51.336  1.00  0.00     0.077 A 
HETATM   14  C15 UNL     1      23.416   1.995  50.393  1.00  0.00     0.036 A 
HETATM   15  C16 UNL     1      22.025   2.015  50.459  1.00  0.00     0.039 A 
HETATM   16  C17 UNL     1      21.381   2.730  51.447  1.00  0.00     0.068 A 
HETATM   17  C18 UNL     1      22.096   3.435  52.381  1.00  0.00     0.075 A 
HETATM   18  C19 UNL     1      23.482   3.423  52.326  1.00  0.00     0.095 A 
BRANCH  16  19
HETATM   19  O2  UNL     1      20.000   2.750  51.513  1.00  0.00    -0.361 OA
HETATM   20  H17 UNL     1      19.435   3.077  50.748  1.00  0.00     0.217 HD
ENDBRANCH  16  19
BRANCH  18  21
HETATM   21  O3  UNL     1      24.333   4.088  53.203  1.00  0.00    -0.358 OA
HETATM   22  H19 UNL     1      24.010   4.928  53.697  1.00  0.00     0.217 HD
ENDBRANCH  18  21
ENDBRANCH   1  13
BRANCH   4  23
HETATM   23  C8  UNL     1      27.177   5.384  48.985  1.00  0.00     0.036 A 
HETATM   24  C9  UNL     1      28.430   5.578  48.450  1.00  0.00     0.029 A 
HETATM   25  C10 UNL     1      28.708   6.624  47.596  1.00  0.00     0.002 A 
HETATM   26  C11 UNL     1      27.734   7.524  47.243  1.00  0.00     0.000 A 
HETATM   27  C12 UNL     1      26.475   7.352  47.764  1.00  0.00     0.002 A 
HETATM   28  C13 UNL     1      26.237   6.306  48.605  1.00  0.00     0.029 A 
ENDBRANCH   4  23
TORSDOF 6
ENDMDL
MODEL 8
REMARK VINA RESULT:      -8.1      2.794      5.062
REMARK  6 active torsions:
REMARK  status: ('A' for Active; 'I' for Inactive)
REMARK    1  A    between atoms: C2_2  and  C3_3 
REMARK    2  A    between atoms: C6_6  and  N1_7 
REMARK       I    between atoms: N1_7  and  C7_8 
REMARK    3  A    between atoms: N1_7  and  C14_17 
REMARK       I    between atoms: C7_8  and  N2_10 
REMARK    4  A    between atoms: N2_10  and  C8_11 
REMARK    5  A    between atoms: C17_20  and  O2_21 
REMARK    6  A    between atoms: C19_23  and  O3_24 
ROOT
HETATM    1  N1  UNL     1      23.286   1.969  51.274  1.00  0.00    -0.265 N 
HETATM    2  C7  UNL     1      23.980   2.981  50.574  1.00  0.00     0.332 C 
HETATM    3  O1  UNL     1      23.211   3.497  49.732  1.00  0.00    -0.246 OA
HETATM    4  N2  UNL     1      25.311   3.439  50.697  1.00  0.00    -0.308 N 
HETATM    5  H9  UNL     1      25.814   2.909  51.436  1.00  0.00     0.170 HD
ENDROOT
BRANCH   1   6
HETATM    6  C6  UNL     1      23.584   1.053  52.317  1.00  0.00     0.025 A 
HETATM    7  C5  UNL     1      24.956   0.677  52.744  1.00  0.00     0.085 A 
HETATM    8  C4  UNL     1      24.703  -0.292  53.847  1.00  0.00    -0.014 A 
HETATM    9  C3  UNL     1      23.388  -0.385  53.956  1.00  0.00    -0.060 A 
HETATM   10  C20 UNL     1      22.641   0.441  53.016  1.00  0.00     0.032 A 
BRANCH   9  11
HETATM   11  C2  UNL     1      22.678  -1.257  54.950  1.00  0.00     0.034 C 
HETATM   12  C1  UNL     1      21.276  -1.521  54.460  1.00  0.00     0.010 C 
ENDBRANCH   9  11
ENDBRANCH   1   6
BRANCH   1  13
HETATM   13  C14 UNL     1      22.015   2.044  50.643  1.00  0.00     0.077 A 
HETATM   14  C15 UNL     1      21.799   1.231  49.535  1.00  0.00     0.036 A 
HETATM   15  C16 UNL     1      20.565   1.276  48.889  1.00  0.00     0.039 A 
HETATM   16  C17 UNL     1      19.569   2.115  49.341  1.00  0.00     0.068 A 
HETATM   17  C18 UNL     1      19.771   2.921  50.432  1.00  0.00     0.075 A 
HETATM   18  C19 UNL     1      20.996   2.885  51.084  1.00  0.00     0.095 A 
BRANCH  16  19
HETATM   19  O2  UNL     1      18.345   2.160  48.700  1.00  0.00    -0.361 OA
HETATM   20  H17 UNL     1      17.746   2.967  48.750  1.00  0.00     0.217 HD
ENDBRANCH  16  19
BRANCH  18  21
HETATM   21  O3  UNL     1      21.342   3.642  52.198  1.00  0.00    -0.358 OA
HETATM   22  H19 UNL     1      21.419   3.196  53.120  1.00  0.00     0.217 HD
ENDBRANCH  18  21
ENDBRANCH   1  13
BRANCH   4  23
HETATM   23  C8  UNL     1      25.959   4.461  49.966  1.00  0.00     0.036 A 
HETATM   24  C9  UNL     1      27.081   4.113  49.248  1.00  0.00     0.029 A 
HETATM   25  C10 UNL     1      27.787   5.033  48.503  1.00  0.00     0.002 A 
HETATM   26  C11 UNL     1      27.394   6.347  48.447  1.00  0.00     0.000 A 
HETATM   27  C12 UNL     1      26.277   6.718  49.155  1.00  0.00     0.002 A 
HETATM   28  C13 UNL     1      25.604   5.782  49.881  1.00  0.00     0.029 A 
ENDBRANCH   4  23
TORSDOF 6
ENDMDL
MODEL 9
REMARK VINA RESULT:      -8.0      2.993      7.824
REMARK  6 active torsions:
REMARK  status: ('A' for Active; 'I' for Inactive)
REMARK    1  A    between atoms: C2_2  and  C3_3 
REMARK    2  A    between atoms: C6_6  and  N1_7 
REMARK       I    between atoms: N1_7  and  C7_8 
REMARK    3  A    between atoms: N1_7  and  C14_17 
REMARK       I    between atoms: C7_8  and  N2_10 
REMARK    4  A    between atoms: N2_10  and  C8_11 
REMARK    5  A    between atoms: C17_20  and  O2_21 
REMARK    6  A    between atoms: C19_23  and  O3_24 
ROOT
HETATM    1  N1  UNL     1      25.301   4.602  50.095  1.00  0.00    -0.265 N 
HETATM    2  C7  UNL     1      25.371   3.522  51.002  1.00  0.00     0.332 C 
HETATM    3  O1  UNL     1      24.219   3.261  51.417  1.00  0.00    -0.246 OA
HETATM    4  N2  UNL     1      26.478   2.769  51.456  1.00  0.00    -0.308 N 
HETATM    5  H9  UNL     1      27.357   3.112  51.019  1.00  0.00     0.170 HD
ENDROOT
BRANCH   1   6
HETATM    6  C6  UNL     1      26.221   5.340  49.304  1.00  0.00     0.025 A 
HETATM    7  C5  UNL     1      27.527   4.820  48.823  1.00  0.00     0.085 A 
HETATM    8  C4  UNL     1      28.078   5.974  48.059  1.00  0.00    -0.014 A 
HETATM    9  C3  UNL     1      27.173   6.934  48.146  1.00  0.00    -0.060 A 
HETATM   10  C20 UNL     1      25.988   6.585  48.919  1.00  0.00     0.032 A 
BRANCH   9  11
HETATM   11  C2  UNL     1      27.311   8.291  47.519  1.00  0.00     0.034 C 
HETATM   12  C1  UNL     1      28.337   8.222  46.416  1.00  0.00     0.010 C 
ENDBRANCH   9  11
ENDBRANCH   1   6
BRANCH   1  13
HETATM   13  C14 UNL     1      23.905   4.864  50.113  1.00  0.00     0.077 A 
HETATM   14  C15 UNL     1      23.125   4.262  49.132  1.00  0.00     0.036 A 
HETATM   15  C16 UNL     1      21.751   4.496  49.116  1.00  0.00     0.039 A 
HETATM   16  C17 UNL     1      21.170   5.314  50.062  1.00  0.00     0.068 A 
HETATM   17  C18 UNL     1      21.930   5.912  51.035  1.00  0.00     0.075 A 
HETATM   18  C19 UNL     1      23.299   5.687  51.060  1.00  0.00     0.095 A 
BRANCH  16  19
HETATM   19  O2  UNL     1      19.807   5.545  50.047  1.00  0.00    -0.361 OA
HETATM   20  H17 UNL     1      19.316   5.884  50.857  1.00  0.00     0.217 HD
ENDBRANCH  16  19
BRANCH  18  21
HETATM   21  O3  UNL     1      24.190   6.224  51.983  1.00  0.00    -0.358 OA
HETATM   22  H19 UNL     1      25.199   6.209  51.793  1.00  0.00     0.217 HD
ENDBRANCH  18  21
ENDBRANCH   1  13
BRANCH   4  23
HETATM   23  C8  UNL     1      26.491   1.692  52.371  1.00  0.00     0.036 A 
HETATM   24  C9  UNL     1      26.536   0.418  51.850  1.00  0.00     0.029 A 
HETATM   25  C10 UNL     1      26.552  -0.701  52.654  1.00  0.00     0.002 A 
HETATM   26  C11 UNL     1      26.524  -0.588  54.021  1.00  0.00     0.000 A 
HETATM   27  C12 UNL     1      26.479   0.672  54.565  1.00  0.00     0.002 A 
HETATM   28  C13 UNL     1      26.464   1.756  53.739  1.00  0.00     0.029 A 
ENDBRANCH   4  23
TORSDOF 6
ENDMDL
