MODEL 1
REMARK VINA RESULT:      -7.5      0.000      0.000
REMARK  4 active torsions:
REMARK  status: ('A' for Active; 'I' for Inactive)
REMARK    1  A    between atoms: C3_3  and  C4_4 
REMARK       I    between atoms: C4_4  and  N1_6 
REMARK    2  A    between atoms: N1_6  and  C5_7 
REMARK    3  A    between atoms: C9_12  and  N3_13 
REMARK    4  A    between atoms: N4_16  and  C11_17 
ROOT
HETATM    1  C1  UNL     1      29.049   6.565  48.015  1.00  0.00     0.112 C 
HETATM    2  C2  UNL     1      27.778   5.999  48.512  1.00  0.00    -0.101 C 
HETATM    3  C3  UNL     1      26.750   5.546  48.933  1.00  0.00    -0.006 C 
ENDROOT
BRANCH   3   4
HETATM    4  C4  UNL     1      25.503   5.014  49.430  1.00  0.00     0.300 C 
HETATM    5  O1  UNL     1      24.490   5.001  48.661  1.00  0.00    -0.258 OA
HETATM    6  N1  UNL     1      25.272   4.476  50.759  1.00  0.00    -0.316 N 
HETATM    7  H4  UNL     1      26.210   4.561  51.271  1.00  0.00     0.170 HD
BRANCH   6   8
HETATM    8  C5  UNL     1      23.917   3.988  51.064  1.00  0.00     0.034 C 
HETATM    9  C6  UNL     1      23.631   5.117  51.589  1.00  0.00     0.024 C 
HETATM   10  C7  UNL     1      22.212   5.116  52.085  1.00  0.00     0.178 C 
HETATM   11  N2  UNL     1      21.567   3.871  51.685  1.00  0.00    -0.296 NA
HETATM   12  C8  UNL     1      20.289   3.878  51.387  1.00  0.00     0.142 C 
HETATM   13  C9  UNL     1      19.694   2.592  50.986  1.00  0.00     0.071 C 
HETATM   14  C10 UNL     1      20.456   1.504  51.003  1.00  0.00     0.128 C 
HETATM   15  N4  UNL     1      21.809   1.347  51.357  1.00  0.00    -0.330 N 
HETATM   16  C17 UNL     1      23.079   1.714  50.780  1.00  0.00     0.099 C 
HETATM   17  C18 UNL     1      23.988   2.617  50.577  1.00  0.00     0.047 C 
BRANCH  13  18
HETATM   18  N3  UNL     1      18.331   2.398  50.608  1.00  0.00    -0.320 N 
HETATM   19 BR1  UNL     1      17.707   0.612  50.920  1.00  0.00     0.047 Br
HETATM   20  H9  UNL     1      17.607   3.039  50.187  1.00  0.00     0.174 HD
ENDBRANCH  13  18
BRANCH  15  21
HETATM   21  C11 UNL     1      21.866   0.630  52.622  1.00  0.00     0.038 A 
HETATM   22  C12 UNL     1      20.874   0.645  53.574  1.00  0.00     0.030 A 
HETATM   23  C13 UNL     1      20.975  -0.087  54.772  1.00  0.00     0.002 A 
HETATM   24  C14 UNL     1      22.113  -0.833  54.982  1.00  0.00     0.000 A 
HETATM   25  C15 UNL     1      23.113  -0.848  54.032  1.00  0.00     0.002 A 
HETATM   26  C16 UNL     1      23.020  -0.135  52.849  1.00  0.00     0.030 A 
ENDBRANCH  15  21
ENDBRANCH   6   8
ENDBRANCH   3   4
TORSDOF 4
ENDMDL
MODEL 2
REMARK VINA RESULT:      -7.3      4.072      6.268
REMARK  4 active torsions:
REMARK  status: ('A' for Active; 'I' for Inactive)
REMARK    1  A    between atoms: C3_3  and  C4_4 
REMARK       I    between atoms: C4_4  and  N1_6 
REMARK    2  A    between atoms: N1_6  and  C5_7 
REMARK    3  A    between atoms: C9_12  and  N3_13 
REMARK    4  A    between atoms: N4_16  and  C11_17 
ROOT
HETATM    1  C1  UNL     1      30.253  -1.741  53.900  1.00  0.00     0.112 C 
HETATM    2  C2  UNL     1      29.311  -0.668  53.518  1.00  0.00    -0.101 C 
HETATM    3  C3  UNL     1      28.556   0.205  53.190  1.00  0.00    -0.006 C 
ENDROOT
BRANCH   3   4
HETATM    4  C4  UNL     1      27.633   1.241  52.795  1.00  0.00     0.300 C 
HETATM    5  O1  UNL     1      27.979   2.458  52.927  1.00  0.00    -0.258 OA
HETATM    6  N1  UNL     1      26.303   1.038  52.245  1.00  0.00    -0.316 N 
HETATM    7  H4  UNL     1      26.169  -0.024  52.201  1.00  0.00     0.170 HD
BRANCH   6   8
HETATM    8  C5  UNL     1      25.519   2.239  51.912  1.00  0.00     0.034 C 
HETATM    9  C6  UNL     1      24.814   2.067  52.964  1.00  0.00     0.024 C 
HETATM   10  C7  UNL     1      23.783   3.155  53.083  1.00  0.00     0.178 C 
HETATM   11  N2  UNL     1      24.003   4.140  52.031  1.00  0.00    -0.296 NA
HETATM   12  C8  UNL     1      23.749   5.404  52.272  1.00  0.00     0.142 C 
HETATM   13  C9  UNL     1      23.996   6.352  51.174  1.00  0.00     0.071 C 
HETATM   14  C10 UNL     1      24.401   5.878  50.000  1.00  0.00     0.128 C 
HETATM   15  N4  UNL     1      24.650   4.555  49.592  1.00  0.00    -0.330 N 
HETATM   16  C17 UNL     1      25.658   3.560  49.866  1.00  0.00     0.099 C 
HETATM   17  C18 UNL     1      26.126   2.638  50.650  1.00  0.00     0.047 C 
BRANCH  13  18
HETATM   18  N3  UNL     1      23.799   7.765  51.246  1.00  0.00    -0.320 N 
HETATM   19 BR1  UNL     1      23.028   8.503  49.653  1.00  0.00     0.047 Br
HETATM   20  H9  UNL     1      24.000   8.478  51.997  1.00  0.00     0.174 HD
ENDBRANCH  13  18
BRANCH  15  21
HETATM   21  C11 UNL     1      23.597   4.161  48.668  1.00  0.00     0.038 A 
HETATM   22  C12 UNL     1      22.942   5.018  47.817  1.00  0.00     0.030 A 
HETATM   23  C13 UNL     1      21.945   4.575  46.928  1.00  0.00     0.002 A 
HETATM   24  C14 UNL     1      21.625   3.236  46.928  1.00  0.00     0.000 A 
HETATM   25  C15 UNL     1      22.277   2.372  47.784  1.00  0.00     0.002 A 
HETATM   26  C16 UNL     1      23.261   2.798  48.658  1.00  0.00     0.030 A 
ENDBRANCH  15  21
ENDBRANCH   6   8
ENDBRANCH   3   4
TORSDOF 4
ENDMDL
MODEL 3
REMARK VINA RESULT:      -7.2      3.289      7.163
REMARK  4 active torsions:
REMARK  status: ('A' for Active; 'I' for Inactive)
REMARK    1  A    between atoms: C3_3  and  C4_4 
REMARK       I    between atoms: C4_4  and  N1_6 
REMARK    2  A    between atoms: N1_6  and  C5_7 
REMARK    3  A    between atoms: C9_12  and  N3_13 
REMARK    4  A    between atoms: N4_16  and  C11_17 
ROOT
HETATM    1  C1  UNL     1      22.863  -1.588  55.307  1.00  0.00     0.112 C 
HETATM    2  C2  UNL     1      22.949  -0.654  54.165  1.00  0.00    -0.101 C 
HETATM    3  C3  UNL     1      23.031   0.093  53.229  1.00  0.00    -0.006 C 
ENDROOT
BRANCH   3   4
HETATM    4  C4  UNL     1      23.113   0.986  52.099  1.00  0.00     0.300 C 
HETATM    5  O1  UNL     1      24.256   1.262  51.613  1.00  0.00    -0.258 OA
HETATM    6  N1  UNL     1      21.992   1.627  51.433  1.00  0.00    -0.316 N 
HETATM    7  H4  UNL     1      21.118   1.296  51.957  1.00  0.00     0.170 HD
BRANCH   6   8
HETATM    8  C5  UNL     1      22.297   2.511  50.296  1.00  0.00     0.034 C 
HETATM    9  C6  UNL     1      22.063   1.549  49.488  1.00  0.00     0.024 C 
HETATM   10  C7  UNL     1      22.247   2.006  48.068  1.00  0.00     0.178 C 
HETATM   11  N2  UNL     1      22.502   3.441  48.056  1.00  0.00    -0.296 NA
HETATM   12  C8  UNL     1      22.053   4.164  47.057  1.00  0.00     0.142 C 
HETATM   13  C9  UNL     1      22.336   5.608  47.103  1.00  0.00     0.071 C 
HETATM   14  C10 UNL     1      23.067   6.083  48.105  1.00  0.00     0.128 C 
HETATM   15  N4  UNL     1      23.656   5.418  49.196  1.00  0.00    -0.330 N 
HETATM   16  C17 UNL     1      23.180   4.783  50.401  1.00  0.00     0.099 C 
HETATM   17  C18 UNL     1      22.660   3.745  50.980  1.00  0.00     0.047 C 
BRANCH  13  18
HETATM   18  N3  UNL     1      21.917   6.560  46.124  1.00  0.00    -0.320 N 
HETATM   19 BR1  UNL     1      23.363   7.603  45.418  1.00  0.00     0.047 Br
HETATM   20  H9  UNL     1      20.974   6.805  45.721  1.00  0.00     0.174 HD
ENDBRANCH  13  18
BRANCH  15  21
HETATM   21  C11 UNL     1      25.097   5.405  48.994  1.00  0.00     0.038 A 
HETATM   22  C12 UNL     1      25.914   4.332  49.258  1.00  0.00     0.030 A 
HETATM   23  C13 UNL     1      27.301   4.371  49.022  1.00  0.00     0.002 A 
HETATM   24  C14 UNL     1      27.840   5.530  48.513  1.00  0.00     0.000 A 
HETATM   25  C15 UNL     1      27.025   6.612  48.250  1.00  0.00     0.002 A 
HETATM   26  C16 UNL     1      25.660   6.582  48.475  1.00  0.00     0.030 A 
ENDBRANCH  15  21
ENDBRANCH   6   8
ENDBRANCH   3   4
TORSDOF 4
ENDMDL
MODEL 4
REMARK VINA RESULT:      -7.1      3.571      4.920
REMARK  4 active torsions:
REMARK  status: ('A' for Active; 'I' for Inactive)
REMARK    1  A    between atoms: C3_3  and  C4_4 
REMARK       I    between atoms: C4_4  and  N1_6 
REMARK    2  A    between atoms: N1_6  and  C5_7 
REMARK    3  A    between atoms: C9_12  and  N3_13 
REMARK    4  A    between atoms: N4_16  and  C11_17 
ROOT
HETATM    1  C1  UNL     1      24.664  11.034  47.514  1.00  0.00     0.112 C 
HETATM    2  C2  UNL     1      24.870   9.756  48.227  1.00  0.00    -0.101 C 
HETATM    3  C3  UNL     1      25.022   8.722  48.817  1.00  0.00    -0.006 C 
ENDROOT
BRANCH   3   4
HETATM    4  C4  UNL     1      25.201   7.468  49.509  1.00  0.00     0.300 C 
HETATM    5  O1  UNL     1      25.952   7.432  50.534  1.00  0.00    -0.258 OA
HETATM    6  N1  UNL     1      24.594   6.198  49.147  1.00  0.00    -0.316 N 
HETATM    7  H4  UNL     1      24.003   6.399  48.276  1.00  0.00     0.170 HD
BRANCH   6   8
HETATM    8  C5  UNL     1      24.915   5.033  49.988  1.00  0.00     0.034 C 
HETATM    9  C6  UNL     1      25.799   4.668  49.142  1.00  0.00     0.024 C 
HETATM   10  C7  UNL     1      26.477   3.409  49.608  1.00  0.00     0.178 C 
HETATM   11  N2  UNL     1      26.004   3.079  50.947  1.00  0.00    -0.296 NA
HETATM   12  C8  UNL     1      26.829   2.514  51.798  1.00  0.00     0.142 C 
HETATM   13  C9  UNL     1      26.296   2.209  53.136  1.00  0.00     0.071 C 
HETATM   14  C10 UNL     1      25.017   2.465  53.387  1.00  0.00     0.128 C 
HETATM   15  N4  UNL     1      24.018   3.006  52.556  1.00  0.00    -0.330 N 
HETATM   16  C17 UNL     1      23.731   4.303  51.993  1.00  0.00     0.099 C 
HETATM   17  C18 UNL     1      23.958   5.191  51.075  1.00  0.00     0.047 C 
BRANCH  13  18
HETATM   18  N3  UNL     1      27.039   1.615  54.201  1.00  0.00    -0.320 N 
HETATM   19 BR1  UNL     1      28.906   1.425  53.807  1.00  0.00     0.047 Br
HETATM   20  H9  UNL     1      26.762   1.256  55.154  1.00  0.00     0.174 HD
ENDBRANCH  13  18
BRANCH  15  21
HETATM   21  C11 UNL     1      23.080   1.944  52.226  1.00  0.00     0.038 A 
HETATM   22  C12 UNL     1      22.630   0.995  53.112  1.00  0.00     0.030 A 
HETATM   23  C13 UNL     1      21.705   0.002  52.740  1.00  0.00     0.002 A 
HETATM   24  C14 UNL     1      21.249  -0.006  51.441  1.00  0.00     0.000 A 
HETATM   25  C15 UNL     1      21.700   0.943  50.546  1.00  0.00     0.002 A 
HETATM   26  C16 UNL     1      22.608   1.925  50.904  1.00  0.00     0.030 A 
ENDBRANCH  15  21
ENDBRANCH   6   8
ENDBRANCH   3   4
TORSDOF 4
ENDMDL
MODEL 5
REMARK VINA RESULT:      -6.8      2.080      2.614
REMARK  4 active torsions:
REMARK  status: ('A' for Active; 'I' for Inactive)
REMARK    1  A    between atoms: C3_3  and  C4_4 
REMARK       I    between atoms: C4_4  and  N1_6 
REMARK    2  A    between atoms: N1_6  and  C5_7 
REMARK    3  A    between atoms: C9_12  and  N3_13 
REMARK    4  A    between atoms: N4_16  and  C11_17 
ROOT
HETATM    1  C1  UNL     1      26.176   8.459  46.732  1.00  0.00     0.112 C 
HETATM    2  C2  UNL     1      25.566   7.479  47.655  1.00  0.00    -0.101 C 
HETATM    3  C3  UNL     1      25.064   6.697  48.415  1.00  0.00    -0.006 C 
ENDROOT
BRANCH   3   4
HETATM    4  C4  UNL     1      24.448   5.753  49.315  1.00  0.00     0.300 C 
HETATM    5  O1  UNL     1      25.084   5.384  50.352  1.00  0.00    -0.258 OA
HETATM    6  N1  UNL     1      23.133   5.155  49.157  1.00  0.00    -0.316 N 
HETATM    7  H4  UNL     1      22.738   5.563  48.248  1.00  0.00     0.170 HD
BRANCH   6   8
HETATM    8  C5  UNL     1      22.694   4.205  50.192  1.00  0.00     0.034 C 
HETATM    9  C6  UNL     1      22.091   5.152  50.803  1.00  0.00     0.024 C 
HETATM   10  C7  UNL     1      21.414   4.627  52.038  1.00  0.00     0.178 C 
HETATM   11  N2  UNL     1      21.544   3.175  52.075  1.00  0.00    -0.296 NA
HETATM   12  C8  UNL     1      20.572   2.457  52.585  1.00  0.00     0.142 C 
HETATM   13  C9  UNL     1      20.758   0.997  52.590  1.00  0.00     0.071 C 
HETATM   14  C10 UNL     1      21.904   0.498  52.139  1.00  0.00     0.128 C 
HETATM   15  N4  UNL     1      23.041   1.151  51.628  1.00  0.00    -0.330 N 
HETATM   16  C17 UNL     1      23.366   1.870  50.420  1.00  0.00     0.099 C 
HETATM   17  C18 UNL     1      23.318   2.971  49.735  1.00  0.00     0.047 C 
BRANCH  13  18
HETATM   18  N3  UNL     1      19.811   0.048  53.083  1.00  0.00    -0.320 N 
HETATM   19 BR1  UNL     1      18.338  -0.238  51.889  1.00  0.00     0.047 Br
HETATM   20  H9  UNL     1      19.760  -0.518  53.972  1.00  0.00     0.174 HD
ENDBRANCH  13  18
BRANCH  15  21
HETATM   21  C11 UNL     1      24.111   1.030  52.606  1.00  0.00     0.038 A 
HETATM   22  C12 UNL     1      24.468  -0.139  53.233  1.00  0.00     0.030 A 
HETATM   23  C13 UNL     1      25.528  -0.200  54.158  1.00  0.00     0.002 A 
HETATM   24  C14 UNL     1      26.216   0.960  54.433  1.00  0.00     0.000 A 
HETATM   25  C15 UNL     1      25.859   2.138  53.808  1.00  0.00     0.002 A 
HETATM   26  C16 UNL     1      24.820   2.206  52.896  1.00  0.00     0.030 A 
ENDBRANCH  15  21
ENDBRANCH   6   8
ENDBRANCH   3   4
TORSDOF 4
ENDMDL
MODEL 6
REMARK VINA RESULT:      -6.8      3.368      5.124
REMARK  4 active torsions:
REMARK  status: ('A' for Active; 'I' for Inactive)
REMARK    1  A    between atoms: C3_3  and  C4_4 
REMARK       I    between atoms: C4_4  and  N1_6 
REMARK    2  A    between atoms: N1_6  and  C5_7 
REMARK    3  A    between atoms: C9_12  and  N3_13 
REMARK    4  A    between atoms: N4_16  and  C11_17 
ROOT
HETATM    1  C1  UNL     1      20.643  10.468  48.791  1.00  0.00     0.112 C 
HETATM    2  C2  UNL     1      21.327   9.212  49.161  1.00  0.00    -0.101 C 
HETATM    3  C3  UNL     1      21.898   8.202  49.469  1.00  0.00    -0.006 C 
ENDROOT
BRANCH   3   4
HETATM    4  C4  UNL     1      22.571   6.985  49.853  1.00  0.00     0.300 C 
HETATM    5  O1  UNL     1      21.982   5.872  49.672  1.00  0.00    -0.258 OA
HETATM    6  N1  UNL     1      23.894   6.889  50.446  1.00  0.00    -0.316 N 
HETATM    7  H4  UNL     1      24.245   7.898  50.530  1.00  0.00     0.170 HD
BRANCH   6   8
HETATM    8  C5  UNL     1      24.394   5.543  50.769  1.00  0.00     0.034 C 
HETATM    9  C6  UNL     1      25.045   5.523  49.669  1.00  0.00     0.024 C 
HETATM   10  C7  UNL     1      25.801   4.230  49.535  1.00  0.00     0.178 C 
HETATM   11  N2  UNL     1      25.660   3.464  50.767  1.00  0.00    -0.296 NA
HETATM   12  C8  UNL     1      26.659   2.716  51.175  1.00  0.00     0.142 C 
HETATM   13  C9  UNL     1      26.461   1.970  52.428  1.00  0.00     0.071 C 
HETATM   14  C10 UNL     1      25.282   2.047  53.037  1.00  0.00     0.128 C 
HETATM   15  N4  UNL     1      24.119   2.754  52.680  1.00  0.00    -0.330 N 
HETATM   16  C17 UNL     1      23.719   4.140  52.648  1.00  0.00     0.099 C 
HETATM   17  C18 UNL     1      23.729   5.286  52.039  1.00  0.00     0.047 C 
BRANCH  13  18
HETATM   18  N3  UNL     1      27.431   1.121  53.042  1.00  0.00    -0.320 N 
HETATM   19 BR1  UNL     1      26.743   0.154  54.549  1.00  0.00     0.047 Br
HETATM   20  H9  UNL     1      28.447   0.928  52.836  1.00  0.00     0.174 HD
ENDBRANCH  13  18
BRANCH  15  21
HETATM   21  C11 UNL     1      23.117   1.790  52.251  1.00  0.00     0.038 A 
HETATM   22  C12 UNL     1      22.667   0.739  53.014  1.00  0.00     0.030 A 
HETATM   23  C13 UNL     1      21.679  -0.151  52.554  1.00  0.00     0.002 A 
HETATM   24  C14 UNL     1      21.159   0.051  51.295  1.00  0.00     0.000 A 
HETATM   25  C15 UNL     1      21.611   1.102  50.524  1.00  0.00     0.002 A 
HETATM   26  C16 UNL     1      22.580   1.984  50.970  1.00  0.00     0.030 A 
ENDBRANCH  15  21
ENDBRANCH   6   8
ENDBRANCH   3   4
TORSDOF 4
ENDMDL
MODEL 7
REMARK VINA RESULT:      -6.7      3.239      3.991
REMARK  4 active torsions:
REMARK  status: ('A' for Active; 'I' for Inactive)
REMARK    1  A    between atoms: C3_3  and  C4_4 
REMARK       I    between atoms: C4_4  and  N1_6 
REMARK    2  A    between atoms: N1_6  and  C5_7 
REMARK    3  A    between atoms: C9_12  and  N3_13 
REMARK    4  A    between atoms: N4_16  and  C11_17 
ROOT
HETATM    1  C1  UNL     1      29.301  -0.322  53.807  1.00  0.00     0.112 C 
HETATM    2  C2  UNL     1      27.954   0.179  53.464  1.00  0.00    -0.101 C 
HETATM    3  C3  UNL     1      26.859   0.596  53.202  1.00  0.00    -0.006 C 
ENDROOT
BRANCH   3   4
HETATM    4  C4  UNL     1      25.551   1.108  52.872  1.00  0.00     0.300 C 
HETATM    5  O1  UNL     1      24.525   0.536  53.360  1.00  0.00    -0.258 OA
HETATM    6  N1  UNL     1      25.270   2.244  52.010  1.00  0.00    -0.316 N 
HETATM    7  H4  UNL     1      26.226   2.603  51.686  1.00  0.00     0.170 HD
BRANCH   6   8
HETATM    8  C5  UNL     1      23.856   2.597  51.799  1.00  0.00     0.034 C 
HETATM    9  C6  UNL     1      23.956   3.514  52.684  1.00  0.00     0.024 C 
HETATM   10  C7  UNL     1      22.646   4.236  52.835  1.00  0.00     0.178 C 
HETATM   11  N2  UNL     1      21.714   3.752  51.824  1.00  0.00    -0.296 NA
HETATM   12  C8  UNL     1      20.841   4.583  51.306  1.00  0.00     0.142 C 
HETATM   13  C9  UNL     1      19.929   4.038  50.287  1.00  0.00     0.071 C 
HETATM   14  C10 UNL     1      20.000   2.744  49.993  1.00  0.00     0.128 C 
HETATM   15  N4  UNL     1      20.837   1.740  50.512  1.00  0.00    -0.330 N 
HETATM   16  C17 UNL     1      22.238   1.407  50.414  1.00  0.00     0.099 C 
HETATM   17  C18 UNL     1      23.459   1.614  50.801  1.00  0.00     0.047 C 
BRANCH  13  18
HETATM   18  N3  UNL     1      18.927   4.785  49.596  1.00  0.00    -0.320 N 
HETATM   19 BR1  UNL     1      17.147   4.160  49.941  1.00  0.00     0.047 Br
HETATM   20  H9  UNL     1      18.974   5.603  48.931  1.00  0.00     0.174 HD
ENDBRANCH  13  18
BRANCH  15  21
HETATM   21  C11 UNL     1      20.027   0.855  51.336  1.00  0.00     0.038 A 
HETATM   22  C12 UNL     1      20.412   0.354  52.556  1.00  0.00     0.030 A 
HETATM   23  C13 UNL     1      19.575  -0.482  53.320  1.00  0.00     0.002 A 
HETATM   24  C14 UNL     1      18.337  -0.800  52.810  1.00  0.00     0.000 A 
HETATM   25  C15 UNL     1      17.947  -0.302  51.584  1.00  0.00     0.002 A 
HETATM   26  C16 UNL     1      18.762   0.523  50.828  1.00  0.00     0.030 A 
ENDBRANCH  15  21
ENDBRANCH   6   8
ENDBRANCH   3   4
TORSDOF 4
ENDMDL
MODEL 8
REMARK VINA RESULT:      -6.7      3.068      5.326
REMARK  4 active torsions:
REMARK  status: ('A' for Active; 'I' for Inactive)
REMARK    1  A    between atoms: C3_3  and  C4_4 
REMARK       I    between atoms: C4_4  and  N1_6 
REMARK    2  A    between atoms: N1_6  and  C5_7 
REMARK    3  A    between atoms: C9_12  and  N3_13 
REMARK    4  A    between atoms: N4_16  and  C11_17 
ROOT
HETATM    1  C1  UNL     1      29.740  -0.684  53.815  1.00  0.00     0.112 C 
HETATM    2  C2  UNL     1      28.383  -0.276  53.397  1.00  0.00    -0.101 C 
HETATM    3  C3  UNL     1      27.282   0.071  53.069  1.00  0.00    -0.006 C 
ENDROOT
BRANCH   3   4
HETATM    4  C4  UNL     1      25.965   0.492  52.655  1.00  0.00     0.300 C 
HETATM    5  O1  UNL     1      25.740   0.685  51.418  1.00  0.00    -0.258 OA
HETATM    6  N1  UNL     1      24.829   0.729  53.530  1.00  0.00    -0.316 N 
HETATM    7  H4  UNL     1      25.182   0.526  54.521  1.00  0.00     0.170 HD
BRANCH   6   8
HETATM    8  C5  UNL     1      23.571   1.161  52.901  1.00  0.00     0.034 C 
HETATM    9  C6  UNL     1      23.080  -0.004  53.086  1.00  0.00     0.024 C 
HETATM   10  C7  UNL     1      21.670  -0.063  52.570  1.00  0.00     0.178 C 
HETATM   11  N2  UNL     1      21.259   1.270  52.146  1.00  0.00    -0.296 NA
HETATM   12  C8  UNL     1      20.008   1.635  52.297  1.00  0.00     0.142 C 
HETATM   13  C9  UNL     1      19.654   2.994  51.855  1.00  0.00     0.071 C 
HETATM   14  C10 UNL     1      20.592   3.743  51.284  1.00  0.00     0.128 C 
HETATM   15  N4  UNL     1      21.941   3.457  51.008  1.00  0.00    -0.330 N 
HETATM   16  C17 UNL     1      23.144   3.290  51.786  1.00  0.00     0.099 C 
HETATM   17  C18 UNL     1      23.889   2.534  52.533  1.00  0.00     0.047 C 
BRANCH  13  18
HETATM   18  N3  UNL     1      18.355   3.579  51.953  1.00  0.00    -0.320 N 
HETATM   19 BR1  UNL     1      16.973   2.481  51.203  1.00  0.00     0.047 Br
HETATM   20  H9  UNL     1      18.011   4.495  52.348  1.00  0.00     0.174 HD
ENDBRANCH  13  18
BRANCH  15  21
HETATM   21  C11 UNL     1      22.086   3.306  49.568  1.00  0.00     0.038 A 
HETATM   22  C12 UNL     1      22.451   2.141  48.937  1.00  0.00     0.030 A 
HETATM   23  C13 UNL     1      22.555   2.049  47.536  1.00  0.00     0.002 A 
HETATM   24  C14 UNL     1      22.282   3.173  46.790  1.00  0.00     0.000 A 
HETATM   25  C15 UNL     1      21.919   4.346  47.419  1.00  0.00     0.002 A 
HETATM   26  C16 UNL     1      21.811   4.445  48.796  1.00  0.00     0.030 A 
ENDBRANCH  15  21
ENDBRANCH   6   8
ENDBRANCH   3   4
TORSDOF 4
ENDMDL
MODEL 9
REMARK VINA RESULT:      -6.7      3.377      6.741
REMARK  4 active torsions:
REMARK  status: ('A' for Active; 'I' for Inactive)
REMARK    1  A    between atoms: C3_3  and  C4_4 
REMARK       I    between atoms: C4_4  and  N1_6 
REMARK    2  A    between atoms: N1_6  and  C5_7 
REMARK    3  A    between atoms: C9_12  and  N3_13 
REMARK    4  A    between atoms: N4_16  and  C11_17 
ROOT
HETATM    1  C1  UNL     1      13.500   3.901  52.480  1.00  0.00     0.112 C 
HETATM    2  C2  UNL     1      14.916   3.709  52.104  1.00  0.00    -0.101 C 
HETATM    3  C3  UNL     1      16.068   3.572  51.796  1.00  0.00    -0.006 C 
ENDROOT
BRANCH   3   4
HETATM    4  C4  UNL     1      17.457   3.402  51.444  1.00  0.00     0.300 C 
HETATM    5  O1  UNL     1      18.069   4.358  50.869  1.00  0.00    -0.258 OA
HETATM    6  N1  UNL     1      18.260   2.215  51.681  1.00  0.00    -0.316 N 
HETATM    7  H4  UNL     1      17.606   1.516  52.163  1.00  0.00     0.170 HD
BRANCH   6   8
HETATM    8  C5  UNL     1      19.663   2.248  51.236  1.00  0.00     0.034 C 
HETATM    9  C6  UNL     1      19.345   1.584  50.192  1.00  0.00     0.024 C 
HETATM   10  C7  UNL     1      20.557   1.356  49.332  1.00  0.00     0.178 C 
HETATM   11  N2  UNL     1      21.688   2.084  49.895  1.00  0.00    -0.296 NA
HETATM   12  C8  UNL     1      22.587   2.596  49.088  1.00  0.00     0.142 C 
HETATM   13  C9  UNL     1      23.702   3.324  49.714  1.00  0.00     0.071 C 
HETATM   14  C10 UNL     1      23.768   3.373  51.040  1.00  0.00     0.128 C 
HETATM   15  N4  UNL     1      22.915   2.820  52.013  1.00  0.00    -0.330 N 
HETATM   16  C17 UNL     1      21.580   3.087  52.491  1.00  0.00     0.099 C 
HETATM   17  C18 UNL     1      20.298   2.958  52.338  1.00  0.00     0.047 C 
BRANCH  13  18
HETATM   18  N3  UNL     1      24.765   3.966  49.008  1.00  0.00    -0.320 N 
HETATM   19 BR1  UNL     1      26.496   3.587  49.742  1.00  0.00     0.047 Br
HETATM   20  H9  UNL     1      24.784   4.610  48.173  1.00  0.00     0.174 HD
ENDBRANCH  13  18
BRANCH  15  21
HETATM   21  C11 UNL     1      23.615   1.718  52.656  1.00  0.00     0.038 A 
HETATM   22  C12 UNL     1      23.064   0.486  52.911  1.00  0.00     0.030 A 
HETATM   23  C13 UNL     1      23.797  -0.552  53.518  1.00  0.00     0.002 A 
HETATM   24  C14 UNL     1      25.107  -0.304  53.863  1.00  0.00     0.000 A 
HETATM   25  C15 UNL     1      25.663   0.933  53.612  1.00  0.00     0.002 A 
HETATM   26  C16 UNL     1      24.951   1.957  53.013  1.00  0.00     0.030 A 
ENDBRANCH  15  21
ENDBRANCH   6   8
ENDBRANCH   3   4
TORSDOF 4
ENDMDL
