MODEL 1
REMARK VINA RESULT:      -7.8      0.000      0.000
REMARK  4 active torsions:
REMARK  status: ('A' for Active; 'I' for Inactive)
REMARK    1  A    between atoms: C6_8  and  C7_9 
REMARK    2  A    between atoms: C7_9  and  C8_10 
REMARK    3  A    between atoms: C9_11  and  C10_12 
REMARK    4  A    between atoms: C10_12  and  N3_13 
ROOT
HETATM    1  C1  UNL     1      23.860   0.501  53.392  1.00  0.00     0.037 A 
HETATM    2  C2  UNL     1      23.743  -0.844  53.942  1.00  0.00     0.011 A 
HETATM    3  C3  UNL     1      22.660  -0.473  53.134  1.00  0.00     0.037 A 
HETATM    4  C4  UNL     1      22.413   0.835  52.361  1.00  0.00     0.091 C 
HETATM    5  N1  UNL     1      22.619   2.008  51.914  1.00  0.00    -0.284 NA
HETATM    6  C5  UNL     1      23.502   3.058  51.917  1.00  0.00     0.301 C 
HETATM    7  N2  UNL     1      24.875   2.951  51.469  1.00  0.00    -0.174 N 
HETATM    8  C6  UNL     1      26.002   3.077  50.683  1.00  0.00     0.309 A 
HETATM    9  C14 UNL     1      26.930   2.406  51.514  1.00  0.00     0.299 A 
HETATM   10  N5  UNL     1      25.826   2.361  52.138  1.00  0.00     0.086 N 
HETATM   11  C15 UNL     1      26.907   1.769  52.742  1.00  0.00     0.258 A 
HETATM   12  C16 UNL     1      26.991   1.055  54.063  1.00  0.00     0.196 C 
HETATM   13  N6  UNL     1      26.175   0.058  54.436  1.00  0.00    -0.302 NA
HETATM   14  C17 UNL     1      25.156  -0.662  54.495  1.00  0.00     0.094 C 
ENDROOT
BRANCH   8  15
HETATM   15  C7  UNL     1      26.099   3.680  49.485  1.00  0.00     0.041 C 
BRANCH  15  16
HETATM   16  C8  UNL     1      27.286   4.319  48.942  1.00  0.00    -0.002 C 
HETATM   17  C9  UNL     1      27.442   5.569  48.572  1.00  0.00    -0.007 C 
BRANCH  17  18
HETATM   18  C10 UNL     1      26.444   6.651  48.610  1.00  0.00     0.156 C 
BRANCH  18  19
HETATM   19  N3  UNL     1      27.006   7.869  49.198  1.00  0.00    -0.347 N 
HETATM   20  C11 UNL     1      28.241   8.359  48.894  1.00  0.00     0.111 A 
HETATM   21  C12 UNL     1      28.407   9.495  49.634  1.00  0.00     0.135 A 
HETATM   22  N4  UNL     1      27.319   9.719  50.381  1.00  0.00    -0.255 NA
HETATM   23  C13 UNL     1      26.472   8.712  50.100  1.00  0.00     0.209 A 
ENDBRANCH  18  19
ENDBRANCH  17  18
ENDBRANCH  15  16
ENDBRANCH   8  15
TORSDOF 4
ENDMDL
MODEL 2
REMARK VINA RESULT:      -7.6      2.344      7.166
REMARK  4 active torsions:
REMARK  status: ('A' for Active; 'I' for Inactive)
REMARK    1  A    between atoms: C6_8  and  C7_9 
REMARK    2  A    between atoms: C7_9  and  C8_10 
REMARK    3  A    between atoms: C9_11  and  C10_12 
REMARK    4  A    between atoms: C10_12  and  N3_13 
ROOT
HETATM    1  C1  UNL     1      25.353   4.787  50.181  1.00  0.00     0.037 A 
HETATM    2  C2  UNL     1      25.313   5.675  49.024  1.00  0.00     0.011 A 
HETATM    3  C3  UNL     1      26.324   4.707  48.953  1.00  0.00     0.037 A 
HETATM    4  C4  UNL     1      26.683   3.586  49.945  1.00  0.00     0.091 C 
HETATM    5  N1  UNL     1      26.621   2.852  50.982  1.00  0.00    -0.284 NA
HETATM    6  C5  UNL     1      25.938   2.640  52.153  1.00  0.00     0.301 C 
HETATM    7  N2  UNL     1      24.519   2.356  52.211  1.00  0.00    -0.174 N 
HETATM    8  C6  UNL     1      23.334   1.663  52.356  1.00  0.00     0.309 A 
HETATM    9  C14 UNL     1      22.426   2.722  52.117  1.00  0.00     0.299 A 
HETATM   10  N5  UNL     1      23.580   3.239  52.013  1.00  0.00     0.086 N 
HETATM   11  C15 UNL     1      22.506   4.071  51.823  1.00  0.00     0.258 A 
HETATM   12  C16 UNL     1      22.480   5.540  51.500  1.00  0.00     0.196 C 
HETATM   13  N6  UNL     1      23.158   6.103  50.489  1.00  0.00    -0.302 NA
HETATM   14  C17 UNL     1      24.038   6.272  49.619  1.00  0.00     0.094 C 
ENDROOT
BRANCH   8  15
HETATM   15  C7  UNL     1      23.181   0.358  52.640  1.00  0.00     0.041 C 
BRANCH  15  16
HETATM   16  C8  UNL     1      23.648  -0.316  53.841  1.00  0.00    -0.002 C 
HETATM   17  C9  UNL     1      24.816  -0.873  54.061  1.00  0.00    -0.007 C 
BRANCH  17  18
HETATM   18  C10 UNL     1      25.962  -0.960  53.139  1.00  0.00     0.156 C 
BRANCH  18  19
HETATM   19  N3  UNL     1      27.146  -0.309  53.702  1.00  0.00    -0.347 N 
HETATM   20  C11 UNL     1      28.314  -0.137  53.021  1.00  0.00     0.111 A 
HETATM   21  C12 UNL     1      29.174   0.502  53.869  1.00  0.00     0.135 A 
HETATM   22  N4  UNL     1      28.575   0.726  55.045  1.00  0.00    -0.255 NA
HETATM   23  C13 UNL     1      27.334   0.223  54.923  1.00  0.00     0.209 A 
ENDBRANCH  18  19
ENDBRANCH  17  18
ENDBRANCH  15  16
ENDBRANCH   8  15
TORSDOF 4
ENDMDL
MODEL 3
REMARK VINA RESULT:      -7.6      4.264      6.216
REMARK  4 active torsions:
REMARK  status: ('A' for Active; 'I' for Inactive)
REMARK    1  A    between atoms: C6_8  and  C7_9 
REMARK    2  A    between atoms: C7_9  and  C8_10 
REMARK    3  A    between atoms: C9_11  and  C10_12 
REMARK    4  A    between atoms: C10_12  and  N3_13 
ROOT
HETATM    1  C1  UNL     1      20.615   0.404  52.855  1.00  0.00     0.037 A 
HETATM    2  C2  UNL     1      19.473  -0.502  52.826  1.00  0.00     0.011 A 
HETATM    3  C3  UNL     1      19.469   0.438  51.786  1.00  0.00     0.037 A 
HETATM    4  C4  UNL     1      20.490   1.540  51.455  1.00  0.00     0.091 C 
HETATM    5  N1  UNL     1      21.531   2.265  51.554  1.00  0.00    -0.284 NA
HETATM    6  C5  UNL     1      22.668   2.480  52.291  1.00  0.00     0.301 C 
HETATM    7  N2  UNL     1      23.690   1.476  52.498  1.00  0.00    -0.174 N 
HETATM    8  C6  UNL     1      24.881   0.788  52.389  1.00  0.00     0.309 A 
HETATM    9  C14 UNL     1      24.607  -0.276  53.281  1.00  0.00     0.299 A 
HETATM   10  N5  UNL     1      23.565   0.448  53.292  1.00  0.00     0.086 N 
HETATM   11  C15 UNL     1      23.554  -0.669  54.089  1.00  0.00     0.258 A 
HETATM   12  C16 UNL     1      22.472  -1.185  54.997  1.00  0.00     0.196 C 
HETATM   13  N6  UNL     1      21.200  -1.381  54.619  1.00  0.00    -0.302 NA
HETATM   14  C17 UNL     1      20.135  -1.256  53.979  1.00  0.00     0.094 C 
ENDROOT
BRANCH   8  15
HETATM   15  C7  UNL     1      25.942   1.109  51.629  1.00  0.00     0.041 C 
BRANCH  15  16
HETATM   16  C8  UNL     1      26.955   2.102  51.949  1.00  0.00    -0.002 C 
HETATM   17  C9  UNL     1      27.719   2.174  53.014  1.00  0.00    -0.007 C 
BRANCH  17  18
HETATM   18  C10 UNL     1      27.743   1.260  54.169  1.00  0.00     0.156 C 
BRANCH  18  19
HETATM   19  N3  UNL     1      28.464   0.026  53.852  1.00  0.00    -0.347 N 
HETATM   20  C11 UNL     1      29.823  -0.085  53.864  1.00  0.00     0.111 A 
HETATM   21  C12 UNL     1      30.116  -1.374  53.519  1.00  0.00     0.135 A 
HETATM   22  N4  UNL     1      28.986  -2.057  53.294  1.00  0.00    -0.255 NA
HETATM   23  C13 UNL     1      27.986  -1.182  53.504  1.00  0.00     0.209 A 
ENDBRANCH  18  19
ENDBRANCH  17  18
ENDBRANCH  15  16
ENDBRANCH   8  15
TORSDOF 4
ENDMDL
MODEL 4
REMARK VINA RESULT:      -7.5      1.636      3.413
REMARK  4 active torsions:
REMARK  status: ('A' for Active; 'I' for Inactive)
REMARK    1  A    between atoms: C6_8  and  C7_9 
REMARK    2  A    between atoms: C7_9  and  C8_10 
REMARK    3  A    between atoms: C9_11  and  C10_12 
REMARK    4  A    between atoms: C10_12  and  N3_13 
ROOT
HETATM    1  C1  UNL     1      26.362   0.770  53.230  1.00  0.00     0.037 A 
HETATM    2  C2  UNL     1      26.741   0.073  54.455  1.00  0.00     0.011 A 
HETATM    3  C3  UNL     1      27.708   0.982  54.003  1.00  0.00     0.037 A 
HETATM    4  C4  UNL     1      27.684   1.916  52.780  1.00  0.00     0.091 C 
HETATM    5  N1  UNL     1      27.253   2.484  51.728  1.00  0.00    -0.284 NA
HETATM    6  C5  UNL     1      26.194   2.553  50.857  1.00  0.00     0.301 C 
HETATM    7  N2  UNL     1      24.848   2.904  51.259  1.00  0.00    -0.174 N 
HETATM    8  C6  UNL     1      23.688   3.631  51.433  1.00  0.00     0.309 A 
HETATM    9  C14 UNL     1      22.929   2.674  52.147  1.00  0.00     0.299 A 
HETATM   10  N5  UNL     1      24.046   2.115  51.919  1.00  0.00     0.086 N 
HETATM   11  C15 UNL     1      23.113   1.383  52.610  1.00  0.00     0.258 A 
HETATM   12  C16 UNL     1      23.209  -0.015  53.156  1.00  0.00     0.196 C 
HETATM   13  N6  UNL     1      24.206  -0.453  53.938  1.00  0.00    -0.302 NA
HETATM   14  C17 UNL     1      25.340  -0.536  54.455  1.00  0.00     0.094 C 
ENDROOT
BRANCH   8  15
HETATM   15  C7  UNL     1      23.440   4.884  51.012  1.00  0.00     0.041 C 
BRANCH  15  16
HETATM   16  C8  UNL     1      24.346   6.016  51.117  1.00  0.00    -0.002 C 
HETATM   17  C9  UNL     1      25.219   6.446  50.236  1.00  0.00    -0.007 C 
BRANCH  17  18
HETATM   18  C10 UNL     1      25.510   5.883  48.907  1.00  0.00     0.156 C 
BRANCH  18  19
HETATM   19  N3  UNL     1      26.950   5.845  48.651  1.00  0.00    -0.347 N 
HETATM   20  C11 UNL     1      27.705   6.950  48.389  1.00  0.00     0.111 A 
HETATM   21  C12 UNL     1      28.988   6.517  48.207  1.00  0.00     0.135 A 
HETATM   22  N4  UNL     1      29.046   5.187  48.344  1.00  0.00    -0.255 NA
HETATM   23  C13 UNL     1      27.789   4.794  48.617  1.00  0.00     0.209 A 
ENDBRANCH  18  19
ENDBRANCH  17  18
ENDBRANCH  15  16
ENDBRANCH   8  15
TORSDOF 4
ENDMDL
MODEL 5
REMARK VINA RESULT:      -7.4      1.659      2.045
REMARK  4 active torsions:
REMARK  status: ('A' for Active; 'I' for Inactive)
REMARK    1  A    between atoms: C6_8  and  C7_9 
REMARK    2  A    between atoms: C7_9  and  C8_10 
REMARK    3  A    between atoms: C9_11  and  C10_12 
REMARK    4  A    between atoms: C10_12  and  N3_13 
ROOT
HETATM    1  C1  UNL     1      22.986   0.991  52.367  1.00  0.00     0.037 A 
HETATM    2  C2  UNL     1      22.442  -0.304  52.762  1.00  0.00     0.011 A 
HETATM    3  C3  UNL     1      21.697   0.337  51.762  1.00  0.00     0.037 A 
HETATM    4  C4  UNL     1      21.944   1.687  51.066  1.00  0.00     0.091 C 
HETATM    5  N1  UNL     1      22.508   2.789  50.777  1.00  0.00    -0.284 NA
HETATM    6  C5  UNL     1      23.577   3.599  51.068  1.00  0.00     0.301 C 
HETATM    7  N2  UNL     1      24.957   3.181  50.937  1.00  0.00    -0.174 N 
HETATM    8  C6  UNL     1      26.240   3.058  50.441  1.00  0.00     0.309 A 
HETATM    9  C14 UNL     1      26.765   2.163  51.402  1.00  0.00     0.299 A 
HETATM   10  N5  UNL     1      25.562   2.364  51.753  1.00  0.00     0.086 N 
HETATM   11  C15 UNL     1      26.305   1.516  52.536  1.00  0.00     0.258 A 
HETATM   12  C16 UNL     1      25.906   0.765  53.777  1.00  0.00     0.196 C 
HETATM   13  N6  UNL     1      24.822  -0.019  53.869  1.00  0.00    -0.302 NA
HETATM   14  C17 UNL     1      23.685  -0.478  53.635  1.00  0.00     0.094 C 
ENDROOT
BRANCH   8  15
HETATM   15  C7  UNL     1      26.754   3.654  49.351  1.00  0.00     0.041 C 
BRANCH  15  16
HETATM   16  C8  UNL     1      26.610   5.056  48.995  1.00  0.00    -0.002 C 
HETATM   17  C9  UNL     1      27.522   5.876  48.525  1.00  0.00    -0.007 C 
BRANCH  17  18
HETATM   18  C10 UNL     1      28.936   5.581  48.238  1.00  0.00     0.156 C 
BRANCH  18  19
HETATM   19  N3  UNL     1      29.796   6.709  48.598  1.00  0.00    -0.347 N 
HETATM   20  C11 UNL     1      29.358   7.997  48.697  1.00  0.00     0.111 A 
HETATM   21  C12 UNL     1      30.439   8.754  49.050  1.00  0.00     0.135 A 
HETATM   22  N4  UNL     1      31.523   7.978  49.169  1.00  0.00    -0.255 NA
HETATM   23  C13 UNL     1      31.109   6.729  48.889  1.00  0.00     0.209 A 
ENDBRANCH  18  19
ENDBRANCH  17  18
ENDBRANCH  15  16
ENDBRANCH   8  15
TORSDOF 4
ENDMDL
MODEL 6
REMARK VINA RESULT:      -7.4      2.916      4.971
REMARK  4 active torsions:
REMARK  status: ('A' for Active; 'I' for Inactive)
REMARK    1  A    between atoms: C6_8  and  C7_9 
REMARK    2  A    between atoms: C7_9  and  C8_10 
REMARK    3  A    between atoms: C9_11  and  C10_12 
REMARK    4  A    between atoms: C10_12  and  N3_13 
ROOT
HETATM    1  C1  UNL     1      28.824   0.294  53.194  1.00  0.00     0.037 A 
HETATM    2  C2  UNL     1      29.922  -0.307  53.942  1.00  0.00     0.011 A 
HETATM    3  C3  UNL     1      29.860   1.088  54.061  1.00  0.00     0.037 A 
HETATM    4  C4  UNL     1      28.854   2.082  53.455  1.00  0.00     0.091 C 
HETATM    5  N1  UNL     1      27.856   2.506  52.790  1.00  0.00    -0.284 NA
HETATM    6  C5  UNL     1      26.805   2.119  51.996  1.00  0.00     0.301 C 
HETATM    7  N2  UNL     1      25.771   1.202  52.426  1.00  0.00    -0.174 N 
HETATM    8  C6  UNL     1      24.549   0.724  52.856  1.00  0.00     0.309 A 
HETATM    9  C14 UNL     1      24.869  -0.650  52.956  1.00  0.00     0.299 A 
HETATM   10  N5  UNL     1      25.934  -0.085  52.558  1.00  0.00     0.086 N 
HETATM   11  C15 UNL     1      25.981  -1.445  52.737  1.00  0.00     0.258 A 
HETATM   12  C16 UNL     1      27.127  -2.398  52.532  1.00  0.00     0.196 C 
HETATM   13  N6  UNL     1      28.347  -2.236  53.064  1.00  0.00    -0.302 NA
HETATM   14  C17 UNL     1      29.348  -1.668  53.549  1.00  0.00     0.094 C 
ENDROOT
BRANCH   8  15
HETATM   15  C7  UNL     1      23.432   1.435  53.088  1.00  0.00     0.041 C 
BRANCH  15  16
HETATM   16  C8  UNL     1      22.622   2.107  52.085  1.00  0.00    -0.002 C 
HETATM   17  C9  UNL     1      22.721   3.342  51.651  1.00  0.00    -0.007 C 
BRANCH  17  18
HETATM   18  C10 UNL     1      23.684   4.372  52.076  1.00  0.00     0.156 C 
BRANCH  18  19
HETATM   19  N3  UNL     1      23.343   5.680  51.515  1.00  0.00    -0.347 N 
HETATM   20  C11 UNL     1      22.079   6.050  51.163  1.00  0.00     0.111 A 
HETATM   21  C12 UNL     1      22.161   7.327  50.685  1.00  0.00     0.135 A 
HETATM   22  N4  UNL     1      23.429   7.752  50.729  1.00  0.00    -0.255 NA
HETATM   23  C13 UNL     1      24.138   6.730  51.240  1.00  0.00     0.209 A 
ENDBRANCH  18  19
ENDBRANCH  17  18
ENDBRANCH  15  16
ENDBRANCH   8  15
TORSDOF 4
ENDMDL
MODEL 7
REMARK VINA RESULT:      -7.2      2.298      2.857
REMARK  4 active torsions:
REMARK  status: ('A' for Active; 'I' for Inactive)
REMARK    1  A    between atoms: C6_8  and  C7_9 
REMARK    2  A    between atoms: C7_9  and  C8_10 
REMARK    3  A    between atoms: C9_11  and  C10_12 
REMARK    4  A    between atoms: C10_12  and  N3_13 
ROOT
HETATM    1  C1  UNL     1      23.649   0.397  53.486  1.00  0.00     0.037 A 
HETATM    2  C2  UNL     1      23.332  -0.913  54.042  1.00  0.00     0.011 A 
HETATM    3  C3  UNL     1      22.355  -0.425  53.163  1.00  0.00     0.037 A 
HETATM    4  C4  UNL     1      22.321   0.889  52.364  1.00  0.00     0.091 C 
HETATM    5  N1  UNL     1      22.699   2.019  51.918  1.00  0.00    -0.284 NA
HETATM    6  C5  UNL     1      23.704   2.952  51.964  1.00  0.00     0.301 C 
HETATM    7  N2  UNL     1      25.078   2.666  51.604  1.00  0.00    -0.174 N 
HETATM    8  C6  UNL     1      26.258   2.637  50.889  1.00  0.00     0.309 A 
HETATM    9  C14 UNL     1      27.042   1.871  51.783  1.00  0.00     0.299 A 
HETATM   10  N5  UNL     1      25.905   1.975  52.337  1.00  0.00     0.086 N 
HETATM   11  C15 UNL     1      26.865   1.265  53.014  1.00  0.00     0.258 A 
HETATM   12  C16 UNL     1      26.779   0.569  54.345  1.00  0.00     0.196 C 
HETATM   13  N6  UNL     1      25.823  -0.311  54.676  1.00  0.00    -0.302 NA
HETATM   14  C17 UNL     1      24.721  -0.898  54.680  1.00  0.00     0.094 C 
ENDROOT
BRANCH   8  15
HETATM   15  C7  UNL     1      26.501   3.202  49.693  1.00  0.00     0.041 C 
BRANCH  15  16
HETATM   16  C8  UNL     1      26.442   4.622  49.390  1.00  0.00    -0.002 C 
HETATM   17  C9  UNL     1      25.402   5.337  49.029  1.00  0.00    -0.007 C 
BRANCH  17  18
HETATM   18  C10 UNL     1      24.016   4.877  48.835  1.00  0.00     0.156 C 
BRANCH  18  19
HETATM   19  N3  UNL     1      23.072   5.713  49.578  1.00  0.00    -0.347 N 
HETATM   20  C11 UNL     1      23.320   7.005  49.937  1.00  0.00     0.111 A 
HETATM   21  C12 UNL     1      22.215   7.446  50.609  1.00  0.00     0.135 A 
HETATM   22  N4  UNL     1      21.300   6.472  50.676  1.00  0.00    -0.255 NA
HETATM   23  C13 UNL     1      21.843   5.419  50.038  1.00  0.00     0.209 A 
ENDBRANCH  18  19
ENDBRANCH  17  18
ENDBRANCH  15  16
ENDBRANCH   8  15
TORSDOF 4
ENDMDL
MODEL 8
REMARK VINA RESULT:      -7.1      3.983      5.975
REMARK  4 active torsions:
REMARK  status: ('A' for Active; 'I' for Inactive)
REMARK    1  A    between atoms: C6_8  and  C7_9 
REMARK    2  A    between atoms: C7_9  and  C8_10 
REMARK    3  A    between atoms: C9_11  and  C10_12 
REMARK    4  A    between atoms: C10_12  and  N3_13 
ROOT
HETATM    1  C1  UNL     1      19.401   0.522  52.661  1.00  0.00     0.037 A 
HETATM    2  C2  UNL     1      18.619  -0.699  52.506  1.00  0.00     0.011 A 
HETATM    3  C3  UNL     1      18.234   0.328  51.633  1.00  0.00     0.037 A 
HETATM    4  C4  UNL     1      18.812   1.745  51.468  1.00  0.00     0.091 C 
HETATM    5  N1  UNL     1      19.563   2.752  51.664  1.00  0.00    -0.284 NA
HETATM    6  C5  UNL     1      20.616   3.224  52.406  1.00  0.00     0.301 C 
HETATM    7  N2  UNL     1      21.923   2.600  52.428  1.00  0.00    -0.174 N 
HETATM    8  C6  UNL     1      23.263   2.374  52.187  1.00  0.00     0.309 A 
HETATM    9  C14 UNL     1      23.416   1.160  52.898  1.00  0.00     0.299 A 
HETATM   10  N5  UNL     1      22.198   1.485  53.046  1.00  0.00     0.086 N 
HETATM   11  C15 UNL     1      22.610   0.324  53.650  1.00  0.00     0.258 A 
HETATM   12  C16 UNL     1      21.823  -0.653  54.481  1.00  0.00     0.196 C 
HETATM   13  N6  UNL     1      20.662  -1.205  54.100  1.00  0.00    -0.302 NA
HETATM   14  C17 UNL     1      19.572  -1.349  53.509  1.00  0.00     0.094 C 
ENDROOT
BRANCH   8  15
HETATM   15  C7  UNL     1      24.103   3.140  51.471  1.00  0.00     0.041 C 
BRANCH  15  16
HETATM   16  C8  UNL     1      25.135   2.661  50.565  1.00  0.00    -0.002 C 
HETATM   17  C9  UNL     1      26.362   2.291  50.849  1.00  0.00    -0.007 C 
BRANCH  17  18
HETATM   18  C10 UNL     1      27.013   2.269  52.170  1.00  0.00     0.156 C 
BRANCH  18  19
HETATM   19  N3  UNL     1      26.987   0.925  52.751  1.00  0.00    -0.347 N 
HETATM   20  C11 UNL     1      26.736  -0.207  52.034  1.00  0.00     0.111 A 
HETATM   21  C12 UNL     1      26.797  -1.251  52.914  1.00  0.00     0.135 A 
HETATM   22  N4  UNL     1      27.074  -0.799  54.143  1.00  0.00    -0.255 NA
HETATM   23  C13 UNL     1      27.187   0.536  54.023  1.00  0.00     0.209 A 
ENDBRANCH  18  19
ENDBRANCH  17  18
ENDBRANCH  15  16
ENDBRANCH   8  15
TORSDOF 4
ENDMDL
MODEL 9
REMARK VINA RESULT:      -7.0      2.904      4.822
REMARK  4 active torsions:
REMARK  status: ('A' for Active; 'I' for Inactive)
REMARK    1  A    between atoms: C6_8  and  C7_9 
REMARK    2  A    between atoms: C7_9  and  C8_10 
REMARK    3  A    between atoms: C9_11  and  C10_12 
REMARK    4  A    between atoms: C10_12  and  N3_13 
ROOT
HETATM    1  C1  UNL     1      23.943   0.600  53.514  1.00  0.00     0.037 A 
HETATM    2  C2  UNL     1      23.909  -0.780  53.982  1.00  0.00     0.011 A 
HETATM    3  C3  UNL     1      22.700  -0.350  53.418  1.00  0.00     0.037 A 
HETATM    4  C4  UNL     1      22.336   1.010  52.797  1.00  0.00     0.091 C 
HETATM    5  N1  UNL     1      22.473   2.211  52.401  1.00  0.00    -0.284 NA
HETATM    6  C5  UNL     1      23.358   3.256  52.310  1.00  0.00     0.301 C 
HETATM    7  N2  UNL     1      24.622   3.176  51.607  1.00  0.00    -0.174 N 
HETATM    8  C6  UNL     1      25.585   3.353  50.634  1.00  0.00     0.309 A 
HETATM    9  C14 UNL     1      26.640   2.622  51.229  1.00  0.00     0.299 A 
HETATM   10  N5  UNL     1      25.671   2.537  52.044  1.00  0.00     0.086 N 
HETATM   11  C15 UNL     1      26.836   1.901  52.394  1.00  0.00     0.258 A 
HETATM   12  C16 UNL     1      27.154   1.095  53.623  1.00  0.00     0.196 C 
HETATM   13  N6  UNL     1      26.405   0.078  54.073  1.00  0.00    -0.302 NA
HETATM   14  C17 UNL     1      25.403  -0.642  54.272  1.00  0.00     0.094 C 
ENDROOT
BRANCH   8  15
HETATM   15  C7  UNL     1      25.466   4.039  49.484  1.00  0.00     0.041 C 
BRANCH  15  16
HETATM   16  C8  UNL     1      24.280   4.744  49.027  1.00  0.00    -0.002 C 
HETATM   17  C9  UNL     1      23.173   4.242  48.531  1.00  0.00    -0.007 C 
BRANCH  17  18
HETATM   18  C10 UNL     1      22.849   2.823  48.306  1.00  0.00     0.156 C 
BRANCH  18  19
HETATM   19  N3  UNL     1      21.594   2.455  48.965  1.00  0.00    -0.347 N 
HETATM   20  C11 UNL     1      21.167   1.170  49.123  1.00  0.00     0.111 A 
HETATM   21  C12 UNL     1      19.968   1.232  49.775  1.00  0.00     0.135 A 
HETATM   22  N4  UNL     1      19.644   2.507  50.020  1.00  0.00    -0.255 NA
HETATM   23  C13 UNL     1      20.652   3.241  49.517  1.00  0.00     0.209 A 
ENDBRANCH  18  19
ENDBRANCH  17  18
ENDBRANCH  15  16
ENDBRANCH   8  15
TORSDOF 4
ENDMDL
