MODEL 1
REMARK VINA RESULT:      -9.1      0.000      0.000
REMARK  4 active torsions:
REMARK  status: ('A' for Active; 'I' for Inactive)
REMARK    1  A    between atoms: C1_2  and  C2_3 
REMARK       I    between atoms: C1_2  and  N1_12 
REMARK    2  A    between atoms: C3_4  and  C4_5 
REMARK    3  A    between atoms: N1_12  and  C10_13 
REMARK    4  A    between atoms: C15_20  and  N4_21 
ROOT
HETATM    1  C10 UNL     1      23.376   1.894  51.207  1.00  0.00     0.036 A 
HETATM    2  C11 UNL     1      22.054   2.074  51.625  1.00  0.00     0.032 A 
HETATM    3  C12 UNL     1      21.549   1.391  52.737  1.00  0.00     0.035 A 
HETATM    4  C13 UNL     1      22.326   0.515  53.467  1.00  0.00     0.072 A 
HETATM    5  N2  UNL     1      21.936  -0.181  54.527  1.00  0.00    -0.241 NA
HETATM    6  C14 UNL     1      22.780  -1.028  55.178  1.00  0.00     0.236 A 
HETATM    7  N3  UNL     1      24.062  -1.164  54.725  1.00  0.00    -0.223 NA
HETATM    8  C15 UNL     1      24.507  -0.467  53.637  1.00  0.00     0.144 A 
HETATM    9  C21 UNL     1      23.620   0.378  53.011  1.00  0.00     0.041 A 
HETATM   10  C22 UNL     1      24.149   1.019  51.938  1.00  0.00     0.047 A 
ENDROOT
BRANCH   1  11
HETATM   11  N1  UNL     1      23.860   2.595  50.083  1.00  0.00    -0.324 N 
HETATM   12  C1  UNL     1      24.432   3.844  50.446  1.00  0.00     0.245 C 
HETATM   13  O1  UNL     1      24.395   4.079  51.680  1.00  0.00    -0.268 OA
HETATM   14  H7  UNL     1      23.846   2.314  49.078  1.00  0.00     0.169 HD
BRANCH  12  15
HETATM   15  C2  UNL     1      25.013   4.785  49.499  1.00  0.00     0.075 C 
HETATM   16  C3  UNL     1      26.264   5.211  49.500  1.00  0.00     0.017 C 
BRANCH  16  17
HETATM   17  C4  UNL     1      26.861   6.150  48.562  1.00  0.00    -0.036 A 
HETATM   18  C5  UNL     1      28.203   6.088  48.261  1.00  0.00     0.013 A 
HETATM   19  C6  UNL     1      28.755   6.985  47.370  1.00  0.00     0.024 A 
HETATM   20  C7  UNL     1      28.010   7.955  46.761  1.00  0.00     0.034 A 
HETATM   21 CL1  UNL     1      28.718   9.088  45.633  1.00  0.00    -0.084 Cl
HETATM   22  C8  UNL     1      26.657   8.041  47.045  1.00  0.00     0.024 A 
HETATM   23  C9  UNL     1      26.132   7.137  47.935  1.00  0.00     0.013 A 
ENDBRANCH  16  17
ENDBRANCH  12  15
ENDBRANCH   1  11
BRANCH   8  24
HETATM   24  N4  UNL     1      25.876  -0.757  53.391  1.00  0.00    -0.336 N 
HETATM   25  C16 UNL     1      26.650   0.334  53.912  1.00  0.00     0.112 A 
HETATM   26  C17 UNL     1      27.991   0.416  53.887  1.00  0.00     0.026 A 
HETATM   27 BR1  UNL     1      29.066   1.833  54.561  1.00  0.00    -0.050 Br
HETATM   28  C18 UNL     1      28.765  -0.686  53.276  1.00  0.00     0.018 A 
HETATM   29  C19 UNL     1      27.990  -1.652  52.810  1.00  0.00    -0.005 A 
HETATM   30  C20 UNL     1      26.531  -1.885  52.759  1.00  0.00     0.157 A 
ENDBRANCH   8  24
TORSDOF 4
ENDMDL
MODEL 2
REMARK VINA RESULT:      -9.1      1.750      2.441
REMARK  4 active torsions:
REMARK  status: ('A' for Active; 'I' for Inactive)
REMARK    1  A    between atoms: C1_2  and  C2_3 
REMARK       I    between atoms: C1_2  and  N1_12 
REMARK    2  A    between atoms: C3_4  and  C4_5 
REMARK    3  A    between atoms: N1_12  and  C10_13 
REMARK    4  A    between atoms: C15_20  and  N4_21 
ROOT
HETATM    1  C10 UNL     1      24.421   3.770  51.290  1.00  0.00     0.036 A 
HETATM    2  C11 UNL     1      23.043   3.609  51.120  1.00  0.00     0.032 A 
HETATM    3  C12 UNL     1      22.375   2.499  51.647  1.00  0.00     0.035 A 
HETATM    4  C13 UNL     1      23.041   1.518  52.354  1.00  0.00     0.072 A 
HETATM    5  N2  UNL     1      22.498   0.429  52.883  1.00  0.00    -0.241 NA
HETATM    6  C14 UNL     1      23.244  -0.487  53.559  1.00  0.00     0.236 A 
HETATM    7  N3  UNL     1      24.587  -0.278  53.695  1.00  0.00    -0.223 NA
HETATM    8  C15 UNL     1      25.189   0.830  53.166  1.00  0.00     0.144 A 
HETATM    9  C21 UNL     1      24.396   1.728  52.491  1.00  0.00     0.041 A 
HETATM   10  C22 UNL     1      25.083   2.790  51.996  1.00  0.00     0.047 A 
ENDROOT
BRANCH   1  11
HETATM   11  N1  UNL     1      25.070   4.899  50.749  1.00  0.00    -0.324 N 
HETATM   12  C1  UNL     1      25.888   4.556  49.638  1.00  0.00     0.245 C 
HETATM   13  O1  UNL     1      25.876   3.331  49.359  1.00  0.00    -0.268 OA
HETATM   14  H7  UNL     1      25.018   5.896  51.054  1.00  0.00     0.169 HD
BRANCH  12  15
HETATM   15  C2  UNL     1      26.680   5.512  48.878  1.00  0.00     0.075 C 
HETATM   16  C3  UNL     1      27.960   5.388  48.573  1.00  0.00     0.017 C 
BRANCH  16  17
HETATM   17  C4  UNL     1      28.766   6.332  47.814  1.00  0.00    -0.036 A 
HETATM   18  C5  UNL     1      28.180   7.397  47.167  1.00  0.00     0.013 A 
HETATM   19  C6  UNL     1      28.956   8.285  46.451  1.00  0.00     0.024 A 
HETATM   20  C7  UNL     1      30.312   8.149  46.355  1.00  0.00     0.034 A 
HETATM   21 CL1  UNL     1      31.288   9.279  45.446  1.00  0.00    -0.084 Cl
HETATM   22  C8  UNL     1      30.928   7.088  46.996  1.00  0.00     0.024 A 
HETATM   23  C9  UNL     1      30.134   6.219  47.701  1.00  0.00     0.013 A 
ENDBRANCH  16  17
ENDBRANCH  12  15
ENDBRANCH   1  11
BRANCH   8  24
HETATM   24  N4  UNL     1      26.577   0.830  53.471  1.00  0.00    -0.336 N 
HETATM   25  C16 UNL     1      27.068  -0.501  53.252  1.00  0.00     0.112 A 
HETATM   26  C17 UNL     1      28.343  -0.893  53.413  1.00  0.00     0.026 A 
HETATM   27 BR1  UNL     1      29.050  -2.637  53.137  1.00  0.00    -0.050 Br
HETATM   28  C18 UNL     1      29.347   0.097  53.857  1.00  0.00     0.018 A 
HETATM   29  C19 UNL     1      28.826   1.298  54.048  1.00  0.00    -0.005 A 
HETATM   30  C20 UNL     1      27.472   1.878  53.920  1.00  0.00     0.157 A 
ENDBRANCH   8  24
TORSDOF 4
ENDMDL
MODEL 3
REMARK VINA RESULT:      -8.8      2.984      5.057
REMARK  4 active torsions:
REMARK  status: ('A' for Active; 'I' for Inactive)
REMARK    1  A    between atoms: C1_2  and  C2_3 
REMARK       I    between atoms: C1_2  and  N1_12 
REMARK    2  A    between atoms: C3_4  and  C4_5 
REMARK    3  A    between atoms: N1_12  and  C10_13 
REMARK    4  A    between atoms: C15_20  and  N4_21 
ROOT
HETATM    1  C10 UNL     1      24.601   2.071  52.786  1.00  0.00     0.036 A 
HETATM    2  C11 UNL     1      25.368   1.065  53.382  1.00  0.00     0.032 A 
HETATM    3  C12 UNL     1      24.772  -0.099  53.878  1.00  0.00     0.035 A 
HETATM    4  C13 UNL     1      23.409  -0.307  53.802  1.00  0.00     0.072 A 
HETATM    5  N2  UNL     1      22.754  -1.371  54.249  1.00  0.00    -0.241 NA
HETATM    6  C14 UNL     1      21.402  -1.479  54.133  1.00  0.00     0.236 A 
HETATM    7  N3  UNL     1      20.704  -0.465  53.541  1.00  0.00    -0.223 NA
HETATM    8  C15 UNL     1      21.337   0.649  53.067  1.00  0.00     0.144 A 
HETATM    9  C21 UNL     1      22.704   0.716  53.205  1.00  0.00     0.041 A 
HETATM   10  C22 UNL     1      23.242   1.861  52.712  1.00  0.00     0.047 A 
ENDROOT
BRANCH   1  11
HETATM   11  N1  UNL     1      25.227   3.235  52.294  1.00  0.00    -0.324 N 
HETATM   12  C1  UNL     1      25.112   3.340  50.882  1.00  0.00     0.245 C 
HETATM   13  O1  UNL     1      24.485   2.388  50.352  1.00  0.00    -0.268 OA
HETATM   14  H7  UNL     1      25.733   3.981  52.820  1.00  0.00     0.169 HD
BRANCH  12  15
HETATM   15  C2  UNL     1      25.660   4.434  50.094  1.00  0.00     0.075 C 
HETATM   16  C3  UNL     1      26.802   4.413  49.428  1.00  0.00     0.017 C 
BRANCH  16  17
HETATM   17  C4  UNL     1      27.365   5.496  48.636  1.00  0.00    -0.036 A 
HETATM   18  C5  UNL     1      28.697   5.493  48.287  1.00  0.00     0.013 A 
HETATM   19  C6  UNL     1      29.217   6.527  47.535  1.00  0.00     0.024 A 
HETATM   20  C7  UNL     1      28.450   7.576  47.115  1.00  0.00     0.034 A 
HETATM   21 CL1  UNL     1      29.118   8.882  46.163  1.00  0.00    -0.084 Cl
HETATM   22  C8  UNL     1      27.107   7.605  47.452  1.00  0.00     0.024 A 
HETATM   23  C9  UNL     1      26.614   6.565  48.200  1.00  0.00     0.013 A 
ENDBRANCH  16  17
ENDBRANCH  12  15
ENDBRANCH   1  11
BRANCH   8  24
HETATM   24  N4  UNL     1      20.399   1.534  52.471  1.00  0.00    -0.336 N 
HETATM   25  C16 UNL     1      19.477   0.739  51.710  1.00  0.00     0.112 A 
HETATM   26  C17 UNL     1      18.429   1.217  51.018  1.00  0.00     0.026 A 
HETATM   27 BR1  UNL     1      17.177   0.214  49.995  1.00  0.00    -0.050 Br
HETATM   28  C18 UNL     1      18.179   2.674  51.010  1.00  0.00     0.018 A 
HETATM   29  C19 UNL     1      19.069   3.345  51.723  1.00  0.00    -0.005 A 
HETATM   30  C20 UNL     1      20.255   2.976  52.524  1.00  0.00     0.157 A 
ENDBRANCH   8  24
TORSDOF 4
ENDMDL
MODEL 4
REMARK VINA RESULT:      -8.7      2.024      2.570
REMARK  4 active torsions:
REMARK  status: ('A' for Active; 'I' for Inactive)
REMARK    1  A    between atoms: C1_2  and  C2_3 
REMARK       I    between atoms: C1_2  and  N1_12 
REMARK    2  A    between atoms: C3_4  and  C4_5 
REMARK    3  A    between atoms: N1_12  and  C10_13 
REMARK    4  A    between atoms: C15_20  and  N4_21 
ROOT
HETATM    1  C10 UNL     1      22.578   0.810  51.650  1.00  0.00     0.036 A 
HETATM    2  C11 UNL     1      21.448   0.114  52.088  1.00  0.00     0.032 A 
HETATM    3  C12 UNL     1      21.482  -0.656  53.255  1.00  0.00     0.035 A 
HETATM    4  C13 UNL     1      22.624  -0.764  54.023  1.00  0.00     0.072 A 
HETATM    5  N2  UNL     1      22.755  -1.472  55.136  1.00  0.00    -0.241 NA
HETATM    6  C14 UNL     1      23.931  -1.521  55.821  1.00  0.00     0.236 A 
HETATM    7  N3  UNL     1      25.003  -0.820  55.346  1.00  0.00    -0.223 NA
HETATM    8  C15 UNL     1      24.914  -0.076  54.202  1.00  0.00     0.144 A 
HETATM    9  C21 UNL     1      23.706  -0.057  53.544  1.00  0.00     0.041 A 
HETATM   10  C22 UNL     1      23.717   0.701  52.418  1.00  0.00     0.047 A 
ENDROOT
BRANCH   1  11
HETATM   11  N1  UNL     1      22.518   1.580  50.469  1.00  0.00    -0.324 N 
HETATM   12  C1  UNL     1      22.839   2.943  50.710  1.00  0.00     0.245 C 
HETATM   13  O1  UNL     1      23.109   3.195  51.912  1.00  0.00    -0.268 OA
HETATM   14  H7  UNL     1      22.279   1.277  49.500  1.00  0.00     0.169 HD
BRANCH  12  15
HETATM   15  C2  UNL     1      22.859   3.974  49.684  1.00  0.00     0.075 C 
HETATM   16  C3  UNL     1      23.867   4.789  49.424  1.00  0.00     0.017 C 
BRANCH  16  17
HETATM   17  C4  UNL     1      23.904   5.824  48.402  1.00  0.00    -0.036 A 
HETATM   18  C5  UNL     1      24.965   6.698  48.324  1.00  0.00     0.013 A 
HETATM   19  C6  UNL     1      24.987   7.675  47.350  1.00  0.00     0.024 A 
HETATM   20  C7  UNL     1      23.978   7.816  46.441  1.00  0.00     0.034 A 
HETATM   21 CL1  UNL     1      24.014   9.057  45.210  1.00  0.00    -0.084 Cl
HETATM   22  C8  UNL     1      22.898   6.951  46.496  1.00  0.00     0.024 A 
HETATM   23  C9  UNL     1      22.900   5.988  47.474  1.00  0.00     0.013 A 
ENDBRANCH  16  17
ENDBRANCH  12  15
ENDBRANCH   1  11
BRANCH   8  24
HETATM   24  N4  UNL     1      26.148   0.579  53.942  1.00  0.00    -0.336 N 
HETATM   25  C16 UNL     1      27.168  -0.429  53.882  1.00  0.00     0.112 A 
HETATM   26  C17 UNL     1      28.468  -0.203  53.632  1.00  0.00     0.026 A 
HETATM   27 BR1  UNL     1      29.861  -1.495  53.539  1.00  0.00    -0.050 Br
HETATM   28  C18 UNL     1      28.923   1.185  53.402  1.00  0.00     0.018 A 
HETATM   29  C19 UNL     1      27.935   2.062  53.480  1.00  0.00    -0.005 A 
HETATM   30  C20 UNL     1      26.483   1.975  53.743  1.00  0.00     0.157 A 
ENDBRANCH   8  24
TORSDOF 4
ENDMDL
MODEL 5
REMARK VINA RESULT:      -8.5      4.635      8.416
REMARK  4 active torsions:
REMARK  status: ('A' for Active; 'I' for Inactive)
REMARK    1  A    between atoms: C1_2  and  C2_3 
REMARK       I    between atoms: C1_2  and  N1_12 
REMARK    2  A    between atoms: C3_4  and  C4_5 
REMARK    3  A    between atoms: N1_12  and  C10_13 
REMARK    4  A    between atoms: C15_20  and  N4_21 
ROOT
HETATM    1  C10 UNL     1      24.366  -0.334  53.543  1.00  0.00     0.036 A 
HETATM    2  C11 UNL     1      25.077  -0.846  54.632  1.00  0.00     0.032 A 
HETATM    3  C12 UNL     1      26.343  -0.351  54.964  1.00  0.00     0.035 A 
HETATM    4  C13 UNL     1      26.943   0.658  54.238  1.00  0.00     0.072 A 
HETATM    5  N2  UNL     1      28.138   1.186  54.470  1.00  0.00    -0.241 NA
HETATM    6  C14 UNL     1      28.647   2.177  53.688  1.00  0.00     0.236 A 
HETATM    7  N3  UNL     1      27.906   2.638  52.636  1.00  0.00    -0.223 NA
HETATM    8  C15 UNL     1      26.670   2.124  52.360  1.00  0.00     0.144 A 
HETATM    9  C21 UNL     1      26.196   1.124  53.177  1.00  0.00     0.041 A 
HETATM   10  C22 UNL     1      24.967   0.672  52.820  1.00  0.00     0.047 A 
ENDROOT
BRANCH   1  11
HETATM   11  N1  UNL     1      23.091  -0.851  53.230  1.00  0.00    -0.324 N 
HETATM   12  C1  UNL     1      22.104   0.170  53.183  1.00  0.00     0.245 C 
HETATM   13  O1  UNL     1      22.552   1.319  53.428  1.00  0.00    -0.268 OA
HETATM   14  H7  UNL     1      22.811  -1.838  53.040  1.00  0.00     0.169 HD
BRANCH  12  15
HETATM   15  C2  UNL     1      20.699  -0.062  52.885  1.00  0.00     0.075 C 
HETATM   16  C3  UNL     1      20.097   0.202  51.738  1.00  0.00     0.017 C 
BRANCH  16  17
HETATM   17  C4  UNL     1      18.694  -0.023  51.423  1.00  0.00    -0.036 A 
HETATM   18  C5  UNL     1      18.147   0.467  50.258  1.00  0.00     0.013 A 
HETATM   19  C6  UNL     1      16.816   0.246  49.972  1.00  0.00     0.024 A 
HETATM   20  C7  UNL     1      15.999  -0.453  50.815  1.00  0.00     0.034 A 
HETATM   21 CL1  UNL     1      14.312  -0.728  50.444  1.00  0.00    -0.084 Cl
HETATM   22  C8  UNL     1      16.522  -0.957  51.994  1.00  0.00     0.024 A 
HETATM   23  C9  UNL     1      17.849  -0.724  52.255  1.00  0.00     0.013 A 
ENDBRANCH  16  17
ENDBRANCH  12  15
ENDBRANCH   1  11
BRANCH   8  24
HETATM   24  N4  UNL     1      26.096   2.792  51.245  1.00  0.00    -0.336 N 
HETATM   25  C16 UNL     1      24.868   3.391  51.686  1.00  0.00     0.112 A 
HETATM   26  C17 UNL     1      24.047   4.129  50.920  1.00  0.00     0.026 A 
HETATM   27 BR1  UNL     1      22.413   4.947  51.449  1.00  0.00    -0.050 Br
HETATM   28  C18 UNL     1      24.400   4.357  49.503  1.00  0.00     0.018 A 
HETATM   29  C19 UNL     1      25.536   3.770  49.162  1.00  0.00    -0.005 A 
HETATM   30  C20 UNL     1      26.534   2.940  49.872  1.00  0.00     0.157 A 
ENDBRANCH   8  24
TORSDOF 4
ENDMDL
MODEL 6
REMARK VINA RESULT:      -8.5      2.639      3.985
REMARK  4 active torsions:
REMARK  status: ('A' for Active; 'I' for Inactive)
REMARK    1  A    between atoms: C1_2  and  C2_3 
REMARK       I    between atoms: C1_2  and  N1_12 
REMARK    2  A    between atoms: C3_4  and  C4_5 
REMARK    3  A    between atoms: N1_12  and  C10_13 
REMARK    4  A    between atoms: C15_20  and  N4_21 
ROOT
HETATM    1  C10 UNL     1      24.023   5.529  50.980  1.00  0.00     0.036 A 
HETATM    2  C11 UNL     1      22.891   6.338  50.849  1.00  0.00     0.032 A 
HETATM    3  C12 UNL     1      21.619   5.858  51.180  1.00  0.00     0.035 A 
HETATM    4  C13 UNL     1      21.426   4.575  51.649  1.00  0.00     0.072 A 
HETATM    5  N2  UNL     1      20.263   4.029  51.982  1.00  0.00    -0.241 NA
HETATM    6  C14 UNL     1      20.175   2.747  52.430  1.00  0.00     0.236 A 
HETATM    7  N3  UNL     1      21.316   2.003  52.538  1.00  0.00    -0.223 NA
HETATM    8  C15 UNL     1      22.536   2.524  52.207  1.00  0.00     0.144 A 
HETATM    9  C21 UNL     1      22.576   3.824  51.759  1.00  0.00     0.041 A 
HETATM   10  C22 UNL     1      23.828   4.249  51.448  1.00  0.00     0.047 A 
ENDROOT
BRANCH   1  11
HETATM   11  N1  UNL     1      25.294   6.038  50.638  1.00  0.00    -0.324 N 
HETATM   12  C1  UNL     1      25.555   5.916  49.246  1.00  0.00     0.245 C 
HETATM   13  O1  UNL     1      24.617   5.385  48.600  1.00  0.00    -0.268 OA
HETATM   14  H7  UNL     1      26.017   6.467  51.256  1.00  0.00     0.169 HD
BRANCH  12  15
HETATM   15  C2  UNL     1      26.784   6.353  48.602  1.00  0.00     0.075 C 
HETATM   16  C3  UNL     1      27.910   5.664  48.534  1.00  0.00     0.017 C 
BRANCH  16  17
HETATM   17  C4  UNL     1      29.147   6.085  47.894  1.00  0.00    -0.036 A 
HETATM   18  C5  UNL     1      29.206   7.262  47.183  1.00  0.00     0.013 A 
HETATM   19  C6  UNL     1      30.386   7.650  46.582  1.00  0.00     0.024 A 
HETATM   20  C7  UNL     1      31.523   6.898  46.663  1.00  0.00     0.034 A 
HETATM   21 CL1  UNL     1      33.015   7.396  45.899  1.00  0.00    -0.084 Cl
HETATM   22  C8  UNL     1      31.493   5.708  47.373  1.00  0.00     0.024 A 
HETATM   23  C9  UNL     1      30.308   5.346  47.961  1.00  0.00     0.013 A 
ENDBRANCH  16  17
ENDBRANCH  12  15
ENDBRANCH   1  11
BRANCH   8  24
HETATM   24  N4  UNL     1      23.560   1.567  52.439  1.00  0.00    -0.336 N 
HETATM   25  C16 UNL     1      23.105   0.690  53.481  1.00  0.00     0.112 A 
HETATM   26  C17 UNL     1      23.790  -0.360  53.965  1.00  0.00     0.026 A 
HETATM   27 BR1  UNL     1      23.239  -1.552  55.340  1.00  0.00    -0.050 Br
HETATM   28  C18 UNL     1      25.126  -0.662  53.409  1.00  0.00     0.018 A 
HETATM   29  C19 UNL     1      25.485   0.188  52.461  1.00  0.00    -0.005 A 
HETATM   30  C20 UNL     1      24.860   1.370  51.830  1.00  0.00     0.157 A 
ENDBRANCH   8  24
TORSDOF 4
ENDMDL
MODEL 7
REMARK VINA RESULT:      -8.4      6.433     10.894
REMARK  4 active torsions:
REMARK  status: ('A' for Active; 'I' for Inactive)
REMARK    1  A    between atoms: C1_2  and  C2_3 
REMARK       I    between atoms: C1_2  and  N1_12 
REMARK    2  A    between atoms: C3_4  and  C4_5 
REMARK    3  A    between atoms: N1_12  and  C10_13 
REMARK    4  A    between atoms: C15_20  and  N4_21 
ROOT
HETATM    1  C10 UNL     1      30.606   7.220  48.634  1.00  0.00     0.036 A 
HETATM    2  C11 UNL     1      30.317   8.569  48.858  1.00  0.00     0.032 A 
HETATM    3  C12 UNL     1      31.151   9.578  48.366  1.00  0.00     0.035 A 
HETATM    4  C13 UNL     1      32.290   9.290  47.641  1.00  0.00     0.072 A 
HETATM    5  N2  UNL     1      33.144  10.174  47.141  1.00  0.00    -0.241 NA
HETATM    6  C14 UNL     1      34.248   9.788  46.444  1.00  0.00     0.236 A 
HETATM    7  N3  UNL     1      34.480   8.455  46.255  1.00  0.00    -0.223 NA
HETATM    8  C15 UNL     1      33.627   7.510  46.752  1.00  0.00     0.144 A 
HETATM    9  C21 UNL     1      32.525   7.946  47.450  1.00  0.00     0.041 A 
HETATM   10  C22 UNL     1      31.743   6.936  47.911  1.00  0.00     0.047 A 
ENDROOT
BRANCH   1  11
HETATM   11  N1  UNL     1      29.748   6.222  49.142  1.00  0.00    -0.324 N 
HETATM   12  C1  UNL     1      28.611   6.030  48.310  1.00  0.00     0.245 C 
HETATM   13  O1  UNL     1      28.591   6.777  47.300  1.00  0.00    -0.268 OA
HETATM   14  H7  UNL     1      29.850   5.646  50.005  1.00  0.00     0.169 HD
BRANCH  12  15
HETATM   15  C2  UNL     1      27.552   5.069  48.579  1.00  0.00     0.075 C 
HETATM   16  C3  UNL     1      26.407   5.328  49.186  1.00  0.00     0.017 C 
BRANCH  16  17
HETATM   17  C4  UNL     1      25.338   4.380  49.463  1.00  0.00    -0.036 A 
HETATM   18  C5  UNL     1      25.522   3.356  50.365  1.00  0.00     0.013 A 
HETATM   19  C6  UNL     1      24.500   2.465  50.618  1.00  0.00     0.024 A 
HETATM   20  C7  UNL     1      23.287   2.556  49.997  1.00  0.00     0.034 A 
HETATM   21 CL1  UNL     1      21.997   1.422  50.324  1.00  0.00    -0.084 Cl
HETATM   22  C8  UNL     1      23.074   3.576  49.085  1.00  0.00     0.024 A 
HETATM   23  C9  UNL     1      24.106   4.450  48.851  1.00  0.00     0.013 A 
ENDBRANCH  16  17
ENDBRANCH  12  15
ENDBRANCH   1  11
BRANCH   8  24
HETATM   24  N4  UNL     1      34.071   6.208  46.395  1.00  0.00    -0.336 N 
HETATM   25  C16 UNL     1      33.834   6.042  44.988  1.00  0.00     0.112 A 
HETATM   26  C17 UNL     1      34.142   4.947  44.274  1.00  0.00     0.026 A 
HETATM   27 BR1  UNL     1      33.854   4.672  42.414  1.00  0.00    -0.050 Br
HETATM   28  C18 UNL     1      34.770   3.797  44.959  1.00  0.00     0.018 A 
HETATM   29  C19 UNL     1      34.951   4.014  46.252  1.00  0.00    -0.005 A 
HETATM   30  C20 UNL     1      34.671   5.140  47.169  1.00  0.00     0.157 A 
ENDBRANCH   8  24
TORSDOF 4
ENDMDL
MODEL 8
REMARK VINA RESULT:      -8.4      2.905      4.799
REMARK  4 active torsions:
REMARK  status: ('A' for Active; 'I' for Inactive)
REMARK    1  A    between atoms: C1_2  and  C2_3 
REMARK       I    between atoms: C1_2  and  N1_12 
REMARK    2  A    between atoms: C3_4  and  C4_5 
REMARK    3  A    between atoms: N1_12  and  C10_13 
REMARK    4  A    between atoms: C15_20  and  N4_21 
ROOT
HETATM    1  C10 UNL     1      25.114   2.712  51.850  1.00  0.00     0.036 A 
HETATM    2  C11 UNL     1      25.825   2.087  52.879  1.00  0.00     0.032 A 
HETATM    3  C12 UNL     1      25.307   0.969  53.539  1.00  0.00     0.035 A 
HETATM    4  C13 UNL     1      24.078   0.433  53.209  1.00  0.00     0.072 A 
HETATM    5  N2  UNL     1      23.502  -0.616  53.780  1.00  0.00    -0.241 NA
HETATM    6  C14 UNL     1      22.279  -1.065  53.385  1.00  0.00     0.236 A 
HETATM    7  N3  UNL     1      21.629  -0.415  52.373  1.00  0.00    -0.223 NA
HETATM    8  C15 UNL     1      22.185   0.670  51.756  1.00  0.00     0.144 A 
HETATM    9  C21 UNL     1      23.423   1.088  52.188  1.00  0.00     0.041 A 
HETATM   10  C22 UNL     1      23.889   2.175  51.522  1.00  0.00     0.047 A 
ENDROOT
BRANCH   1  11
HETATM   11  N1  UNL     1      25.660   3.838  51.200  1.00  0.00    -0.324 N 
HETATM   12  C1  UNL     1      26.425   3.471  50.060  1.00  0.00     0.245 C 
HETATM   13  O1  UNL     1      26.467   2.231  49.856  1.00  0.00    -0.268 OA
HETATM   14  H7  UNL     1      25.569   4.848  51.448  1.00  0.00     0.169 HD
BRANCH  12  15
HETATM   15  C2  UNL     1      27.109   4.418  49.192  1.00  0.00     0.075 C 
HETATM   16  C3  UNL     1      26.704   5.645  48.915  1.00  0.00     0.017 C 
BRANCH  16  17
HETATM   17  C4  UNL     1      27.374   6.605  48.050  1.00  0.00    -0.036 A 
HETATM   18  C5  UNL     1      28.724   6.500  47.796  1.00  0.00     0.013 A 
HETATM   19  C6  UNL     1      29.346   7.417  46.974  1.00  0.00     0.024 A 
HETATM   20  C7  UNL     1      28.666   8.447  46.389  1.00  0.00     0.034 A 
HETATM   21 CL1  UNL     1      29.463   9.604  45.349  1.00  0.00    -0.084 Cl
HETATM   22  C8  UNL     1      27.308   8.577  46.627  1.00  0.00     0.024 A 
HETATM   23  C9  UNL     1      26.712   7.652  47.448  1.00  0.00     0.013 A 
ENDBRANCH  16  17
ENDBRANCH  12  15
ENDBRANCH   1  11
BRANCH   8  24
HETATM   24  N4  UNL     1      21.332   1.141  50.722  1.00  0.00    -0.336 N 
HETATM   25  C16 UNL     1      20.221   1.803  51.346  1.00  0.00     0.112 A 
HETATM   26  C17 UNL     1      19.209   2.401  50.695  1.00  0.00     0.026 A 
HETATM   27 BR1  UNL     1      17.716   3.291  51.467  1.00  0.00    -0.050 Br
HETATM   28  C18 UNL     1      19.202   2.389  49.217  1.00  0.00     0.018 A 
HETATM   29  C19 UNL     1      20.247   1.757  48.709  1.00  0.00    -0.005 A 
HETATM   30  C20 UNL     1      21.421   1.059  49.278  1.00  0.00     0.157 A 
ENDBRANCH   8  24
TORSDOF 4
ENDMDL
MODEL 9
REMARK VINA RESULT:      -8.3      6.465      9.753
REMARK  4 active torsions:
REMARK  status: ('A' for Active; 'I' for Inactive)
REMARK    1  A    between atoms: C1_2  and  C2_3 
REMARK       I    between atoms: C1_2  and  N1_12 
REMARK    2  A    between atoms: C3_4  and  C4_5 
REMARK    3  A    between atoms: N1_12  and  C10_13 
REMARK    4  A    between atoms: C15_20  and  N4_21 
ROOT
HETATM    1  C10 UNL     1      18.122  -1.400  53.394  1.00  0.00     0.036 A 
HETATM    2  C11 UNL     1      17.847  -2.766  53.508  1.00  0.00     0.032 A 
HETATM    3  C12 UNL     1      16.625  -3.295  53.082  1.00  0.00     0.035 A 
HETATM    4  C13 UNL     1      15.640  -2.499  52.532  1.00  0.00     0.072 A 
HETATM    5  N2  UNL     1      14.451  -2.906  52.107  1.00  0.00    -0.241 NA
HETATM    6  C14 UNL     1      13.542  -2.037  51.584  1.00  0.00     0.236 A 
HETATM    7  N3  UNL     1      13.865  -0.713  51.496  1.00  0.00    -0.223 NA
HETATM    8  C15 UNL     1      15.078  -0.249  51.922  1.00  0.00     0.144 A 
HETATM    9  C21 UNL     1      15.965  -1.162  52.443  1.00  0.00     0.041 A 
HETATM   10  C22 UNL     1      17.138  -0.608  52.845  1.00  0.00     0.047 A 
ENDROOT
BRANCH   1  11
HETATM   11  N1  UNL     1      19.363  -0.893  53.833  1.00  0.00    -0.324 N 
HETATM   12  C1  UNL     1      20.036  -0.183  52.802  1.00  0.00     0.245 C 
HETATM   13  O1  UNL     1      19.406  -0.147  51.715  1.00  0.00    -0.268 OA
HETATM   14  H7  UNL     1      19.811  -0.975  54.771  1.00  0.00     0.169 HD
BRANCH  12  15
HETATM   15  C2  UNL     1      21.337   0.452  52.959  1.00  0.00     0.075 C 
HETATM   16  C3  UNL     1      22.501  -0.172  53.015  1.00  0.00     0.017 C 
BRANCH  16  17
HETATM   17  C4  UNL     1      23.809   0.446  53.172  1.00  0.00    -0.036 A 
HETATM   18  C5  UNL     1      23.963   1.808  53.048  1.00  0.00     0.013 A 
HETATM   19  C6  UNL     1      25.209   2.381  53.199  1.00  0.00     0.024 A 
HETATM   20  C7  UNL     1      26.321   1.637  53.472  1.00  0.00     0.034 A 
HETATM   21 CL1  UNL     1      27.897   2.370  53.663  1.00  0.00    -0.084 Cl
HETATM   22  C8  UNL     1      26.196   0.263  53.602  1.00  0.00     0.024 A 
HETATM   23  C9  UNL     1      24.946  -0.281  53.448  1.00  0.00     0.013 A 
ENDBRANCH  16  17
ENDBRANCH  12  15
ENDBRANCH   1  11
BRANCH   8  24
HETATM   24  N4  UNL     1      15.180   1.149  51.694  1.00  0.00    -0.336 N 
HETATM   25  C16 UNL     1      14.272   1.802  52.594  1.00  0.00     0.112 A 
HETATM   26  C17 UNL     1      14.098   3.130  52.693  1.00  0.00     0.026 A 
HETATM   27 BR1  UNL     1      12.913   4.048  53.864  1.00  0.00    -0.050 Br
HETATM   28  C18 UNL     1      14.884   4.023  51.815  1.00  0.00     0.018 A 
HETATM   29  C19 UNL     1      15.693   3.357  51.007  1.00  0.00    -0.005 A 
HETATM   30  C20 UNL     1      15.992   1.927  50.779  1.00  0.00     0.157 A 
ENDBRANCH   8  24
TORSDOF 4
ENDMDL
