MODEL 1
REMARK VINA RESULT:      -7.8      0.000      0.000
REMARK  4 active torsions:
REMARK  status: ('A' for Active; 'I' for Inactive)
REMARK    1  A    between atoms: C3_3  and  C4_4 
REMARK       I    between atoms: C4_4  and  N1_6 
REMARK    2  A    between atoms: C8_10  and  S1_11 
REMARK    3  A    between atoms: C11_17  and  N4_18 
REMARK    4  A    between atoms: N4_18  and  C12_19 
ROOT
HETATM    1  C1  UNL     1      30.394   6.107  47.603  1.00  0.00     0.112 C 
HETATM    2  C2  UNL     1      29.148   5.551  48.131  1.00  0.00    -0.101 C 
HETATM    3  C3  UNL     1      28.110   5.100  48.583  1.00  0.00    -0.006 C 
ENDROOT
BRANCH   3   4
HETATM    4  C4  UNL     1      26.872   4.586  49.129  1.00  0.00     0.298 C 
HETATM    5  O1  UNL     1      26.900   3.327  49.347  1.00  0.00    -0.258 OA
HETATM    6  N1  UNL     1      25.848   5.561  49.327  1.00  0.00    -0.336 N 
HETATM    7  C5  UNL     1      25.986   6.988  49.020  1.00  0.00     0.131 C 
HETATM    8  C20 UNL     1      24.536   5.196  49.872  1.00  0.00     0.173 C 
HETATM    9  C6  UNL     1      25.077   7.279  47.837  1.00  0.00     0.048 C 
HETATM   10  C7  UNL     1      23.709   6.872  48.260  1.00  0.00    -0.008 C 
HETATM   11  C8  UNL     1      23.465   5.940  49.170  1.00  0.00     0.009 C 
BRANCH  11  12
HETATM   12  S1  UNL     1      21.772   5.550  49.583  1.00  0.00    -0.027 SA
HETATM   13  C9  UNL     1      21.362   3.863  49.140  1.00  0.00     0.125 A 
HETATM   14  N2  UNL     1      20.665   4.783  49.682  1.00  0.00    -0.247 N 
HETATM   15  C11 UNL     1      21.056   2.479  48.766  1.00  0.00     0.262 C 
HETATM   16  S2  UNL     1      19.017   4.369  50.080  1.00  0.00     0.007 SA
HETATM   17  C10 UNL     1      18.751   2.735  49.401  1.00  0.00     0.182 C 
HETATM   18  N3  UNL     1      19.716   2.083  48.889  1.00  0.00    -0.261 NA
BRANCH  15  19
HETATM   19  N4  UNL     1      22.021   1.607  49.314  1.00  0.00    -0.385 N 
HETATM   20  H11 UNL     1      22.675   1.152  48.668  1.00  0.00     0.156 HD
BRANCH  19  21
HETATM   21  C12 UNL     1      22.314   1.632  50.679  1.00  0.00     0.126 C 
HETATM   22  C13 UNL     1      21.650   0.582  51.498  1.00  0.00    -0.000 C 
HETATM   23  C14 UNL     1      22.016  -0.250  52.492  1.00  0.00    -0.002 C 
HETATM   24  C15 UNL     1      23.309  -0.444  53.188  1.00  0.00    -0.002 C 
HETATM   25  C16 UNL     1      24.265   0.459  53.449  1.00  0.00     0.004 C 
HETATM   26  C17 UNL     1      24.569   1.881  53.256  1.00  0.00     0.140 C 
HETATM   27  C18 UNL     1      26.088   2.090  53.247  1.00  0.00     0.044 C 
HETATM   28  O2  UNL     1      24.051   2.479  52.150  1.00  0.00    -0.380 OA
HETATM   29  C19 UNL     1      23.778   1.704  51.061  1.00  0.00     0.197 C 
ENDBRANCH  19  21
ENDBRANCH  15  19
ENDBRANCH  11  12
ENDBRANCH   3   4
TORSDOF 4
ENDMDL
MODEL 2
REMARK VINA RESULT:      -7.8      3.895      6.239
REMARK  4 active torsions:
REMARK  status: ('A' for Active; 'I' for Inactive)
REMARK    1  A    between atoms: C3_3  and  C4_4 
REMARK       I    between atoms: C4_4  and  N1_6 
REMARK    2  A    between atoms: C8_10  and  S1_11 
REMARK    3  A    between atoms: C11_17  and  N4_18 
REMARK    4  A    between atoms: N4_18  and  C12_19 
ROOT
HETATM    1  C1  UNL     1      28.924   2.355  53.846  1.00  0.00     0.112 C 
HETATM    2  C2  UNL     1      27.506   2.167  53.540  1.00  0.00    -0.101 C 
HETATM    3  C3  UNL     1      26.324   2.026  53.279  1.00  0.00    -0.006 C 
ENDROOT
BRANCH   3   4
HETATM    4  C4  UNL     1      24.922   1.877  52.953  1.00  0.00     0.298 C 
HETATM    5  O1  UNL     1      24.384   2.956  52.528  1.00  0.00    -0.258 OA
HETATM    6  N1  UNL     1      24.390   0.568  53.159  1.00  0.00    -0.336 N 
HETATM    7  C5  UNL     1      25.161  -0.575  53.659  1.00  0.00     0.131 C 
HETATM    8  C20 UNL     1      22.984   0.257  52.876  1.00  0.00     0.173 C 
HETATM    9  C6  UNL     1      24.635  -0.891  55.051  1.00  0.00     0.048 C 
HETATM   10  C7  UNL     1      23.179  -1.156  54.890  1.00  0.00    -0.008 C 
HETATM   11  C8  UNL     1      22.439  -0.643  53.918  1.00  0.00     0.009 C 
BRANCH  11  12
HETATM   12  S1  UNL     1      20.701  -1.044  53.844  1.00  0.00    -0.027 SA
HETATM   13  C9  UNL     1      19.850  -0.047  52.623  1.00  0.00     0.125 A 
HETATM   14  N2  UNL     1      19.426  -0.958  53.408  1.00  0.00    -0.247 N 
HETATM   15  C11 UNL     1      19.181   0.784  51.617  1.00  0.00     0.262 C 
HETATM   16  S2  UNL     1      17.723  -1.332  53.307  1.00  0.00     0.007 SA
HETATM   17  C10 UNL     1      17.028  -0.122  52.187  1.00  0.00     0.182 C 
HETATM   18  N3  UNL     1      17.782   0.688  51.560  1.00  0.00    -0.261 NA
BRANCH  15  19
HETATM   19  N4  UNL     1      19.867   0.698  50.387  1.00  0.00    -0.385 N 
HETATM   20  H11 UNL     1      19.417   0.182  49.624  1.00  0.00     0.156 HD
BRANCH  19  21
HETATM   21  C12 UNL     1      20.927   1.561  50.098  1.00  0.00     0.126 C 
HETATM   22  C13 UNL     1      21.682   1.255  48.852  1.00  0.00    -0.000 C 
HETATM   23  C14 UNL     1      22.186   1.964  47.824  1.00  0.00    -0.002 C 
HETATM   24  C15 UNL     1      22.174   3.416  47.530  1.00  0.00    -0.002 C 
HETATM   25  C16 UNL     1      22.191   4.446  48.387  1.00  0.00     0.004 C 
HETATM   26  C17 UNL     1      22.225   4.727  49.826  1.00  0.00     0.140 C 
HETATM   27  C18 UNL     1      21.598   6.099  50.101  1.00  0.00     0.044 C 
HETATM   28  O2  UNL     1      21.635   3.817  50.647  1.00  0.00    -0.380 OA
HETATM   29  C19 UNL     1      20.630   3.045  50.144  1.00  0.00     0.197 C 
ENDBRANCH  19  21
ENDBRANCH  15  19
ENDBRANCH  11  12
ENDBRANCH   3   4
TORSDOF 4
ENDMDL
MODEL 3
REMARK VINA RESULT:      -7.7      2.787      7.190
REMARK  4 active torsions:
REMARK  status: ('A' for Active; 'I' for Inactive)
REMARK    1  A    between atoms: C3_3  and  C4_4 
REMARK       I    between atoms: C4_4  and  N1_6 
REMARK    2  A    between atoms: C8_10  and  S1_11 
REMARK    3  A    between atoms: C11_17  and  N4_18 
REMARK    4  A    between atoms: N4_18  and  C12_19 
ROOT
HETATM    1  C1  UNL     1      17.643  -3.075  53.659  1.00  0.00     0.112 C 
HETATM    2  C2  UNL     1      17.745  -1.742  53.064  1.00  0.00    -0.101 C 
HETATM    3  C3  UNL     1      17.821  -0.638  52.555  1.00  0.00    -0.006 C 
ENDROOT
BRANCH   3   4
HETATM    4  C4  UNL     1      17.893   0.668  51.936  1.00  0.00     0.298 C 
HETATM    5  O1  UNL     1      16.754   1.116  51.567  1.00  0.00    -0.258 OA
HETATM    6  N1  UNL     1      19.205   1.222  51.846  1.00  0.00    -0.336 N 
HETATM    7  C5  UNL     1      20.423   0.563  52.330  1.00  0.00     0.131 C 
HETATM    8  C20 UNL     1      19.443   2.539  51.243  1.00  0.00     0.173 C 
HETATM    9  C6  UNL     1      21.243   0.191  51.105  1.00  0.00     0.048 C 
HETATM   10  C7  UNL     1      21.485   1.462  50.369  1.00  0.00    -0.008 C 
HETATM   11  C8  UNL     1      20.680   2.513  50.429  1.00  0.00     0.009 C 
BRANCH  11  12
HETATM   12  S1  UNL     1      21.091   3.977  49.494  1.00  0.00    -0.027 SA
HETATM   13  C9  UNL     1      22.067   5.124  50.465  1.00  0.00     0.125 A 
HETATM   14  N2  UNL     1      21.643   5.188  49.264  1.00  0.00    -0.247 N 
HETATM   15  C11 UNL     1      22.864   6.041  51.284  1.00  0.00     0.262 C 
HETATM   16  S2  UNL     1      22.066   6.629  48.373  1.00  0.00     0.007 SA
HETATM   17  C10 UNL     1      22.864   7.711  49.553  1.00  0.00     0.182 C 
HETATM   18  N3  UNL     1      23.126   7.303  50.730  1.00  0.00    -0.261 NA
BRANCH  15  19
HETATM   19  N4  UNL     1      23.967   5.358  51.839  1.00  0.00    -0.385 N 
HETATM   20  H11 UNL     1      24.428   5.776  52.653  1.00  0.00     0.156 HD
BRANCH  19  21
HETATM   21  C12 UNL     1      24.203   4.016  51.534  1.00  0.00     0.126 C 
HETATM   22  C13 UNL     1      25.280   3.762  50.538  1.00  0.00    -0.000 C 
HETATM   23  C14 UNL     1      26.303   2.895  50.415  1.00  0.00    -0.002 C 
HETATM   24  C15 UNL     1      26.770   1.792  51.287  1.00  0.00    -0.002 C 
HETATM   25  C16 UNL     1      26.051   0.993  52.088  1.00  0.00     0.004 C 
HETATM   26  C17 UNL     1      24.666   0.757  52.512  1.00  0.00     0.140 C 
HETATM   27  C18 UNL     1      24.653   0.112  53.903  1.00  0.00     0.044 C 
HETATM   28  O2  UNL     1      23.835   1.834  52.533  1.00  0.00    -0.380 OA
HETATM   29  C19 UNL     1      24.381   3.071  52.705  1.00  0.00     0.197 C 
ENDBRANCH  19  21
ENDBRANCH  15  19
ENDBRANCH  11  12
ENDBRANCH   3   4
TORSDOF 4
ENDMDL
MODEL 4
REMARK VINA RESULT:      -7.6      2.552      4.235
REMARK  4 active torsions:
REMARK  status: ('A' for Active; 'I' for Inactive)
REMARK    1  A    between atoms: C3_3  and  C4_4 
REMARK       I    between atoms: C4_4  and  N1_6 
REMARK    2  A    between atoms: C8_10  and  S1_11 
REMARK    3  A    between atoms: C11_17  and  N4_18 
REMARK    4  A    between atoms: N4_18  and  C12_19 
ROOT
HETATM    1  C1  UNL     1      34.204   7.687  48.186  1.00  0.00     0.112 C 
HETATM    2  C2  UNL     1      32.814   8.048  48.461  1.00  0.00    -0.101 C 
HETATM    3  C3  UNL     1      31.651   8.332  48.692  1.00  0.00    -0.006 C 
ENDROOT
BRANCH   3   4
HETATM    4  C4  UNL     1      30.268   8.648  48.976  1.00  0.00     0.298 C 
HETATM    5  O1  UNL     1      30.130   9.640  49.771  1.00  0.00    -0.258 OA
HETATM    6  N1  UNL     1      29.311   7.810  48.329  1.00  0.00    -0.336 N 
HETATM    7  C5  UNL     1      29.648   6.700  47.432  1.00  0.00     0.131 C 
HETATM    8  C20 UNL     1      27.869   8.003  48.518  1.00  0.00     0.173 C 
HETATM    9  C6  UNL     1      29.263   5.416  48.150  1.00  0.00     0.048 C 
HETATM   10  C7  UNL     1      27.812   5.536  48.459  1.00  0.00    -0.008 C 
HETATM   11  C8  UNL     1      27.186   6.693  48.624  1.00  0.00     0.009 C 
BRANCH  11  12
HETATM   12  S1  UNL     1      25.439   6.693  48.992  1.00  0.00    -0.027 SA
HETATM   13  C9  UNL     1      24.921   5.136  49.711  1.00  0.00     0.125 A 
HETATM   14  N2  UNL     1      24.266   6.195  49.438  1.00  0.00    -0.247 N 
HETATM   15  C11 UNL     1      24.527   3.851  50.297  1.00  0.00     0.262 C 
HETATM   16  S2  UNL     1      22.561   6.166  49.815  1.00  0.00     0.007 SA
HETATM   17  C10 UNL     1      22.210   4.492  50.339  1.00  0.00     0.182 C 
HETATM   18  N3  UNL     1      23.152   3.651  50.492  1.00  0.00    -0.261 NA
BRANCH  15  19
HETATM   19  N4  UNL     1      25.368   3.541  51.388  1.00  0.00    -0.385 N 
HETATM   20  H11 UNL     1      25.616   4.300  52.031  1.00  0.00     0.156 HD
BRANCH  19  21
HETATM   21  C12 UNL     1      25.564   2.217  51.785  1.00  0.00     0.126 C 
HETATM   22  C13 UNL     1      26.945   1.876  52.225  1.00  0.00    -0.000 C 
HETATM   23  C14 UNL     1      27.496   1.170  53.231  1.00  0.00    -0.002 C 
HETATM   24  C15 UNL     1      26.889   0.416  54.353  1.00  0.00    -0.002 C 
HETATM   25  C16 UNL     1      25.723  -0.244  54.388  1.00  0.00     0.004 C 
HETATM   26  C17 UNL     1      24.573  -0.566  53.536  1.00  0.00     0.140 C 
HETATM   27  C18 UNL     1      23.337  -0.819  54.407  1.00  0.00     0.044 C 
HETATM   28  O2  UNL     1      24.241   0.342  52.579  1.00  0.00    -0.380 OA
HETATM   29  C19 UNL     1      24.574   1.649  52.781  1.00  0.00     0.197 C 
ENDBRANCH  19  21
ENDBRANCH  15  19
ENDBRANCH  11  12
ENDBRANCH   3   4
TORSDOF 4
ENDMDL
MODEL 5
REMARK VINA RESULT:      -7.5      4.111      9.440
REMARK  4 active torsions:
REMARK  status: ('A' for Active; 'I' for Inactive)
REMARK    1  A    between atoms: C3_3  and  C4_4 
REMARK       I    between atoms: C4_4  and  N1_6 
REMARK    2  A    between atoms: C8_10  and  S1_11 
REMARK    3  A    between atoms: C11_17  and  N4_18 
REMARK    4  A    between atoms: N4_18  and  C12_19 
ROOT
HETATM    1  C1  UNL     1      23.253   2.512  52.418  1.00  0.00     0.112 C 
HETATM    2  C2  UNL     1      24.239   3.046  51.479  1.00  0.00    -0.101 C 
HETATM    3  C3  UNL     1      25.072   3.491  50.709  1.00  0.00    -0.006 C 
ENDROOT
BRANCH   3   4
HETATM    4  C4  UNL     1      26.079   4.009  49.808  1.00  0.00     0.298 C 
HETATM    5  O1  UNL     1      27.009   3.171  49.553  1.00  0.00    -0.258 OA
HETATM    6  N1  UNL     1      25.862   5.349  49.367  1.00  0.00    -0.336 N 
HETATM    7  C5  UNL     1      24.722   6.183  49.763  1.00  0.00     0.131 C 
HETATM    8  C20 UNL     1      26.795   6.017  48.452  1.00  0.00     0.173 C 
HETATM    9  C6  UNL     1      25.268   7.293  50.645  1.00  0.00     0.048 C 
HETATM   10  C7  UNL     1      26.291   8.002  49.830  1.00  0.00    -0.008 C 
HETATM   11  C8  UNL     1      26.976   7.433  48.848  1.00  0.00     0.009 C 
BRANCH  11  12
HETATM   12  S1  UNL     1      28.176   8.401  47.949  1.00  0.00    -0.027 SA
HETATM   13  C9  UNL     1      29.808   8.259  48.673  1.00  0.00     0.125 A 
HETATM   14  N2  UNL     1      29.392   8.912  47.660  1.00  0.00    -0.247 N 
HETATM   15  C11 UNL     1      31.132   8.124  49.289  1.00  0.00     0.262 C 
HETATM   16  S2  UNL     1      30.591   9.844  46.798  1.00  0.00     0.007 SA
HETATM   17  C10 UNL     1      32.088   9.723  47.769  1.00  0.00     0.182 C 
HETATM   18  N3  UNL     1      32.142   8.954  48.781  1.00  0.00    -0.261 NA
BRANCH  15  19
HETATM   19  N4  UNL     1      31.456   6.758  49.439  1.00  0.00    -0.385 N 
HETATM   20  H11 UNL     1      30.917   6.210  50.117  1.00  0.00     0.156 HD
BRANCH  19  21
HETATM   21  C12 UNL     1      32.216   6.094  48.473  1.00  0.00     0.126 C 
HETATM   22  C13 UNL     1      33.692   6.237  48.606  1.00  0.00    -0.000 C 
HETATM   23  C14 UNL     1      34.758   5.420  48.512  1.00  0.00    -0.002 C 
HETATM   24  C15 UNL     1      34.867   3.972  48.222  1.00  0.00    -0.002 C 
HETATM   25  C16 UNL     1      34.082   3.210  47.446  1.00  0.00     0.004 C 
HETATM   26  C17 UNL     1      32.894   3.304  46.591  1.00  0.00     0.140 C 
HETATM   27  C18 UNL     1      32.194   1.941  46.524  1.00  0.00     0.044 C 
HETATM   28  O2  UNL     1      31.967   4.243  46.922  1.00  0.00    -0.380 OA
HETATM   29  C19 UNL     1      31.881   4.638  48.225  1.00  0.00     0.197 C 
ENDBRANCH  19  21
ENDBRANCH  15  19
ENDBRANCH  11  12
ENDBRANCH   3   4
TORSDOF 4
ENDMDL
MODEL 6
REMARK VINA RESULT:      -7.4      2.777      4.719
REMARK  4 active torsions:
REMARK  status: ('A' for Active; 'I' for Inactive)
REMARK    1  A    between atoms: C3_3  and  C4_4 
REMARK       I    between atoms: C4_4  and  N1_6 
REMARK    2  A    between atoms: C8_10  and  S1_11 
REMARK    3  A    between atoms: C11_17  and  N4_18 
REMARK    4  A    between atoms: N4_18  and  C12_19 
ROOT
HETATM    1  C1  UNL     1      26.958  -1.686  52.542  1.00  0.00     0.112 C 
HETATM    2  C2  UNL     1      26.137  -0.475  52.556  1.00  0.00    -0.101 C 
HETATM    3  C3  UNL     1      25.456   0.536  52.550  1.00  0.00    -0.006 C 
ENDROOT
BRANCH   3   4
HETATM    4  C4  UNL     1      24.646   1.734  52.520  1.00  0.00     0.298 C 
HETATM    5  O1  UNL     1      23.527   1.604  53.126  1.00  0.00    -0.258 OA
HETATM    6  N1  UNL     1      25.227   2.839  51.829  1.00  0.00    -0.336 N 
HETATM    7  C5  UNL     1      26.544   2.818  51.182  1.00  0.00     0.131 C 
HETATM    8  C20 UNL     1      24.529   4.124  51.710  1.00  0.00     0.173 C 
HETATM    9  C6  UNL     1      26.303   2.894  49.683  1.00  0.00     0.048 C 
HETATM   10  C7  UNL     1      25.527   4.143  49.453  1.00  0.00    -0.008 C 
HETATM   11  C8  UNL     1      24.732   4.695  50.359  1.00  0.00     0.009 C 
BRANCH  11  12
HETATM   12  S1  UNL     1      23.858   6.197  49.950  1.00  0.00    -0.027 SA
HETATM   13  C9  UNL     1      22.099   5.905  49.778  1.00  0.00     0.125 A 
HETATM   14  N2  UNL     1      22.789   6.970  49.662  1.00  0.00    -0.247 N 
HETATM   15  C11 UNL     1      20.664   5.635  49.643  1.00  0.00     0.262 C 
HETATM   16  S2  UNL     1      21.905   8.423  49.268  1.00  0.00     0.007 SA
HETATM   17  C10 UNL     1      20.223   7.897  48.959  1.00  0.00     0.182 C 
HETATM   18  N3  UNL     1      19.873   6.692  49.169  1.00  0.00    -0.261 NA
BRANCH  15  19
HETATM   19  N4  UNL     1      20.191   4.961  50.788  1.00  0.00    -0.385 N 
HETATM   20  H11 UNL     1      19.798   5.526  51.548  1.00  0.00     0.156 HD
BRANCH  19  21
HETATM   21  C12 UNL     1      19.933   3.588  50.755  1.00  0.00     0.126 C 
HETATM   22  C13 UNL     1      20.352   2.886  49.511  1.00  0.00    -0.000 C 
HETATM   23  C14 UNL     1      20.968   1.726  49.212  1.00  0.00    -0.002 C 
HETATM   24  C15 UNL     1      21.495   0.641  50.071  1.00  0.00    -0.002 C 
HETATM   25  C16 UNL     1      21.043   0.217  51.260  1.00  0.00     0.004 C 
HETATM   26  C17 UNL     1      19.985   0.492  52.238  1.00  0.00     0.140 C 
HETATM   27  C18 UNL     1      20.443   0.053  53.634  1.00  0.00     0.044 C 
HETATM   28  O2  UNL     1      19.539   1.775  52.320  1.00  0.00    -0.380 OA
HETATM   29  C19 UNL     1      20.384   2.780  51.954  1.00  0.00     0.197 C 
ENDBRANCH  19  21
ENDBRANCH  15  19
ENDBRANCH  11  12
ENDBRANCH   3   4
TORSDOF 4
ENDMDL
MODEL 7
REMARK VINA RESULT:      -7.4      1.206      1.904
REMARK  4 active torsions:
REMARK  status: ('A' for Active; 'I' for Inactive)
REMARK    1  A    between atoms: C3_3  and  C4_4 
REMARK       I    between atoms: C4_4  and  N1_6 
REMARK    2  A    between atoms: C8_10  and  S1_11 
REMARK    3  A    between atoms: C11_17  and  N4_18 
REMARK    4  A    between atoms: N4_18  and  C12_19 
ROOT
HETATM    1  C1  UNL     1      30.526   5.830  47.827  1.00  0.00     0.112 C 
HETATM    2  C2  UNL     1      29.171   5.478  48.249  1.00  0.00    -0.101 C 
HETATM    3  C3  UNL     1      28.039   5.176  48.585  1.00  0.00    -0.006 C 
ENDROOT
BRANCH   3   4
HETATM    4  C4  UNL     1      26.694   4.801  48.968  1.00  0.00     0.298 C 
HETATM    5  O1  UNL     1      26.576   3.559  49.248  1.00  0.00    -0.258 OA
HETATM    6  N1  UNL     1      25.746   5.868  48.966  1.00  0.00    -0.336 N 
HETATM    7  C5  UNL     1      26.056   7.258  48.615  1.00  0.00     0.131 C 
HETATM    8  C20 UNL     1      24.342   5.648  49.330  1.00  0.00     0.173 C 
HETATM    9  C6  UNL     1      25.354   7.551  47.298  1.00  0.00     0.048 C 
HETATM   10  C7  UNL     1      23.908   7.286  47.535  1.00  0.00    -0.008 C 
HETATM   11  C8  UNL     1      23.454   6.435  48.443  1.00  0.00     0.009 C 
BRANCH  11  12
HETATM   12  S1  UNL     1      21.691   6.213  48.622  1.00  0.00    -0.027 SA
HETATM   13  C9  UNL     1      21.300   4.606  49.311  1.00  0.00     0.125 A 
HETATM   14  N2  UNL     1      20.549   5.571  48.949  1.00  0.00    -0.247 N 
HETATM   15  C11 UNL     1      21.011   3.284  49.876  1.00  0.00     0.262 C 
HETATM   16  S2  UNL     1      18.831   5.326  49.142  1.00  0.00     0.007 SA
HETATM   17  C10 UNL     1      18.640   3.623  49.658  1.00  0.00     0.182 C 
HETATM   18  N3  UNL     1      19.659   2.911  49.926  1.00  0.00    -0.261 NA
BRANCH  15  19
HETATM   19  N4  UNL     1      21.760   3.090  51.056  1.00  0.00    -0.385 N 
HETATM   20  H11 UNL     1      21.652   3.776  51.810  1.00  0.00     0.156 HD
BRANCH  19  21
HETATM   21  C12 UNL     1      22.342   1.852  51.337  1.00  0.00     0.126 C 
HETATM   22  C13 UNL     1      23.826   1.800  51.231  1.00  0.00    -0.000 C 
HETATM   23  C14 UNL     1      24.832   1.271  51.954  1.00  0.00    -0.002 C 
HETATM   24  C15 UNL     1      24.836   0.489  53.212  1.00  0.00    -0.002 C 
HETATM   25  C16 UNL     1      23.916  -0.371  53.669  1.00  0.00     0.004 C 
HETATM   26  C17 UNL     1      22.620  -0.952  53.299  1.00  0.00     0.140 C 
HETATM   27  C18 UNL     1      21.862  -1.375  54.564  1.00  0.00     0.044 C 
HETATM   28  O2  UNL     1      21.791  -0.182  52.544  1.00  0.00    -0.380 OA
HETATM   29  C19 UNL     1      21.914   1.173  52.622  1.00  0.00     0.197 C 
ENDBRANCH  19  21
ENDBRANCH  15  19
ENDBRANCH  11  12
ENDBRANCH   3   4
TORSDOF 4
ENDMDL
MODEL 8
REMARK VINA RESULT:      -7.3      3.018      4.887
REMARK  4 active torsions:
REMARK  status: ('A' for Active; 'I' for Inactive)
REMARK    1  A    between atoms: C3_3  and  C4_4 
REMARK       I    between atoms: C4_4  and  N1_6 
REMARK    2  A    between atoms: C8_10  and  S1_11 
REMARK    3  A    between atoms: C11_17  and  N4_18 
REMARK    4  A    between atoms: N4_18  and  C12_19 
ROOT
HETATM    1  C1  UNL     1      23.757   7.802  45.914  1.00  0.00     0.112 C 
HETATM    2  C2  UNL     1      23.693   7.144  47.219  1.00  0.00    -0.101 C 
HETATM    3  C3  UNL     1      23.625   6.586  48.301  1.00  0.00    -0.006 C 
ENDROOT
BRANCH   3   4
HETATM    4  C4  UNL     1      23.533   5.906  49.575  1.00  0.00     0.298 C 
HETATM    5  O1  UNL     1      24.633   5.902  50.226  1.00  0.00    -0.258 OA
HETATM    6  N1  UNL     1      22.247   5.366  49.880  1.00  0.00    -0.336 N 
HETATM    7  C5  UNL     1      21.073   5.466  49.006  1.00  0.00     0.131 C 
HETATM    8  C20 UNL     1      21.994   4.648  51.134  1.00  0.00     0.173 C 
HETATM    9  C6  UNL     1      20.779   4.064  48.497  1.00  0.00     0.048 C 
HETATM   10  C7  UNL     1      20.573   3.221  49.706  1.00  0.00    -0.008 C 
HETATM   11  C8  UNL     1      21.116   3.480  50.887  1.00  0.00     0.009 C 
BRANCH  11  12
HETATM   12  S1  UNL     1      20.786   2.384  52.256  1.00  0.00    -0.027 SA
HETATM   13  C9  UNL     1      22.098   1.180  52.463  1.00  0.00     0.125 A 
HETATM   14  N2  UNL     1      21.018   1.367  53.115  1.00  0.00    -0.247 N 
HETATM   15  C11 UNL     1      23.185   0.209  52.607  1.00  0.00     0.262 C 
HETATM   16  S2  UNL     1      20.726   0.283  54.452  1.00  0.00     0.007 SA
HETATM   17  C10 UNL     1      22.031  -0.939  54.377  1.00  0.00     0.182 C 
HETATM   18  N3  UNL     1      22.985  -0.815  53.545  1.00  0.00    -0.261 NA
BRANCH  15  19
HETATM   19  N4  UNL     1      24.426   0.879  52.664  1.00  0.00    -0.385 N 
HETATM   20  H11 UNL     1      24.451   1.864  52.378  1.00  0.00     0.156 HD
BRANCH  19  21
HETATM   21  C12 UNL     1      25.489   0.354  53.402  1.00  0.00     0.126 C 
HETATM   22  C13 UNL     1      25.903  -1.029  53.038  1.00  0.00    -0.000 C 
HETATM   23  C14 UNL     1      27.071  -1.675  52.853  1.00  0.00    -0.002 C 
HETATM   24  C15 UNL     1      28.476  -1.217  52.950  1.00  0.00    -0.002 C 
HETATM   25  C16 UNL     1      29.000  -0.280  53.753  1.00  0.00     0.004 C 
HETATM   26  C17 UNL     1      28.608   0.667  54.803  1.00  0.00     0.140 C 
HETATM   27  C18 UNL     1      29.586   1.848  54.828  1.00  0.00     0.044 C 
HETATM   28  O2  UNL     1      27.342   1.163  54.746  1.00  0.00    -0.380 OA
HETATM   29  C19 UNL     1      26.724   1.222  53.532  1.00  0.00     0.197 C 
ENDBRANCH  19  21
ENDBRANCH  15  19
ENDBRANCH  11  12
ENDBRANCH   3   4
TORSDOF 4
ENDMDL
MODEL 9
REMARK VINA RESULT:      -7.2      3.130      7.519
REMARK  4 active torsions:
REMARK  status: ('A' for Active; 'I' for Inactive)
REMARK    1  A    between atoms: C3_3  and  C4_4 
REMARK       I    between atoms: C4_4  and  N1_6 
REMARK    2  A    between atoms: C8_10  and  S1_11 
REMARK    3  A    between atoms: C11_17  and  N4_18 
REMARK    4  A    between atoms: N4_18  and  C12_19 
ROOT
HETATM    1  C1  UNL     1      16.596   3.797  48.946  1.00  0.00     0.112 C 
HETATM    2  C2  UNL     1      17.835   3.892  49.718  1.00  0.00    -0.101 C 
HETATM    3  C3  UNL     1      18.864   3.956  50.368  1.00  0.00    -0.006 C 
ENDROOT
BRANCH   3   4
HETATM    4  C4  UNL     1      20.084   4.009  51.145  1.00  0.00     0.298 C 
HETATM    5  O1  UNL     1      20.659   5.149  51.105  1.00  0.00    -0.258 OA
HETATM    6  N1  UNL     1      20.428   2.795  51.813  1.00  0.00    -0.336 N 
HETATM    7  C5  UNL     1      19.640   1.559  51.753  1.00  0.00     0.131 C 
HETATM    8  C20 UNL     1      21.636   2.689  52.638  1.00  0.00     0.173 C 
HETATM    9  C6  UNL     1      20.458   0.549  50.963  1.00  0.00     0.048 C 
HETATM   10  C7  UNL     1      21.754   0.416  51.683  1.00  0.00    -0.008 C 
HETATM   11  C8  UNL     1      22.283   1.372  52.432  1.00  0.00     0.009 C 
BRANCH  11  12
HETATM   12  S1  UNL     1      23.848   1.079  53.241  1.00  0.00    -0.027 SA
HETATM   13  C9  UNL     1      25.211   1.755  52.295  1.00  0.00     0.125 A 
HETATM   14  N2  UNL     1      25.187   1.130  53.406  1.00  0.00    -0.247 N 
HETATM   15  C11 UNL     1      26.305   2.317  51.498  1.00  0.00     0.262 C 
HETATM   16  S2  UNL     1      26.732   0.864  54.174  1.00  0.00     0.007 SA
HETATM   17  C10 UNL     1      27.959   1.435  53.004  1.00  0.00     0.182 C 
HETATM   18  N3  UNL     1      27.606   2.024  51.933  1.00  0.00    -0.261 NA
BRANCH  15  19
HETATM   19  N4  UNL     1      26.034   3.668  51.193  1.00  0.00    -0.385 N 
HETATM   20  H11 UNL     1      26.831   4.307  51.101  1.00  0.00     0.156 HD
BRANCH  19  21
HETATM   21  C12 UNL     1      24.790   4.051  50.686  1.00  0.00     0.126 C 
HETATM   22  C13 UNL     1      24.545   5.518  50.625  1.00  0.00    -0.000 C 
HETATM   23  C14 UNL     1      24.011   6.376  49.735  1.00  0.00    -0.002 C 
HETATM   24  C15 UNL     1      23.428   6.164  48.390  1.00  0.00    -0.002 C 
HETATM   25  C16 UNL     1      22.761   5.099  47.923  1.00  0.00     0.004 C 
HETATM   26  C17 UNL     1      22.292   3.775  48.347  1.00  0.00     0.140 C 
HETATM   27  C18 UNL     1      22.154   2.858  47.125  1.00  0.00     0.044 C 
HETATM   28  O2  UNL     1      23.037   3.128  49.284  1.00  0.00    -0.380 OA
HETATM   29  C19 UNL     1      24.365   3.424  49.375  1.00  0.00     0.197 C 
ENDBRANCH  19  21
ENDBRANCH  15  19
ENDBRANCH  11  12
ENDBRANCH   3   4
TORSDOF 4
ENDMDL
