MODEL 1
REMARK VINA RESULT:      -8.9      0.000      0.000
REMARK  3 active torsions:
REMARK  status: ('A' for Active; 'I' for Inactive)
REMARK    1  A    between atoms: O1_2  and  C2_3 
REMARK    2  A    between atoms: C5_6  and  C6_7 
REMARK    3  A    between atoms: C8_9  and  C9_10 
ROOT
HETATM    1  C6  UNL     1      24.135   0.892  53.573  1.00  0.00     0.117 C 
HETATM    2  C7  UNL     1      23.151  -0.211  53.410  1.00  0.00     0.043 C 
HETATM    3  C8  UNL     1      21.722   0.069  53.309  1.00  0.00     0.050 C 
HETATM    4  C10 UNL     1      21.213   0.424  51.930  1.00  0.00    -0.017 C 
HETATM    5  C11 UNL     1      20.631   0.613  50.766  1.00  0.00    -0.003 C 
HETATM    6  C12 UNL     1      20.528   1.223  49.455  1.00  0.00     0.002 C 
HETATM    7  C13 UNL     1      21.333   2.075  48.856  1.00  0.00    -0.078 C 
HETATM    8  C14 UNL     1      20.855   2.478  47.518  1.00  0.00     0.044 C 
HETATM    9  C15 UNL     1      22.689   2.482  49.321  1.00  0.00     0.093 C 
HETATM   10  C16 UNL     1      22.780   3.708  50.088  1.00  0.00     0.048 A 
HETATM   11  C17 UNL     1      22.677   5.031  50.433  1.00  0.00     0.080 A 
HETATM   12  S1  UNL     1      23.399   5.013  52.211  1.00  0.00    -0.062 SA
HETATM   13  C18 UNL     1      23.705   3.173  52.137  1.00  0.00     0.167 A 
HETATM   14  N2  UNL     1      23.286   3.124  51.079  1.00  0.00    -0.228 NA
HETATM   15  N3  UNL     1      24.157   2.054  52.803  1.00  0.00    -0.360 N 
HETATM   16  H21 UNL     1      25.182   2.273  52.561  1.00  0.00     0.162 HD
ENDROOT
BRANCH   1  17
HETATM   17  C5  UNL     1      25.550   0.284  53.660  1.00  0.00    -0.035 A 
HETATM   18  C4  UNL     1      25.826  -0.699  52.738  1.00  0.00     0.012 A 
HETATM   19  C3  UNL     1      27.070  -1.321  52.721  1.00  0.00     0.037 A 
HETATM   20  C2  UNL     1      28.014  -0.927  53.649  1.00  0.00     0.068 A 
HETATM   21  C20 UNL     1      27.718   0.066  54.572  1.00  0.00     0.037 A 
HETATM   22  C19 UNL     1      26.489   0.678  54.587  1.00  0.00     0.012 A 
BRANCH  20  23
HETATM   23  O1  UNL     1      29.303  -1.433  53.782  1.00  0.00    -0.356 OA
HETATM   24  C1  UNL     1      30.370  -0.530  53.531  1.00  0.00     0.210 C 
ENDBRANCH  20  23
ENDBRANCH   1  17
BRANCH   3  25
HETATM   25  C9  UNL     1      20.815  -1.056  53.779  1.00  0.00     0.088 C 
HETATM   26  N1  UNL     1      21.062  -1.642  54.893  1.00  0.00    -0.316 NA
HETATM   27  H11 UNL     1      21.897  -1.296  55.416  1.00  0.00     0.185 HD
ENDBRANCH   3  25
TORSDOF 3
ENDMDL
MODEL 2
REMARK VINA RESULT:      -8.2      3.552      6.476
REMARK  3 active torsions:
REMARK  status: ('A' for Active; 'I' for Inactive)
REMARK    1  A    between atoms: O1_2  and  C2_3 
REMARK    2  A    between atoms: C5_6  and  C6_7 
REMARK    3  A    between atoms: C8_9  and  C9_10 
ROOT
HETATM    1  C6  UNL     1      24.728   3.467  49.605  1.00  0.00     0.117 C 
HETATM    2  C7  UNL     1      23.358   3.374  49.034  1.00  0.00     0.043 C 
HETATM    3  C8  UNL     1      22.756   2.077  48.738  1.00  0.00     0.050 C 
HETATM    4  C10 UNL     1      22.077   1.383  49.897  1.00  0.00    -0.017 C 
HETATM    5  C11 UNL     1      21.345   0.747  50.786  1.00  0.00    -0.003 C 
HETATM    6  C12 UNL     1      21.090   0.215  52.110  1.00  0.00     0.002 C 
HETATM    7  C13 UNL     1      21.824   0.282  53.201  1.00  0.00    -0.078 C 
HETATM    8  C14 UNL     1      21.215  -0.415  54.351  1.00  0.00     0.044 C 
HETATM    9  C15 UNL     1      23.046   1.116  53.391  1.00  0.00     0.093 C 
HETATM   10  C16 UNL     1      24.323   0.467  53.176  1.00  0.00     0.048 A 
HETATM   11  C17 UNL     1      25.365  -0.416  53.298  1.00  0.00     0.080 A 
HETATM   12  S1  UNL     1      26.585   0.257  51.978  1.00  0.00    -0.062 SA
HETATM   13  C18 UNL     1      25.416   1.635  51.508  1.00  0.00     0.167 A 
HETATM   14  N2  UNL     1      24.654   1.280  52.277  1.00  0.00    -0.228 NA
HETATM   15  N3  UNL     1      25.187   2.720  50.689  1.00  0.00    -0.360 N 
HETATM   16  H21 UNL     1      25.762   3.372  51.323  1.00  0.00     0.162 HD
ENDROOT
BRANCH   1  17
HETATM   17  C5  UNL     1      25.085   4.956  49.795  1.00  0.00    -0.035 A 
HETATM   18  C4  UNL     1      26.123   5.416  49.017  1.00  0.00     0.012 A 
HETATM   19  C3  UNL     1      26.534   6.742  49.102  1.00  0.00     0.037 A 
HETATM   20  C2  UNL     1      25.875   7.578  49.982  1.00  0.00     0.068 A 
HETATM   21  C20 UNL     1      24.830   7.098  50.758  1.00  0.00     0.037 A 
HETATM   22  C19 UNL     1      24.427   5.788  50.673  1.00  0.00     0.012 A 
BRANCH  20  23
HETATM   23  O1  UNL     1      26.146   8.926  50.200  1.00  0.00    -0.356 OA
HETATM   24  C1  UNL     1      27.511   9.314  50.164  1.00  0.00     0.210 C 
ENDBRANCH  20  23
ENDBRANCH   1  17
BRANCH   3  25
HETATM   25  C9  UNL     1      21.715   2.093  47.632  1.00  0.00     0.088 C 
HETATM   26  N1  UNL     1      20.567   2.621  47.852  1.00  0.00    -0.316 NA
HETATM   27  H11 UNL     1      20.421   3.015  48.808  1.00  0.00     0.185 HD
ENDBRANCH   3  25
TORSDOF 3
ENDMDL
MODEL 3
REMARK VINA RESULT:      -7.9      2.916      5.368
REMARK  3 active torsions:
REMARK  status: ('A' for Active; 'I' for Inactive)
REMARK    1  A    between atoms: O1_2  and  C2_3 
REMARK    2  A    between atoms: C5_6  and  C6_7 
REMARK    3  A    between atoms: C8_9  and  C9_10 
ROOT
HETATM    1  C6  UNL     1      25.597   2.812  50.231  1.00  0.00     0.117 C 
HETATM    2  C7  UNL     1      26.455   4.014  50.058  1.00  0.00     0.043 C 
HETATM    3  C8  UNL     1      26.246   4.928  48.939  1.00  0.00     0.050 C 
HETATM    4  C10 UNL     1      25.188   5.989  49.139  1.00  0.00    -0.017 C 
HETATM    5  C11 UNL     1      24.393   7.032  49.243  1.00  0.00    -0.003 C 
HETATM    6  C12 UNL     1      23.144   7.676  49.599  1.00  0.00     0.002 C 
HETATM    7  C13 UNL     1      22.060   7.168  50.147  1.00  0.00    -0.078 C 
HETATM    8  C14 UNL     1      20.984   8.164  50.328  1.00  0.00     0.044 C 
HETATM    9  C15 UNL     1      21.924   5.803  50.731  1.00  0.00     0.093 C 
HETATM   10  C16 UNL     1      21.364   4.777  49.875  1.00  0.00     0.048 A 
HETATM   11  C17 UNL     1      20.491   4.105  49.058  1.00  0.00     0.080 A 
HETATM   12  S1  UNL     1      21.495   2.517  48.662  1.00  0.00    -0.062 SA
HETATM   13  C18 UNL     1      22.934   3.090  49.705  1.00  0.00     0.167 A 
HETATM   14  N2  UNL     1      22.384   4.050  49.974  1.00  0.00    -0.228 NA
HETATM   15  N3  UNL     1      24.205   2.815  50.161  1.00  0.00    -0.360 N 
HETATM   16  H21 UNL     1      23.830   2.189  50.952  1.00  0.00     0.162 HD
ENDROOT
BRANCH   1  17
HETATM   17  C5  UNL     1      26.066   2.046  51.487  1.00  0.00    -0.035 A 
HETATM   18  C4  UNL     1      25.190   1.095  51.957  1.00  0.00     0.012 A 
HETATM   19  C3  UNL     1      25.506   0.342  53.083  1.00  0.00     0.037 A 
HETATM   20  C2  UNL     1      26.714   0.575  53.711  1.00  0.00     0.068 A 
HETATM   21  C20 UNL     1      27.584   1.538  53.223  1.00  0.00     0.037 A 
HETATM   22  C19 UNL     1      27.271   2.280  52.111  1.00  0.00     0.012 A 
BRANCH  20  23
HETATM   23  O1  UNL     1      27.196  -0.078  54.842  1.00  0.00    -0.356 OA
HETATM   24  C1  UNL     1      28.604  -0.086  55.020  1.00  0.00     0.210 C 
ENDBRANCH  20  23
ENDBRANCH   1  17
BRANCH   3  25
HETATM   25  C9  UNL     1      27.483   5.693  48.499  1.00  0.00     0.088 C 
HETATM   26  N1  UNL     1      28.637   5.321  48.918  1.00  0.00    -0.316 NA
HETATM   27  H11 UNL     1      28.648   4.494  49.555  1.00  0.00     0.185 HD
ENDBRANCH   3  25
TORSDOF 3
ENDMDL
MODEL 4
REMARK VINA RESULT:      -7.6      7.249      9.863
REMARK  3 active torsions:
REMARK  status: ('A' for Active; 'I' for Inactive)
REMARK    1  A    between atoms: O1_2  and  C2_3 
REMARK    2  A    between atoms: C5_6  and  C6_7 
REMARK    3  A    between atoms: C8_9  and  C9_10 
ROOT
HETATM    1  C6  UNL     1      27.582   5.922  48.084  1.00  0.00     0.117 C 
HETATM    2  C7  UNL     1      28.963   5.569  48.507  1.00  0.00     0.043 C 
HETATM    3  C8  UNL     1      30.121   6.052  47.760  1.00  0.00     0.050 C 
HETATM    4  C10 UNL     1      30.608   7.438  48.116  1.00  0.00    -0.017 C 
HETATM    5  C11 UNL     1      31.202   8.570  48.427  1.00  0.00    -0.003 C 
HETATM    6  C12 UNL     1      31.207   9.985  48.743  1.00  0.00     0.002 C 
HETATM    7  C13 UNL     1      30.200  10.824  48.865  1.00  0.00    -0.078 C 
HETATM    8  C14 UNL     1      30.632  12.201  49.178  1.00  0.00     0.044 C 
HETATM    9  C15 UNL     1      28.753  10.467  48.898  1.00  0.00     0.093 C 
HETATM   10  C16 UNL     1      28.026  10.561  47.648  1.00  0.00     0.048 A 
HETATM   11  C17 UNL     1      27.485  11.079  46.500  1.00  0.00     0.080 A 
HETATM   12  S1  UNL     1      26.606   9.537  45.770  1.00  0.00    -0.062 SA
HETATM   13  C18 UNL     1      27.157   8.468  47.198  1.00  0.00     0.167 A 
HETATM   14  N2  UNL     1      27.696   9.349  47.677  1.00  0.00    -0.228 NA
HETATM   15  N3  UNL     1      27.157   7.209  47.759  1.00  0.00    -0.360 N 
HETATM   16  H21 UNL     1      26.185   7.359  48.196  1.00  0.00     0.162 HD
ENDROOT
BRANCH   1  17
HETATM   17  C5  UNL     1      26.583   5.260  49.057  1.00  0.00    -0.035 A 
HETATM   18  C4  UNL     1      26.810   3.928  49.317  1.00  0.00     0.012 A 
HETATM   19  C3  UNL     1      25.974   3.226  50.179  1.00  0.00     0.037 A 
HETATM   20  C2  UNL     1      24.918   3.898  50.762  1.00  0.00     0.068 A 
HETATM   21  C20 UNL     1      24.705   5.241  50.489  1.00  0.00     0.037 A 
HETATM   22  C19 UNL     1      25.531   5.932  49.637  1.00  0.00     0.012 A 
BRANCH  20  23
HETATM   23  O1  UNL     1      23.984   3.363  51.645  1.00  0.00    -0.356 OA
HETATM   24  C1  UNL     1      24.481   2.898  52.891  1.00  0.00     0.210 C 
ENDBRANCH  20  23
ENDBRANCH   1  17
BRANCH   3  25
HETATM   25  C9  UNL     1      31.356   5.172  47.856  1.00  0.00     0.088 C 
HETATM   26  N1  UNL     1      31.926   5.005  48.993  1.00  0.00    -0.316 NA
HETATM   27  H11 UNL     1      31.489   5.502  49.801  1.00  0.00     0.185 HD
ENDBRANCH   3  25
TORSDOF 3
ENDMDL
MODEL 5
REMARK VINA RESULT:      -7.4      1.747      2.471
REMARK  3 active torsions:
REMARK  status: ('A' for Active; 'I' for Inactive)
REMARK    1  A    between atoms: O1_2  and  C2_3 
REMARK    2  A    between atoms: C5_6  and  C6_7 
REMARK    3  A    between atoms: C8_9  and  C9_10 
ROOT
HETATM    1  C6  UNL     1      22.887   2.579  52.528  1.00  0.00     0.117 C 
HETATM    2  C7  UNL     1      21.783   1.646  52.181  1.00  0.00     0.043 C 
HETATM    3  C8  UNL     1      20.516   2.145  51.656  1.00  0.00     0.050 C 
HETATM    4  C10 UNL     1      20.469   2.397  50.167  1.00  0.00    -0.017 C 
HETATM    5  C11 UNL     1      20.265   2.527  48.874  1.00  0.00    -0.003 C 
HETATM    6  C12 UNL     1      20.634   2.969  47.543  1.00  0.00     0.002 C 
HETATM    7  C13 UNL     1      21.720   3.587  47.132  1.00  0.00    -0.078 C 
HETATM    8  C14 UNL     1      21.702   3.886  45.686  1.00  0.00     0.044 C 
HETATM    9  C15 UNL     1      22.959   3.818  47.929  1.00  0.00     0.093 C 
HETATM   10  C16 UNL     1      23.084   5.101  48.590  1.00  0.00     0.048 A 
HETATM   11  C17 UNL     1      23.159   6.456  48.785  1.00  0.00     0.080 A 
HETATM   12  S1  UNL     1      23.367   6.551  50.691  1.00  0.00    -0.062 SA
HETATM   13  C18 UNL     1      23.311   4.692  50.853  1.00  0.00     0.167 A 
HETATM   14  N2  UNL     1      23.186   4.576  49.727  1.00  0.00    -0.228 NA
HETATM   15  N3  UNL     1      23.341   3.610  51.707  1.00  0.00    -0.360 N 
HETATM   16  H21 UNL     1      24.416   3.620  51.748  1.00  0.00     0.162 HD
ENDROOT
BRANCH   1  17
HETATM   17  C5  UNL     1      24.080   1.758  53.062  1.00  0.00    -0.035 A 
HETATM   18  C4  UNL     1      23.869   0.401  53.146  1.00  0.00     0.012 A 
HETATM   19  C3  UNL     1      24.873  -0.441  53.613  1.00  0.00     0.037 A 
HETATM   20  C2  UNL     1      26.079   0.120  53.987  1.00  0.00     0.068 A 
HETATM   21  C20 UNL     1      26.273   1.490  53.896  1.00  0.00     0.037 A 
HETATM   22  C19 UNL     1      25.281   2.319  53.434  1.00  0.00     0.012 A 
BRANCH  20  23
HETATM   23  O1  UNL     1      27.190  -0.561  54.475  1.00  0.00    -0.356 OA
HETATM   24  C1  UNL     1      28.388  -0.443  53.722  1.00  0.00     0.210 C 
ENDBRANCH  20  23
ENDBRANCH   1  17
BRANCH   3  25
HETATM   25  C9  UNL     1      19.313   1.261  51.938  1.00  0.00     0.088 C 
HETATM   26  N1  UNL     1      19.343   0.026  51.590  1.00  0.00    -0.316 NA
HETATM   27  H11 UNL     1      20.218  -0.296  51.121  1.00  0.00     0.185 HD
ENDBRANCH   3  25
TORSDOF 3
ENDMDL
MODEL 6
REMARK VINA RESULT:      -7.4      3.723      6.213
REMARK  3 active torsions:
REMARK  status: ('A' for Active; 'I' for Inactive)
REMARK    1  A    between atoms: O1_2  and  C2_3 
REMARK    2  A    between atoms: C5_6  and  C6_7 
REMARK    3  A    between atoms: C8_9  and  C9_10 
ROOT
HETATM    1  C6  UNL     1      22.165   1.028  51.579  1.00  0.00     0.117 C 
HETATM    2  C7  UNL     1      22.907   1.664  52.699  1.00  0.00     0.043 C 
HETATM    3  C8  UNL     1      24.131   2.420  52.454  1.00  0.00     0.050 C 
HETATM    4  C10 UNL     1      23.948   3.865  52.052  1.00  0.00    -0.017 C 
HETATM    5  C11 UNL     1      23.922   5.161  51.827  1.00  0.00    -0.003 C 
HETATM    6  C12 UNL     1      23.424   6.349  51.162  1.00  0.00     0.002 C 
HETATM    7  C13 UNL     1      22.471   6.475  50.262  1.00  0.00    -0.078 C 
HETATM    8  C14 UNL     1      22.282   7.869  49.813  1.00  0.00     0.044 C 
HETATM    9  C15 UNL     1      21.512   5.414  49.841  1.00  0.00     0.093 C 
HETATM   10  C16 UNL     1      21.848   4.663  48.648  1.00  0.00     0.048 A 
HETATM   11  C17 UNL     1      22.159   4.372  47.344  1.00  0.00     0.080 A 
HETATM   12  S1  UNL     1      22.358   2.465  47.422  1.00  0.00    -0.062 SA
HETATM   13  C18 UNL     1      21.971   2.435  49.249  1.00  0.00     0.167 A 
HETATM   14  N2  UNL     1      21.841   3.567  49.261  1.00  0.00    -0.228 NA
HETATM   15  N3  UNL     1      21.836   1.665  50.383  1.00  0.00    -0.360 N 
HETATM   16  H21 UNL     1      20.828   1.390  50.126  1.00  0.00     0.162 HD
ENDROOT
BRANCH   1  17
HETATM   17  C5  UNL     1      20.931   0.300  52.153  1.00  0.00    -0.035 A 
HETATM   18  C4  UNL     1      19.768   0.461  51.436  1.00  0.00     0.012 A 
HETATM   19  C3  UNL     1      18.591  -0.149  51.858  1.00  0.00     0.037 A 
HETATM   20  C2  UNL     1      18.623  -0.915  53.007  1.00  0.00     0.068 A 
HETATM   21  C20 UNL     1      19.805  -1.066  53.717  1.00  0.00     0.037 A 
HETATM   22  C19 UNL     1      20.966  -0.463  53.299  1.00  0.00     0.012 A 
BRANCH  20  23
HETATM   23  O1  UNL     1      17.551  -1.595  53.577  1.00  0.00    -0.356 OA
HETATM   24  C1  UNL     1      17.684  -3.003  53.699  1.00  0.00     0.210 C 
ENDBRANCH  20  23
ENDBRANCH   1  17
BRANCH   3  25
HETATM   25  C9  UNL     1      25.101   2.463  53.623  1.00  0.00     0.088 C 
HETATM   26  N1  UNL     1      26.350   2.653  53.399  1.00  0.00    -0.316 NA
HETATM   27  H11 UNL     1      26.624   2.767  52.398  1.00  0.00     0.185 HD
ENDBRANCH   3  25
TORSDOF 3
ENDMDL
MODEL 7
REMARK VINA RESULT:      -7.3      9.017     11.693
REMARK  3 active torsions:
REMARK  status: ('A' for Active; 'I' for Inactive)
REMARK    1  A    between atoms: O1_2  and  C2_3 
REMARK    2  A    between atoms: C5_6  and  C6_7 
REMARK    3  A    between atoms: C8_9  and  C9_10 
ROOT
HETATM    1  C6  UNL     1      29.535   7.146  47.603  1.00  0.00     0.117 C 
HETATM    2  C7  UNL     1      29.184   7.817  46.324  1.00  0.00     0.043 C 
HETATM    3  C8  UNL     1      30.162   8.631  45.610  1.00  0.00     0.050 C 
HETATM    4  C10 UNL     1      31.107   7.883  44.698  1.00  0.00    -0.017 C 
HETATM    5  C11 UNL     1      31.892   7.364  43.778  1.00  0.00    -0.003 C 
HETATM    6  C12 UNL     1      32.820   6.367  43.280  1.00  0.00     0.002 C 
HETATM    7  C13 UNL     1      33.279   5.279  43.861  1.00  0.00    -0.078 C 
HETATM    8  C14 UNL     1      34.235   4.534  43.018  1.00  0.00     0.044 C 
HETATM    9  C15 UNL     1      32.789   4.689  45.139  1.00  0.00     0.093 C 
HETATM   10  C16 UNL     1      33.518   5.033  46.343  1.00  0.00     0.048 A 
HETATM   11  C17 UNL     1      34.545   5.175  47.240  1.00  0.00     0.080 A 
HETATM   12  S1  UNL     1      33.651   6.037  48.703  1.00  0.00    -0.062 SA
HETATM   13  C18 UNL     1      32.022   6.037  47.791  1.00  0.00     0.167 A 
HETATM   14  N2  UNL     1      32.501   5.525  46.893  1.00  0.00    -0.228 NA
HETATM   15  N3  UNL     1      30.692   6.396  47.813  1.00  0.00    -0.360 N 
HETATM   16  H21 UNL     1      30.422   5.518  48.373  1.00  0.00     0.162 HD
ENDROOT
BRANCH   1  17
HETATM   17  C5  UNL     1      28.300   6.375  48.114  1.00  0.00    -0.035 A 
HETATM   18  C4  UNL     1      27.129   7.098  48.150  1.00  0.00     0.012 A 
HETATM   19  C3  UNL     1      25.950   6.509  48.593  1.00  0.00     0.037 A 
HETATM   20  C2  UNL     1      25.987   5.187  48.993  1.00  0.00     0.068 A 
HETATM   21  C20 UNL     1      27.176   4.474  48.950  1.00  0.00     0.037 A 
HETATM   22  C19 UNL     1      28.339   5.058  48.512  1.00  0.00     0.012 A 
BRANCH  20  23
HETATM   23  O1  UNL     1      24.914   4.436  49.462  1.00  0.00    -0.356 OA
HETATM   24  C1  UNL     1      25.230   3.238  50.155  1.00  0.00     0.210 C 
ENDBRANCH  20  23
ENDBRANCH   1  17
BRANCH   3  25
HETATM   25  C9  UNL     1      29.571   9.727  44.740  1.00  0.00     0.088 C 
HETATM   26  N1  UNL     1      28.851   9.409  43.727  1.00  0.00    -0.316 NA
HETATM   27  H11 UNL     1      28.718   8.387  43.562  1.00  0.00     0.185 HD
ENDBRANCH   3  25
TORSDOF 3
ENDMDL
MODEL 8
REMARK VINA RESULT:      -7.3      3.325      5.884
REMARK  3 active torsions:
REMARK  status: ('A' for Active; 'I' for Inactive)
REMARK    1  A    between atoms: O1_2  and  C2_3 
REMARK    2  A    between atoms: C5_6  and  C6_7 
REMARK    3  A    between atoms: C8_9  and  C9_10 
ROOT
HETATM    1  C6  UNL     1      23.271   2.412  49.971  1.00  0.00     0.117 C 
HETATM    2  C7  UNL     1      24.445   3.289  50.224  1.00  0.00     0.043 C 
HETATM    3  C8  UNL     1      24.855   4.293  49.246  1.00  0.00     0.050 C 
HETATM    4  C10 UNL     1      24.133   5.619  49.315  1.00  0.00    -0.017 C 
HETATM    5  C11 UNL     1      23.673   6.850  49.362  1.00  0.00    -0.003 C 
HETATM    6  C12 UNL     1      22.612   7.833  49.463  1.00  0.00     0.002 C 
HETATM    7  C13 UNL     1      21.315   7.660  49.613  1.00  0.00    -0.078 C 
HETATM    8  C14 UNL     1      20.564   8.931  49.649  1.00  0.00     0.044 C 
HETATM    9  C15 UNL     1      20.627   6.373  49.919  1.00  0.00     0.093 C 
HETATM   10  C16 UNL     1      20.087   5.635  48.795  1.00  0.00     0.048 A 
HETATM   11  C17 UNL     1      19.352   5.327  47.679  1.00  0.00     0.080 A 
HETATM   12  S1  UNL     1      19.935   3.533  47.327  1.00  0.00    -0.062 SA
HETATM   13  C18 UNL     1      21.088   3.552  48.795  1.00  0.00     0.167 A 
HETATM   14  N2  UNL     1      20.779   4.618  49.051  1.00  0.00    -0.228 NA
HETATM   15  N3  UNL     1      22.028   2.860  49.528  1.00  0.00    -0.360 N 
HETATM   16  H21 UNL     1      21.269   2.335  50.082  1.00  0.00     0.162 HD
ENDROOT
BRANCH   1  17
HETATM   17  C5  UNL     1      23.099   1.458  51.171  1.00  0.00    -0.035 A 
HETATM   18  C4  UNL     1      24.192   1.351  52.000  1.00  0.00     0.012 A 
HETATM   19  C3  UNL     1      24.154   0.521  53.115  1.00  0.00     0.037 A 
HETATM   20  C2  UNL     1      22.995  -0.189  53.365  1.00  0.00     0.068 A 
HETATM   21  C20 UNL     1      21.903  -0.070  52.518  1.00  0.00     0.037 A 
HETATM   22  C19 UNL     1      21.943   0.751  51.418  1.00  0.00     0.012 A 
BRANCH  20  23
HETATM   23  O1  UNL     1      22.775  -1.063  54.425  1.00  0.00    -0.356 OA
HETATM   24  C1  UNL     1      21.504  -1.695  54.475  1.00  0.00     0.210 C 
ENDBRANCH  20  23
ENDBRANCH   1  17
BRANCH   3  25
HETATM   25  C9  UNL     1      26.331   4.653  49.280  1.00  0.00     0.088 C 
HETATM   26  N1  UNL     1      27.128   3.978  50.025  1.00  0.00    -0.316 NA
HETATM   27  H11 UNL     1      26.695   3.204  50.575  1.00  0.00     0.185 HD
ENDBRANCH   3  25
TORSDOF 3
ENDMDL
MODEL 9
REMARK VINA RESULT:      -7.2      3.990      7.023
REMARK  3 active torsions:
REMARK  status: ('A' for Active; 'I' for Inactive)
REMARK    1  A    between atoms: O1_2  and  C2_3 
REMARK    2  A    between atoms: C5_6  and  C6_7 
REMARK    3  A    between atoms: C8_9  and  C9_10 
ROOT
HETATM    1  C6  UNL     1      20.632   0.120  51.358  1.00  0.00     0.117 C 
HETATM    2  C7  UNL     1      21.388   0.089  52.639  1.00  0.00     0.043 C 
HETATM    3  C8  UNL     1      22.837   0.263  52.659  1.00  0.00     0.050 C 
HETATM    4  C10 UNL     1      23.332   1.691  52.662  1.00  0.00    -0.017 C 
HETATM    5  C11 UNL     1      23.880   2.879  52.801  1.00  0.00    -0.003 C 
HETATM    6  C12 UNL     1      24.027   4.282  52.469  1.00  0.00     0.002 C 
HETATM    7  C13 UNL     1      23.364   5.017  51.602  1.00  0.00    -0.078 C 
HETATM    8  C14 UNL     1      23.840   6.414  51.546  1.00  0.00     0.044 C 
HETATM    9  C15 UNL     1      22.130   4.616  50.868  1.00  0.00     0.093 C 
HETATM   10  C16 UNL     1      22.305   4.091  49.528  1.00  0.00     0.048 A 
HETATM   11  C17 UNL     1      22.666   4.001  48.208  1.00  0.00     0.080 A 
HETATM   12  S1  UNL     1      22.043   2.240  47.767  1.00  0.00    -0.062 SA
HETATM   13  C18 UNL     1      21.402   1.964  49.499  1.00  0.00     0.167 A 
HETATM   14  N2  UNL     1      21.750   3.001  49.816  1.00  0.00    -0.228 NA
HETATM   15  N3  UNL     1      20.786   1.093  50.372  1.00  0.00    -0.360 N 
HETATM   16  H21 UNL     1      19.807   1.357  50.010  1.00  0.00     0.162 HD
ENDROOT
BRANCH   1  17
HETATM   17  C5  UNL     1      19.135  -0.101  51.661  1.00  0.00    -0.035 A 
HETATM   18  C4  UNL     1      18.865  -0.767  52.835  1.00  0.00     0.012 A 
HETATM   19  C3  UNL     1      17.552  -1.024  53.212  1.00  0.00     0.037 A 
HETATM   20  C2  UNL     1      16.534  -0.595  52.382  1.00  0.00     0.068 A 
HETATM   21  C20 UNL     1      16.825   0.074  51.203  1.00  0.00     0.037 A 
HETATM   22  C19 UNL     1      18.123   0.327  50.832  1.00  0.00     0.012 A 
BRANCH  20  23
HETATM   23  O1  UNL     1      15.169  -0.762  52.595  1.00  0.00    -0.356 OA
HETATM   24  C1  UNL     1      14.457   0.368  53.077  1.00  0.00     0.210 C 
ENDBRANCH  20  23
ENDBRANCH   1  17
BRANCH   3  25
HETATM   25  C9  UNL     1      23.544  -0.396  53.831  1.00  0.00     0.088 C 
HETATM   26  N1  UNL     1      24.817  -0.553  53.792  1.00  0.00    -0.316 NA
HETATM   27  H11 UNL     1      25.294  -0.209  52.931  1.00  0.00     0.185 HD
ENDBRANCH   3  25
TORSDOF 3
ENDMDL
