MODEL 1
REMARK VINA RESULT:      -8.2      0.000      0.000
REMARK  5 active torsions:
REMARK  status: ('A' for Active; 'I' for Inactive)
REMARK    1  A    between atoms: N1_1  and  C1_2 
REMARK    2  A    between atoms: N2_5  and  C4_6 
REMARK    3  A    between atoms: C4_6  and  C5_7 
REMARK    4  A    between atoms: C9_14  and  N6_15 
REMARK    5  A    between atoms: N6_15  and  C10_16 
ROOT
HETATM    1  C5  UNL     1      23.039  -0.077  53.726  1.00  0.00     0.070 C 
HETATM    2  C6  UNL     1      22.902  -1.176  54.746  1.00  0.00     0.001 C 
HETATM    3  C7  UNL     1      21.620  -1.548  54.593  1.00  0.00     0.110 C 
HETATM    4  N3  UNL     1      20.891  -0.808  53.578  1.00  0.00    -0.267 N 
HETATM    5  N4  UNL     1      19.570  -0.408  53.366  1.00  0.00    -0.165 NA
HETATM    6  C8  UNL     1      19.360   0.444  52.389  1.00  0.00     0.257 C 
HETATM    7  N5  UNL     1      20.374   0.959  51.547  1.00  0.00    -0.225 NA
HETATM    8  C9  UNL     1      21.610   0.562  51.732  1.00  0.00     0.131 C 
HETATM    9  C16 UNL     1      22.012  -0.456  52.687  1.00  0.00     0.188 C 
ENDROOT
BRANCH   1  10
HETATM   10  C4  UNL     1      24.392   0.134  53.193  1.00  0.00     0.283 C 
BRANCH  10  11
HETATM   11  N2  UNL     1      25.380   0.739  53.995  1.00  0.00     0.089 N 
HETATM   12  C3  UNL     1      25.910   1.997  53.626  1.00  0.00     0.274 C 
HETATM   13  C2  UNL     1      26.994   1.899  52.567  1.00  0.00     0.065 C 
HETATM   14  C1  UNL     1      28.262   1.421  53.289  1.00  0.00     0.221 C 
HETATM   15  C18 UNL     1      27.811   0.512  54.392  1.00  0.00     0.065 C 
HETATM   16  C17 UNL     1      26.532  -0.184  53.995  1.00  0.00     0.274 C 
BRANCH  14  17
HETATM   17  N1  UNL     1      28.995   2.570  53.802  1.00  0.00     0.083 N 
HETATM   18  H1  UNL     1      28.357   3.397  53.909  1.00  0.00     0.313 HD
HETATM   19  H2  UNL     1      29.752   2.863  53.154  1.00  0.00     0.313 HD
ENDBRANCH  14  17
ENDBRANCH  10  11
ENDBRANCH   1  10
BRANCH   8  20
HETATM   20  N6  UNL     1      22.549   1.145  50.844  1.00  0.00    -0.343 N 
HETATM   21  H14 UNL     1      22.888   0.569  50.012  1.00  0.00     0.167 HD
BRANCH  20  22
HETATM   22  C10 UNL     1      23.079   2.440  50.970  1.00  0.00     0.033 A 
HETATM   23  C11 UNL     1      22.842   3.333  51.990  1.00  0.00     0.029 A 
HETATM   24  C12 UNL     1      23.356   4.592  52.106  1.00  0.00     0.002 A 
HETATM   25  C13 UNL     1      24.200   5.042  51.121  1.00  0.00     0.000 A 
HETATM   26  C14 UNL     1      24.490   4.210  50.064  1.00  0.00     0.002 A 
HETATM   27  C15 UNL     1      23.940   2.960  50.010  1.00  0.00     0.029 A 
ENDBRANCH  20  22
ENDBRANCH   8  20
TORSDOF 5
ENDMDL
MODEL 2
REMARK VINA RESULT:      -8.2      1.685      2.579
REMARK  5 active torsions:
REMARK  status: ('A' for Active; 'I' for Inactive)
REMARK    1  A    between atoms: N1_1  and  C1_2 
REMARK    2  A    between atoms: N2_5  and  C4_6 
REMARK    3  A    between atoms: C4_6  and  C5_7 
REMARK    4  A    between atoms: C9_14  and  N6_15 
REMARK    5  A    between atoms: N6_15  and  C10_16 
ROOT
HETATM    1  C5  UNL     1      23.622   0.773  52.995  1.00  0.00     0.070 C 
HETATM    2  C6  UNL     1      22.704  -0.417  52.894  1.00  0.00     0.001 C 
HETATM    3  C7  UNL     1      21.569   0.138  52.436  1.00  0.00     0.110 C 
HETATM    4  N3  UNL     1      21.638   1.572  52.224  1.00  0.00    -0.267 N 
HETATM    5  N4  UNL     1      20.752   2.651  52.280  1.00  0.00    -0.165 NA
HETATM    6  C8  UNL     1      21.277   3.852  52.209  1.00  0.00     0.257 C 
HETATM    7  N5  UNL     1      22.662   4.110  52.068  1.00  0.00    -0.225 NA
HETATM    8  C9  UNL     1      23.489   3.097  51.990  1.00  0.00     0.131 C 
HETATM    9  C16 UNL     1      23.079   1.703  51.938  1.00  0.00     0.188 C 
ENDROOT
BRANCH   1  10
HETATM   10  C4  UNL     1      25.057   0.484  52.869  1.00  0.00     0.283 C 
BRANCH  10  11
HETATM   11  N2  UNL     1      25.931   0.770  53.938  1.00  0.00     0.089 N 
HETATM   12  C3  UNL     1      26.625   2.001  53.967  1.00  0.00     0.274 C 
HETATM   13  C2  UNL     1      27.872   2.001  53.100  1.00  0.00     0.065 C 
HETATM   14  C1  UNL     1      28.940   1.221  53.878  1.00  0.00     0.221 C 
HETATM   15  C18 UNL     1      28.219   0.156  54.648  1.00  0.00     0.065 C 
HETATM   16  C17 UNL     1      26.979  -0.269  53.900  1.00  0.00     0.274 C 
BRANCH  14  17
HETATM   17  N1  UNL     1      29.664   2.128  54.758  1.00  0.00     0.083 N 
HETATM   18  H1  UNL     1      30.112   1.598  55.546  1.00  0.00     0.313 HD
HETATM   19  H2  UNL     1      29.032   2.827  55.193  1.00  0.00     0.313 HD
ENDBRANCH  14  17
ENDBRANCH  10  11
ENDBRANCH   1  10
BRANCH   8  20
HETATM   20  N6  UNL     1      24.852   3.464  51.861  1.00  0.00    -0.343 N 
HETATM   21  H14 UNL     1      25.530   3.182  52.635  1.00  0.00     0.167 HD
BRANCH  20  22
HETATM   22  C10 UNL     1      25.393   4.182  50.781  1.00  0.00     0.033 A 
HETATM   23  C11 UNL     1      24.953   5.389  50.289  1.00  0.00     0.029 A 
HETATM   24  C12 UNL     1      25.479   6.080  49.236  1.00  0.00     0.002 A 
HETATM   25  C13 UNL     1      26.559   5.541  48.581  1.00  0.00     0.000 A 
HETATM   26  C14 UNL     1      27.061   4.335  49.011  1.00  0.00     0.002 A 
HETATM   27  C15 UNL     1      26.486   3.695  50.072  1.00  0.00     0.029 A 
ENDBRANCH  20  22
ENDBRANCH   8  20
TORSDOF 5
ENDMDL
MODEL 3
REMARK VINA RESULT:      -8.2      1.973      6.334
REMARK  5 active torsions:
REMARK  status: ('A' for Active; 'I' for Inactive)
REMARK    1  A    between atoms: N1_1  and  C1_2 
REMARK    2  A    between atoms: N2_5  and  C4_6 
REMARK    3  A    between atoms: C4_6  and  C5_7 
REMARK    4  A    between atoms: C9_14  and  N6_15 
REMARK    5  A    between atoms: N6_15  and  C10_16 
ROOT
HETATM    1  C5  UNL     1      23.386   3.015  51.532  1.00  0.00     0.070 C 
HETATM    2  C6  UNL     1      22.379   3.203  50.429  1.00  0.00     0.001 C 
HETATM    3  C7  UNL     1      23.165   3.388  49.355  1.00  0.00     0.110 C 
HETATM    4  N3  UNL     1      24.589   3.345  49.632  1.00  0.00    -0.267 N 
HETATM    5  N4  UNL     1      25.743   3.933  49.109  1.00  0.00    -0.165 NA
HETATM    6  C8  UNL     1      26.851   3.776  49.796  1.00  0.00     0.257 C 
HETATM    7  N5  UNL     1      26.942   3.048  51.007  1.00  0.00    -0.225 NA
HETATM    8  C9  UNL     1      25.863   2.476  51.482  1.00  0.00     0.131 C 
HETATM    9  C16 UNL     1      24.579   2.448  50.802  1.00  0.00     0.188 C 
ENDROOT
BRANCH   1  10
HETATM   10  C4  UNL     1      22.937   2.211  52.677  1.00  0.00     0.283 C 
BRANCH  10  11
HETATM   11  N2  UNL     1      22.302   0.970  52.462  1.00  0.00     0.089 N 
HETATM   12  C3  UNL     1      20.950   0.800  52.838  1.00  0.00     0.274 C 
HETATM   13  C2  UNL     1      20.777   0.501  54.317  1.00  0.00     0.065 C 
HETATM   14  C1  UNL     1      21.161  -0.973  54.508  1.00  0.00     0.221 C 
HETATM   15  C18 UNL     1      22.245  -1.266  53.516  1.00  0.00     0.065 C 
HETATM   16  C17 UNL     1      23.056  -0.020  53.256  1.00  0.00     0.274 C 
BRANCH  14  17
HETATM   17  N1  UNL     1      19.991  -1.814  54.296  1.00  0.00     0.083 N 
HETATM   18  H1  UNL     1      19.201  -1.252  53.893  1.00  0.00     0.313 HD
HETATM   19  H2  UNL     1      19.643  -2.220  55.186  1.00  0.00     0.313 HD
ENDBRANCH  14  17
ENDBRANCH  10  11
ENDBRANCH   1  10
BRANCH   8  20
HETATM   20  N6  UNL     1      26.060   1.781  52.703  1.00  0.00    -0.343 N 
HETATM   21  H14 UNL     1      25.470   2.058  53.547  1.00  0.00     0.167 HD
BRANCH  20  22
HETATM   22  C10 UNL     1      26.985   0.742  52.896  1.00  0.00     0.033 A 
HETATM   23  C11 UNL     1      28.255   0.853  53.413  1.00  0.00     0.029 A 
HETATM   24  C12 UNL     1      29.153  -0.160  53.594  1.00  0.00     0.002 A 
HETATM   25  C13 UNL     1      28.778  -1.431  53.235  1.00  0.00     0.000 A 
HETATM   26  C14 UNL     1      27.522  -1.628  52.709  1.00  0.00     0.002 A 
HETATM   27  C15 UNL     1      26.673  -0.570  52.553  1.00  0.00     0.029 A 
ENDBRANCH  20  22
ENDBRANCH   8  20
TORSDOF 5
ENDMDL
MODEL 4
REMARK VINA RESULT:      -8.1      1.911      4.798
REMARK  5 active torsions:
REMARK  status: ('A' for Active; 'I' for Inactive)
REMARK    1  A    between atoms: N1_1  and  C1_2 
REMARK    2  A    between atoms: N2_5  and  C4_6 
REMARK    3  A    between atoms: C4_6  and  C5_7 
REMARK    4  A    between atoms: C9_14  and  N6_15 
REMARK    5  A    between atoms: N6_15  and  C10_16 
ROOT
HETATM    1  C5  UNL     1      25.788   2.099  51.656  1.00  0.00     0.070 C 
HETATM    2  C6  UNL     1      26.812   2.862  50.858  1.00  0.00     0.001 C 
HETATM    3  C7  UNL     1      26.064   3.416  49.890  1.00  0.00     0.110 C 
HETATM    4  N3  UNL     1      24.649   3.098  49.960  1.00  0.00    -0.267 N 
HETATM    5  N4  UNL     1      23.597   2.941  49.055  1.00  0.00    -0.165 NA
HETATM    6  C8  UNL     1      22.478   2.444  49.529  1.00  0.00     0.257 C 
HETATM    7  N5  UNL     1      22.278   2.076  50.881  1.00  0.00    -0.225 NA
HETATM    8  C9  UNL     1      23.258   2.248  51.734  1.00  0.00     0.131 C 
HETATM    9  C16 UNL     1      24.523   2.887  51.415  1.00  0.00     0.188 C 
ENDROOT
BRANCH   1  10
HETATM   10  C4  UNL     1      26.110   1.889  53.074  1.00  0.00     0.283 C 
BRANCH  10  11
HETATM   11  N2  UNL     1      26.289   0.582  53.571  1.00  0.00     0.089 N 
HETATM   12  C3  UNL     1      27.502   0.233  54.208  1.00  0.00     0.274 C 
HETATM   13  C2  UNL     1      28.610  -0.113  53.228  1.00  0.00     0.065 C 
HETATM   14  C1  UNL     1      28.309  -1.528  52.718  1.00  0.00     0.221 C 
HETATM   15  C18 UNL     1      26.817  -1.663  52.678  1.00  0.00     0.065 C 
HETATM   16  C17 UNL     1      26.186  -0.318  52.406  1.00  0.00     0.274 C 
BRANCH  14  17
HETATM   17  N1  UNL     1      28.916  -2.508  53.608  1.00  0.00     0.083 N 
HETATM   18  H1  UNL     1      29.809  -2.134  54.014  1.00  0.00     0.313 HD
HETATM   19  H2  UNL     1      29.162  -3.383  53.106  1.00  0.00     0.313 HD
ENDBRANCH  14  17
ENDBRANCH  10  11
ENDBRANCH   1  10
BRANCH   8  20
HETATM   20  N6  UNL     1      22.957   1.839  53.058  1.00  0.00    -0.343 N 
HETATM   21  H14 UNL     1      23.361   2.402  53.868  1.00  0.00     0.167 HD
BRANCH  20  22
HETATM   22  C10 UNL     1      22.159   0.733  53.396  1.00  0.00     0.033 A 
HETATM   23  C11 UNL     1      20.784   0.681  53.408  1.00  0.00     0.029 A 
HETATM   24  C12 UNL     1      20.013  -0.395  53.742  1.00  0.00     0.002 A 
HETATM   25  C13 UNL     1      20.644  -1.558  54.107  1.00  0.00     0.000 A 
HETATM   26  C14 UNL     1      22.019  -1.589  54.122  1.00  0.00     0.002 A 
HETATM   27  C15 UNL     1      22.731  -0.476  53.776  1.00  0.00     0.029 A 
ENDBRANCH  20  22
ENDBRANCH   8  20
TORSDOF 5
ENDMDL
MODEL 5
REMARK VINA RESULT:      -8.0      2.068      3.348
REMARK  5 active torsions:
REMARK  status: ('A' for Active; 'I' for Inactive)
REMARK    1  A    between atoms: N1_1  and  C1_2 
REMARK    2  A    between atoms: N2_5  and  C4_6 
REMARK    3  A    between atoms: C4_6  and  C5_7 
REMARK    4  A    between atoms: C9_14  and  N6_15 
REMARK    5  A    between atoms: N6_15  and  C10_16 
ROOT
HETATM    1  C5  UNL     1      22.889   1.674  52.364  1.00  0.00     0.070 C 
HETATM    2  C6  UNL     1      22.291   0.294  52.290  1.00  0.00     0.001 C 
HETATM    3  C7  UNL     1      21.603   0.344  51.136  1.00  0.00     0.110 C 
HETATM    4  N3  UNL     1      21.681   1.614  50.439  1.00  0.00    -0.267 N 
HETATM    5  N4  UNL     1      20.857   2.362  49.595  1.00  0.00    -0.165 NA
HETATM    6  C8  UNL     1      21.237   3.590  49.331  1.00  0.00     0.257 C 
HETATM    7  N5  UNL     1      22.420   4.184  49.834  1.00  0.00    -0.225 NA
HETATM    8  C9  UNL     1      23.205   3.473  50.606  1.00  0.00     0.131 C 
HETATM    9  C16 UNL     1      23.003   2.067  50.911  1.00  0.00     0.188 C 
ENDROOT
BRANCH   1  10
HETATM   10  C4  UNL     1      24.142   1.787  53.123  1.00  0.00     0.283 C 
BRANCH  10  11
HETATM   11  N2  UNL     1      25.256   1.000  52.768  1.00  0.00     0.089 N 
HETATM   12  C3  UNL     1      25.590  -0.134  53.543  1.00  0.00     0.274 C 
HETATM   13  C2  UNL     1      26.379   0.211  54.793  1.00  0.00     0.065 C 
HETATM   14  C1  UNL     1      27.816   0.493  54.333  1.00  0.00     0.221 C 
HETATM   15  C18 UNL     1      27.718   1.111  52.972  1.00  0.00     0.065 C 
HETATM   16  C17 UNL     1      26.431   1.890  52.851  1.00  0.00     0.274 C 
BRANCH  14  17
HETATM   17  N1  UNL     1      28.575  -0.750  54.310  1.00  0.00     0.083 N 
HETATM   18  H1  UNL     1      29.105  -0.841  53.408  1.00  0.00     0.313 HD
HETATM   19  H2  UNL     1      27.954  -1.580  54.373  1.00  0.00     0.313 HD
ENDBRANCH  14  17
ENDBRANCH  10  11
ENDBRANCH   1  10
BRANCH   8  20
HETATM   20  N6  UNL     1      24.355   4.164  51.063  1.00  0.00    -0.343 N 
HETATM   21  H14 UNL     1      24.494   4.281  52.114  1.00  0.00     0.167 HD
BRANCH  20  22
HETATM   22  C10 UNL     1      25.344   4.717  50.233  1.00  0.00     0.033 A 
HETATM   23  C11 UNL     1      25.479   6.040  49.879  1.00  0.00     0.029 A 
HETATM   24  C12 UNL     1      26.439   6.572  49.067  1.00  0.00     0.002 A 
HETATM   25  C13 UNL     1      27.382   5.727  48.537  1.00  0.00     0.000 A 
HETATM   26  C14 UNL     1      27.318   4.387  48.842  1.00  0.00     0.002 A 
HETATM   27  C15 UNL     1      26.330   3.920  49.660  1.00  0.00     0.029 A 
ENDBRANCH  20  22
ENDBRANCH   8  20
TORSDOF 5
ENDMDL
MODEL 6
REMARK VINA RESULT:      -7.9      1.674      5.195
REMARK  5 active torsions:
REMARK  status: ('A' for Active; 'I' for Inactive)
REMARK    1  A    between atoms: N1_1  and  C1_2 
REMARK    2  A    between atoms: N2_5  and  C4_6 
REMARK    3  A    between atoms: C4_6  and  C5_7 
REMARK    4  A    between atoms: C9_14  and  N6_15 
REMARK    5  A    between atoms: N6_15  and  C10_16 
ROOT
HETATM    1  C5  UNL     1      22.207   0.457  52.069  1.00  0.00     0.070 C 
HETATM    2  C6  UNL     1      20.732   0.722  52.213  1.00  0.00     0.001 C 
HETATM    3  C7  UNL     1      20.486   0.292  53.462  1.00  0.00     0.110 C 
HETATM    4  N3  UNL     1      21.645  -0.233  54.161  1.00  0.00    -0.267 N 
HETATM    5  N4  UNL     1      21.889  -1.199  55.139  1.00  0.00    -0.165 NA
HETATM    6  C8  UNL     1      23.145  -1.513  55.361  1.00  0.00     0.257 C 
HETATM    7  N5  UNL     1      24.244  -0.930  54.686  1.00  0.00    -0.225 NA
HETATM    8  C9  UNL     1      24.014  -0.005  53.786  1.00  0.00     0.131 C 
HETATM    9  C16 UNL     1      22.703   0.548  53.491  1.00  0.00     0.188 C 
ENDROOT
BRANCH   1  10
HETATM   10  C4  UNL     1      22.922   1.323  51.122  1.00  0.00     0.283 C 
BRANCH  10  11
HETATM   11  N2  UNL     1      22.581   2.687  51.016  1.00  0.00     0.089 N 
HETATM   12  C3  UNL     1      22.298   3.244  49.748  1.00  0.00     0.274 C 
HETATM   13  C2  UNL     1      23.547   3.615  48.969  1.00  0.00     0.065 C 
HETATM   14  C1  UNL     1      24.066   4.923  49.582  1.00  0.00     0.221 C 
HETATM   15  C18 UNL     1      23.739   4.873  51.043  1.00  0.00     0.065 C 
HETATM   16  C17 UNL     1      23.745   3.441  51.522  1.00  0.00     0.274 C 
BRANCH  14  17
HETATM   17  N1  UNL     1      23.430   6.057  48.924  1.00  0.00     0.083 N 
HETATM   18  H1  UNL     1      22.404   6.083  49.144  1.00  0.00     0.313 HD
HETATM   19  H2  UNL     1      23.510   5.996  47.891  1.00  0.00     0.313 HD
ENDBRANCH  14  17
ENDBRANCH  10  11
ENDBRANCH   1  10
BRANCH   8  20
HETATM   20  N6  UNL     1      25.181   0.506  53.163  1.00  0.00    -0.343 N 
HETATM   21  H14 UNL     1      25.068   1.229  52.387  1.00  0.00     0.167 HD
BRANCH  20  22
HETATM   22  C10 UNL     1      26.495   0.133  53.489  1.00  0.00     0.033 A 
HETATM   23  C11 UNL     1      27.274   0.650  54.498  1.00  0.00     0.029 A 
HETATM   24  C12 UNL     1      28.553   0.287  54.808  1.00  0.00     0.002 A 
HETATM   25  C13 UNL     1      29.150  -0.693  54.054  1.00  0.00     0.000 A 
HETATM   26  C14 UNL     1      28.439  -1.263  53.023  1.00  0.00     0.002 A 
HETATM   27  C15 UNL     1      27.162  -0.852  52.767  1.00  0.00     0.029 A 
ENDBRANCH  20  22
ENDBRANCH   8  20
TORSDOF 5
ENDMDL
MODEL 7
REMARK VINA RESULT:      -7.9      2.074      4.881
REMARK  5 active torsions:
REMARK  status: ('A' for Active; 'I' for Inactive)
REMARK    1  A    between atoms: N1_1  and  C1_2 
REMARK    2  A    between atoms: N2_5  and  C4_6 
REMARK    3  A    between atoms: C4_6  and  C5_7 
REMARK    4  A    between atoms: C9_14  and  N6_15 
REMARK    5  A    between atoms: N6_15  and  C10_16 
ROOT
HETATM    1  C5  UNL     1      22.801   2.030  50.908  1.00  0.00     0.070 C 
HETATM    2  C6  UNL     1      21.617   2.937  51.117  1.00  0.00     0.001 C 
HETATM    3  C7  UNL     1      21.200   2.583  52.345  1.00  0.00     0.110 C 
HETATM    4  N3  UNL     1      21.983   1.533  52.971  1.00  0.00    -0.267 N 
HETATM    5  N4  UNL     1      21.751   0.497  53.878  1.00  0.00    -0.165 NA
HETATM    6  C8  UNL     1      22.717  -0.378  54.037  1.00  0.00     0.257 C 
HETATM    7  N5  UNL     1      23.961  -0.324  53.365  1.00  0.00    -0.225 NA
HETATM    8  C9  UNL     1      24.187   0.663  52.533  1.00  0.00     0.131 C 
HETATM    9  C16 UNL     1      23.282   1.780  52.316  1.00  0.00     0.188 C 
ENDROOT
BRANCH   1  10
HETATM   10  C4  UNL     1      23.836   2.531  49.994  1.00  0.00     0.283 C 
BRANCH  10  11
HETATM   11  N2  UNL     1      24.835   3.404  50.469  1.00  0.00     0.089 N 
HETATM   12  C3  UNL     1      24.597   4.798  50.493  1.00  0.00     0.274 C 
HETATM   13  C2  UNL     1      24.819   5.463  49.146  1.00  0.00     0.065 C 
HETATM   14  C1  UNL     1      26.339   5.585  48.971  1.00  0.00     0.221 C 
HETATM   15  C18 UNL     1      26.947   4.394  49.646  1.00  0.00     0.065 C 
HETATM   16  C17 UNL     1      25.997   3.223  49.578  1.00  0.00     0.274 C 
BRANCH  14  17
HETATM   17  N1  UNL     1      26.800   6.835  49.560  1.00  0.00     0.083 N 
HETATM   18  H1  UNL     1      27.133   6.678  50.544  1.00  0.00     0.313 HD
HETATM   19  H2  UNL     1      26.038   7.538  49.614  1.00  0.00     0.313 HD
ENDBRANCH  14  17
ENDBRANCH  10  11
ENDBRANCH   1  10
BRANCH   8  20
HETATM   20  N6  UNL     1      25.457   0.619  51.905  1.00  0.00    -0.343 N 
HETATM   21  H14 UNL     1      25.501   0.413  50.859  1.00  0.00     0.167 HD
BRANCH  20  22
HETATM   22  C10 UNL     1      26.685   0.825  52.557  1.00  0.00     0.033 A 
HETATM   23  C11 UNL     1      27.235   2.034  52.916  1.00  0.00     0.029 A 
HETATM   24  C12 UNL     1      28.431   2.229  53.546  1.00  0.00     0.002 A 
HETATM   25  C13 UNL     1      29.183   1.127  53.868  1.00  0.00     0.000 A 
HETATM   26  C14 UNL     1      28.703  -0.121  53.543  1.00  0.00     0.002 A 
HETATM   27  C15 UNL     1      27.498  -0.246  52.912  1.00  0.00     0.029 A 
ENDBRANCH  20  22
ENDBRANCH   8  20
TORSDOF 5
ENDMDL
MODEL 8
REMARK VINA RESULT:      -7.6      1.574      5.440
REMARK  5 active torsions:
REMARK  status: ('A' for Active; 'I' for Inactive)
REMARK    1  A    between atoms: N1_1  and  C1_2 
REMARK    2  A    between atoms: N2_5  and  C4_6 
REMARK    3  A    between atoms: C4_6  and  C5_7 
REMARK    4  A    between atoms: C9_14  and  N6_15 
REMARK    5  A    between atoms: N6_15  and  C10_16 
ROOT
HETATM    1  C5  UNL     1      22.477  -0.820  53.055  1.00  0.00     0.070 C 
HETATM    2  C6  UNL     1      21.827  -1.392  54.286  1.00  0.00     0.001 C 
HETATM    3  C7  UNL     1      22.826  -1.344  55.184  1.00  0.00     0.110 C 
HETATM    4  N3  UNL     1      24.072  -0.801  54.675  1.00  0.00    -0.267 N 
HETATM    5  N4  UNL     1      25.434  -0.979  54.926  1.00  0.00    -0.165 NA
HETATM    6  C8  UNL     1      26.270  -0.419  54.082  1.00  0.00     0.257 C 
HETATM    7  N5  UNL     1      25.875   0.350  52.961  1.00  0.00    -0.225 NA
HETATM    8  C9  UNL     1      24.596   0.537  52.742  1.00  0.00     0.131 C 
HETATM    9  C16 UNL     1      23.536   0.090  53.629  1.00  0.00     0.188 C 
ENDROOT
BRANCH   1  10
HETATM   10  C4  UNL     1      21.572  -0.167  52.100  1.00  0.00     0.283 C 
BRANCH  10  11
HETATM   11  N2  UNL     1      20.465   0.571  52.566  1.00  0.00     0.089 N 
HETATM   12  C3  UNL     1      19.155   0.092  52.338  1.00  0.00     0.274 C 
HETATM   13  C2  UNL     1      18.637   0.415  50.948  1.00  0.00     0.065 C 
HETATM   14  C1  UNL     1      18.240   1.897  50.968  1.00  0.00     0.221 C 
HETATM   15  C18 UNL     1      19.192   2.584  51.899  1.00  0.00     0.065 C 
HETATM   16  C17 UNL     1      20.527   1.878  51.884  1.00  0.00     0.274 C 
BRANCH  14  17
HETATM   17  N1  UNL     1      16.859   2.028  51.412  1.00  0.00     0.083 N 
HETATM   18  H1  UNL     1      16.769   1.750  52.421  1.00  0.00     0.313 HD
HETATM   19  H2  UNL     1      16.223   1.408  50.876  1.00  0.00     0.313 HD
ENDBRANCH  14  17
ENDBRANCH  10  11
ENDBRANCH   1  10
BRANCH   8  20
HETATM   20  N6  UNL     1      24.309   1.311  51.590  1.00  0.00    -0.343 N 
HETATM   21  H14 UNL     1      24.356   0.839  50.634  1.00  0.00     0.167 HD
BRANCH  20  22
HETATM   22  C10 UNL     1      23.962   2.673  51.602  1.00  0.00     0.033 A 
HETATM   23  C11 UNL     1      23.811   3.476  52.709  1.00  0.00     0.029 A 
HETATM   24  C12 UNL     1      23.469   4.798  52.715  1.00  0.00     0.002 A 
HETATM   25  C13 UNL     1      23.249   5.417  51.510  1.00  0.00     0.000 A 
HETATM   26  C14 UNL     1      23.379   4.684  50.354  1.00  0.00     0.002 A 
HETATM   27  C15 UNL     1      23.724   3.364  50.418  1.00  0.00     0.029 A 
ENDBRANCH  20  22
ENDBRANCH   8  20
TORSDOF 5
ENDMDL
MODEL 9
REMARK VINA RESULT:      -7.5      1.813      5.645
REMARK  5 active torsions:
REMARK  status: ('A' for Active; 'I' for Inactive)
REMARK    1  A    between atoms: N1_1  and  C1_2 
REMARK    2  A    between atoms: N2_5  and  C4_6 
REMARK    3  A    between atoms: C4_6  and  C5_7 
REMARK    4  A    between atoms: C9_14  and  N6_15 
REMARK    5  A    between atoms: N6_15  and  C10_16 
ROOT
HETATM    1  C5  UNL     1      25.767   1.869  52.297  1.00  0.00     0.070 C 
HETATM    2  C6  UNL     1      27.068   2.590  52.058  1.00  0.00     0.001 C 
HETATM    3  C7  UNL     1      27.880   2.016  52.963  1.00  0.00     0.110 C 
HETATM    4  N3  UNL     1      27.253   0.992  53.778  1.00  0.00    -0.267 N 
HETATM    5  N4  UNL     1      27.400   0.494  55.074  1.00  0.00    -0.165 NA
HETATM    6  C8  UNL     1      26.471  -0.329  55.502  1.00  0.00     0.257 C 
HETATM    7  N5  UNL     1      25.356  -0.742  54.733  1.00  0.00    -0.225 NA
HETATM    8  C9  UNL     1      25.233  -0.293  53.508  1.00  0.00     0.131 C 
HETATM    9  C16 UNL     1      26.219   0.532  52.831  1.00  0.00     0.188 C 
ENDROOT
BRANCH   1  10
HETATM   10  C4  UNL     1      24.863   1.786  51.142  1.00  0.00     0.283 C 
BRANCH  10  11
HETATM   11  N2  UNL     1      23.707   2.591  51.091  1.00  0.00     0.089 N 
HETATM   12  C3  UNL     1      23.668   3.711  50.228  1.00  0.00     0.274 C 
HETATM   13  C2  UNL     1      24.354   4.935  50.811  1.00  0.00     0.065 C 
HETATM   14  C1  UNL     1      23.383   5.523  51.845  1.00  0.00     0.221 C 
HETATM   15  C18 UNL     1      22.648   4.366  52.450  1.00  0.00     0.065 C 
HETATM   16  C17 UNL     1      23.528   3.139  52.450  1.00  0.00     0.274 C 
BRANCH  14  17
HETATM   17  N1  UNL     1      22.478   6.456  51.189  1.00  0.00     0.083 N 
HETATM   18  H1  UNL     1      22.373   6.216  50.172  1.00  0.00     0.313 HD
HETATM   19  H2  UNL     1      22.835   7.430  51.228  1.00  0.00     0.313 HD
ENDBRANCH  14  17
ENDBRANCH  10  11
ENDBRANCH   1  10
BRANCH   8  20
HETATM   20  N6  UNL     1      24.078  -0.759  52.829  1.00  0.00    -0.343 N 
HETATM   21  H14 UNL     1      24.207  -1.417  52.000  1.00  0.00     0.167 HD
BRANCH  20  22
HETATM   22  C10 UNL     1      22.757  -0.419  53.164  1.00  0.00     0.033 A 
HETATM   23  C11 UNL     1      22.226  -0.319  54.429  1.00  0.00     0.029 A 
HETATM   24  C12 UNL     1      20.940   0.008  54.749  1.00  0.00     0.002 A 
HETATM   25  C13 UNL     1      20.063   0.270  53.726  1.00  0.00     0.000 A 
HETATM   26  C14 UNL     1      20.515   0.191  52.429  1.00  0.00     0.002 A 
HETATM   27  C15 UNL     1      21.815  -0.142  52.179  1.00  0.00     0.029 A 
ENDBRANCH  20  22
ENDBRANCH   8  20
TORSDOF 5
ENDMDL
