MODEL 1
REMARK VINA RESULT:      -7.1      0.000      0.000
REMARK  3 active torsions:
REMARK  status: ('A' for Active; 'I' for Inactive)
REMARK    1  A    between atoms: C5_6  and  N1_7 
REMARK    2  A    between atoms: N1_7  and  C6_8 
REMARK    3  A    between atoms: C13_18  and  C14_19 
ROOT
HETATM    1  C6  UNL     1      23.866   3.793  51.816  1.00  0.00     0.175 A 
HETATM    2  N2  UNL     1      22.707   4.027  51.179  1.00  0.00    -0.221 NA
HETATM    3  C7  UNL     1      22.782   4.126  49.819  1.00  0.00     0.382 A 
HETATM    4  N3  UNL     1      23.885   3.991  49.138  1.00  0.00     0.216 N 
HETATM    5  C8  UNL     1      25.144   3.757  49.406  1.00  0.00     0.509 A 
HETATM    6  C9  UNL     1      24.457   3.784  50.583  1.00  0.00     0.445 A 
HETATM    7  N4  UNL     1      25.708   4.598  50.660  1.00  0.00     0.015 N 
HETATM    8  C10 UNL     1      25.360   5.968  50.167  1.00  0.00     0.246 C 
HETATM    9  C11 UNL     1      24.944   6.131  48.770  1.00  0.00     0.066 C 
HETATM   10  C12 UNL     1      23.672   5.617  48.234  1.00  0.00    -0.053 C 
HETATM   11  C13 UNL     1      22.795   6.322  47.519  1.00  0.00    -0.009 C 
HETATM   12  O1  UNL     1      23.115   4.192  48.401  1.00  0.00     0.000 OA
HETATM   13  H6  UNL     1      26.734   4.540  50.959  1.00  0.00     0.286 HD
ENDROOT
BRANCH   1  14
HETATM   14  N1  UNL     1      24.568   3.590  53.001  1.00  0.00    -0.341 N 
HETATM   15  H4  UNL     1      24.837   4.332  53.683  1.00  0.00     0.167 HD
BRANCH  14  16
HETATM   16  C5  UNL     1      24.943   2.236  53.286  1.00  0.00     0.034 A 
HETATM   17  C4  UNL     1      24.028   1.214  53.077  1.00  0.00     0.029 A 
HETATM   18  C3  UNL     1      24.354  -0.119  53.340  1.00  0.00     0.004 A 
HETATM   19  C2  UNL     1      25.619  -0.378  53.816  1.00  0.00     0.019 A 
HETATM   20  C1  UNL     1      26.546   0.620  54.030  1.00  0.00     0.013 A 
HETATM   21 BR1  UNL     1      28.290   0.230  54.687  1.00  0.00    -0.051 Br
HETATM   22  C15 UNL     1      26.200   1.925  53.763  1.00  0.00     0.048 A 
ENDBRANCH  14  16
ENDBRANCH   1  14
BRANCH  11  23
HETATM   23  C14 UNL     1      22.696   7.695  47.017  1.00  0.00     0.107 C 
HETATM   24  I1  UNL     1      22.111   9.020  48.585  1.00  0.00    -0.086 I 
ENDBRANCH  11  23
TORSDOF 3
ENDMDL
MODEL 2
REMARK VINA RESULT:      -7.0      1.905      2.359
REMARK  3 active torsions:
REMARK  status: ('A' for Active; 'I' for Inactive)
REMARK    1  A    between atoms: C5_6  and  N1_7 
REMARK    2  A    between atoms: N1_7  and  C6_8 
REMARK    3  A    between atoms: C13_18  and  C14_19 
ROOT
HETATM    1  C6  UNL     1      23.808   3.164  51.545  1.00  0.00     0.175 A 
HETATM    2  N2  UNL     1      23.695   4.373  52.120  1.00  0.00    -0.221 NA
HETATM    3  C7  UNL     1      23.668   5.440  51.268  1.00  0.00     0.382 A 
HETATM    4  N3  UNL     1      23.728   5.338  49.970  1.00  0.00     0.216 N 
HETATM    5  C8  UNL     1      23.827   4.369  49.097  1.00  0.00     0.509 A 
HETATM    6  C9  UNL     1      23.812   3.818  50.344  1.00  0.00     0.445 A 
HETATM    7  N4  UNL     1      24.902   3.238  49.502  1.00  0.00     0.015 N 
HETATM    8  C10 UNL     1      26.093   4.130  49.666  1.00  0.00     0.246 C 
HETATM    9  C11 UNL     1      26.008   5.515  49.191  1.00  0.00     0.066 C 
HETATM   10  C12 UNL     1      25.156   6.540  49.817  1.00  0.00    -0.053 C 
HETATM   11  C13 UNL     1      25.556   7.758  50.184  1.00  0.00    -0.009 C 
HETATM   12  O1  UNL     1      23.664   6.402  50.172  1.00  0.00     0.000 OA
HETATM   13  H6  UNL     1      25.119   2.413  48.854  1.00  0.00     0.286 HD
ENDROOT
BRANCH   1  14
HETATM   14  N1  UNL     1      23.901   1.780  51.661  1.00  0.00    -0.341 N 
HETATM   15  H4  UNL     1      23.324   1.086  51.138  1.00  0.00     0.167 HD
BRANCH  14  16
HETATM   16  C5  UNL     1      24.880   1.291  52.587  1.00  0.00     0.034 A 
HETATM   17  C4  UNL     1      24.588   0.187  53.374  1.00  0.00     0.029 A 
HETATM   18  C3  UNL     1      25.515  -0.321  54.288  1.00  0.00     0.004 A 
HETATM   19  C2  UNL     1      26.731   0.318  54.375  1.00  0.00     0.019 A 
HETATM   20  C1  UNL     1      27.045   1.417  53.603  1.00  0.00     0.013 A 
HETATM   21 BR1  UNL     1      28.737   2.279  53.747  1.00  0.00    -0.051 Br
HETATM   22  C15 UNL     1      26.114   1.898  52.712  1.00  0.00     0.048 A 
ENDBRANCH  14  16
ENDBRANCH   1  14
BRANCH  11  23
HETATM   23  C14 UNL     1      26.807   8.519  50.145  1.00  0.00     0.107 C 
HETATM   24  I1  UNL     1      26.731   9.997  48.606  1.00  0.00    -0.086 I 
ENDBRANCH  11  23
TORSDOF 3
ENDMDL
MODEL 3
REMARK VINA RESULT:      -6.9      2.593      3.219
REMARK  3 active torsions:
REMARK  status: ('A' for Active; 'I' for Inactive)
REMARK    1  A    between atoms: C5_6  and  N1_7 
REMARK    2  A    between atoms: N1_7  and  C6_8 
REMARK    3  A    between atoms: C13_18  and  C14_19 
ROOT
HETATM    1  C6  UNL     1      25.159   3.434  50.686  1.00  0.00     0.175 A 
HETATM    2  N2  UNL     1      24.405   3.232  49.592  1.00  0.00    -0.221 NA
HETATM    3  C7  UNL     1      23.558   4.248  49.254  1.00  0.00     0.382 A 
HETATM    4  N3  UNL     1      23.465   5.369  49.913  1.00  0.00     0.216 N 
HETATM    5  C8  UNL     1      24.022   5.897  50.971  1.00  0.00     0.509 A 
HETATM    6  C9  UNL     1      24.558   4.659  50.782  1.00  0.00     0.445 A 
HETATM    7  N4  UNL     1      24.166   4.874  52.208  1.00  0.00     0.015 N 
HETATM    8  C10 UNL     1      22.727   4.478  52.323  1.00  0.00     0.246 C 
HETATM    9  C11 UNL     1      21.723   5.250  51.583  1.00  0.00     0.066 C 
HETATM   10  C12 UNL     1      21.607   5.239  50.114  1.00  0.00    -0.053 C 
HETATM   11  C13 UNL     1      20.481   5.034  49.430  1.00  0.00    -0.009 C 
HETATM   12  O1  UNL     1      22.748   5.451  49.102  1.00  0.00     0.000 OA
HETATM   13  H6  UNL     1      24.561   5.188  53.153  1.00  0.00     0.286 HD
ENDROOT
BRANCH   1  14
HETATM   14  N1  UNL     1      26.122   2.982  51.584  1.00  0.00    -0.341 N 
HETATM   15  H4  UNL     1      26.956   3.522  51.902  1.00  0.00     0.167 HD
BRANCH  14  16
HETATM   16  C5  UNL     1      25.928   1.659  52.100  1.00  0.00     0.034 A 
HETATM   17  C4  UNL     1      26.980   0.754  52.078  1.00  0.00     0.029 A 
HETATM   18  C3  UNL     1      26.833  -0.544  52.573  1.00  0.00     0.004 A 
HETATM   19  C2  UNL     1      25.602  -0.891  53.083  1.00  0.00     0.019 A 
HETATM   20  C1  UNL     1      24.542  -0.009  53.116  1.00  0.00     0.013 A 
HETATM   21 BR1  UNL     1      22.851  -0.517  53.829  1.00  0.00    -0.051 Br
HETATM   22  C15 UNL     1      24.713   1.264  52.622  1.00  0.00     0.048 A 
ENDBRANCH  14  16
ENDBRANCH   1  14
BRANCH  11  23
HETATM   23  C14 UNL     1      19.078   4.769  49.754  1.00  0.00     0.107 C 
HETATM   24  I1  UNL     1      18.676   2.674  49.664  1.00  0.00    -0.086 I 
ENDBRANCH  11  23
TORSDOF 3
ENDMDL
MODEL 4
REMARK VINA RESULT:      -6.8      1.724      2.004
REMARK  3 active torsions:
REMARK  status: ('A' for Active; 'I' for Inactive)
REMARK    1  A    between atoms: C5_6  and  N1_7 
REMARK    2  A    between atoms: N1_7  and  C6_8 
REMARK    3  A    between atoms: C13_18  and  C14_19 
ROOT
HETATM    1  C6  UNL     1      23.684   4.292  51.627  1.00  0.00     0.175 A 
HETATM    2  N2  UNL     1      22.592   4.646  50.928  1.00  0.00    -0.221 NA
HETATM    3  C7  UNL     1      22.753   4.741  49.575  1.00  0.00     0.382 A 
HETATM    4  N3  UNL     1      23.873   4.495  48.956  1.00  0.00     0.216 N 
HETATM    5  C8  UNL     1      25.084   4.134  49.292  1.00  0.00     0.509 A 
HETATM    6  C9  UNL     1      24.339   4.227  50.428  1.00  0.00     0.445 A 
HETATM    7  N4  UNL     1      25.660   4.909  50.582  1.00  0.00     0.015 N 
HETATM    8  C10 UNL     1      25.482   6.309  50.083  1.00  0.00     0.246 C 
HETATM    9  C11 UNL     1      25.164   6.517  48.666  1.00  0.00     0.066 C 
HETATM   10  C12 UNL     1      23.879   6.138  48.056  1.00  0.00    -0.053 C 
HETATM   11  C13 UNL     1      23.119   6.931  47.299  1.00  0.00    -0.009 C 
HETATM   12  O1  UNL     1      23.170   4.777  48.179  1.00  0.00     0.000 OA
HETATM   13  H6  UNL     1      26.657   4.745  50.937  1.00  0.00     0.286 HD
ENDROOT
BRANCH   1  14
HETATM   14  N1  UNL     1      24.294   4.016  52.847  1.00  0.00    -0.341 N 
HETATM   15  H4  UNL     1      24.605   4.725  53.546  1.00  0.00     0.167 HD
BRANCH  14  16
HETATM   16  C5  UNL     1      24.501   2.628  53.146  1.00  0.00     0.034 A 
HETATM   17  C4  UNL     1      25.748   2.200  53.578  1.00  0.00     0.029 A 
HETATM   18  C3  UNL     1      25.991   0.858  53.881  1.00  0.00     0.004 A 
HETATM   19  C2  UNL     1      24.944  -0.023  53.732  1.00  0.00     0.019 A 
HETATM   20  C1  UNL     1      23.696   0.379  53.304  1.00  0.00     0.013 A 
HETATM   21 BR1  UNL     1      22.266  -0.864  53.110  1.00  0.00    -0.051 Br
HETATM   22  C15 UNL     1      23.482   1.707  53.012  1.00  0.00     0.048 A 
ENDBRANCH  14  16
ENDBRANCH   1  14
BRANCH  11  23
HETATM   23  C14 UNL     1      23.190   8.308  46.804  1.00  0.00     0.107 C 
HETATM   24  I1  UNL     1      24.476   8.422  45.104  1.00  0.00    -0.086 I 
ENDBRANCH  11  23
TORSDOF 3
ENDMDL
MODEL 5
REMARK VINA RESULT:      -6.8      3.884      6.538
REMARK  3 active torsions:
REMARK  status: ('A' for Active; 'I' for Inactive)
REMARK    1  A    between atoms: C5_6  and  N1_7 
REMARK    2  A    between atoms: N1_7  and  C6_8 
REMARK    3  A    between atoms: C13_18  and  C14_19 
ROOT
HETATM    1  C6  UNL     1      25.490   3.526  49.764  1.00  0.00     0.175 A 
HETATM    2  N2  UNL     1      24.242   3.228  49.362  1.00  0.00    -0.221 NA
HETATM    3  C7  UNL     1      23.311   3.098  50.353  1.00  0.00     0.382 A 
HETATM    4  N3  UNL     1      23.568   3.261  51.620  1.00  0.00     0.216 N 
HETATM    5  C8  UNL     1      24.615   3.553  52.347  1.00  0.00     0.509 A 
HETATM    6  C9  UNL     1      24.999   3.528  51.040  1.00  0.00     0.445 A 
HETATM    7  N4  UNL     1      25.952   2.767  51.906  1.00  0.00     0.015 N 
HETATM    8  C10 UNL     1      25.419   1.372  52.009  1.00  0.00     0.246 C 
HETATM    9  C11 UNL     1      24.127   1.158  52.669  1.00  0.00     0.066 C 
HETATM   10  C12 UNL     1      22.841   1.605  52.108  1.00  0.00    -0.053 C 
HETATM   11  C13 UNL     1      21.752   0.847  51.970  1.00  0.00    -0.009 C 
HETATM   12  O1  UNL     1      22.513   3.010  51.570  1.00  0.00     0.000 OA
HETATM   13  H6  UNL     1      26.870   2.875  52.445  1.00  0.00     0.286 HD
ENDROOT
BRANCH   1  14
HETATM   14  N1  UNL     1      26.822   3.787  49.457  1.00  0.00    -0.341 N 
HETATM   15  H4  UNL     1      27.625   3.149  49.646  1.00  0.00     0.167 HD
BRANCH  14  16
HETATM   16  C5  UNL     1      27.087   5.047  48.827  1.00  0.00     0.034 A 
HETATM   17  C4  UNL     1      26.050   5.950  48.640  1.00  0.00     0.029 A 
HETATM   18  C3  UNL     1      26.265   7.189  48.032  1.00  0.00     0.004 A 
HETATM   19  C2  UNL     1      27.548   7.479  47.625  1.00  0.00     0.019 A 
HETATM   20  C1  UNL     1      28.595   6.598  47.801  1.00  0.00     0.013 A 
HETATM   21 BR1  UNL     1      30.360   7.029  47.229  1.00  0.00    -0.051 Br
HETATM   22  C15 UNL     1      28.356   5.384  48.402  1.00  0.00     0.048 A 
ENDBRANCH  14  16
ENDBRANCH   1  14
BRANCH  11  23
HETATM   23  C14 UNL     1      21.384  -0.541  52.261  1.00  0.00     0.107 C 
HETATM   24  I1  UNL     1      21.391  -0.886  54.368  1.00  0.00    -0.086 I 
ENDBRANCH  11  23
TORSDOF 3
ENDMDL
MODEL 6
REMARK VINA RESULT:      -6.6      3.088      3.987
REMARK  3 active torsions:
REMARK  status: ('A' for Active; 'I' for Inactive)
REMARK    1  A    between atoms: C5_6  and  N1_7 
REMARK    2  A    between atoms: N1_7  and  C6_8 
REMARK    3  A    between atoms: C13_18  and  C14_19 
ROOT
HETATM    1  C6  UNL     1      25.540   3.027  50.932  1.00  0.00     0.175 A 
HETATM    2  N2  UNL     1      24.714   2.204  50.264  1.00  0.00    -0.221 NA
HETATM    3  C7  UNL     1      23.516   2.739  49.884  1.00  0.00     0.382 A 
HETATM    4  N3  UNL     1      23.161   3.971  50.119  1.00  0.00     0.216 N 
HETATM    5  C8  UNL     1      23.686   5.015  50.705  1.00  0.00     0.509 A 
HETATM    6  C9  UNL     1      24.577   3.988  50.790  1.00  0.00     0.445 A 
HETATM    7  N4  UNL     1      24.410   4.678  52.105  1.00  0.00     0.015 N 
HETATM    8  C10 UNL     1      23.251   4.024  52.790  1.00  0.00     0.246 C 
HETATM    9  C11 UNL     1      21.920   4.137  52.185  1.00  0.00     0.066 C 
HETATM   10  C12 UNL     1      21.540   3.482  50.921  1.00  0.00    -0.053 C 
HETATM   11  C13 UNL     1      20.452   2.735  50.735  1.00  0.00    -0.009 C 
HETATM   12  O1  UNL     1      22.322   3.524  49.595  1.00  0.00     0.000 OA
HETATM   13  H6  UNL     1      24.840   5.447  52.714  1.00  0.00     0.286 HD
ENDROOT
BRANCH   1  14
HETATM   14  N1  UNL     1      26.751   3.249  51.581  1.00  0.00    -0.341 N 
HETATM   15  H4  UNL     1      27.296   4.138  51.562  1.00  0.00     0.167 HD
BRANCH  14  16
HETATM   16  C5  UNL     1      27.272   2.146  52.333  1.00  0.00     0.034 A 
HETATM   17  C4  UNL     1      28.201   2.379  53.338  1.00  0.00     0.029 A 
HETATM   18  C3  UNL     1      28.732   1.332  54.095  1.00  0.00     0.004 A 
HETATM   19  C2  UNL     1      28.298   0.058  53.804  1.00  0.00     0.019 A 
HETATM   20  C1  UNL     1      27.377  -0.198  52.811  1.00  0.00     0.013 A 
HETATM   21 BR1  UNL     1      26.794  -1.972  52.432  1.00  0.00    -0.051 Br
HETATM   22  C15 UNL     1      26.868   0.851  52.079  1.00  0.00     0.048 A 
ENDBRANCH  14  16
ENDBRANCH   1  14
BRANCH  11  23
HETATM   23  C14 UNL     1      19.318   2.292  51.550  1.00  0.00     0.107 C 
HETATM   24  I1  UNL     1      19.730   0.388  52.423  1.00  0.00    -0.086 I 
ENDBRANCH  11  23
TORSDOF 3
ENDMDL
MODEL 7
REMARK VINA RESULT:      -6.6      2.397      3.226
REMARK  3 active torsions:
REMARK  status: ('A' for Active; 'I' for Inactive)
REMARK    1  A    between atoms: C5_6  and  N1_7 
REMARK    2  A    between atoms: N1_7  and  C6_8 
REMARK    3  A    between atoms: C13_18  and  C14_19 
ROOT
HETATM    1  C6  UNL     1      23.563   3.140  50.673  1.00  0.00     0.175 A 
HETATM    2  N2  UNL     1      24.410   4.036  50.137  1.00  0.00    -0.221 NA
HETATM    3  C7  UNL     1      24.343   5.301  50.647  1.00  0.00     0.382 A 
HETATM    4  N3  UNL     1      23.536   5.658  51.605  1.00  0.00     0.216 N 
HETATM    5  C8  UNL     1      22.620   5.082  52.341  1.00  0.00     0.509 A 
HETATM    6  C9  UNL     1      23.128   4.150  51.486  1.00  0.00     0.445 A 
HETATM    7  N4  UNL     1      21.634   4.115  51.510  1.00  0.00     0.015 N 
HETATM    8  C10 UNL     1      21.164   5.114  50.499  1.00  0.00     0.246 C 
HETATM    9  C11 UNL     1      21.467   6.533  50.716  1.00  0.00     0.066 C 
HETATM   10  C12 UNL     1      22.825   7.097  50.638  1.00  0.00    -0.053 C 
HETATM   11  C13 UNL     1      23.176   8.172  49.932  1.00  0.00    -0.009 C 
HETATM   12  O1  UNL     1      24.084   6.557  51.341  1.00  0.00     0.000 OA
HETATM   13  H6  UNL     1      20.810   3.618  51.980  1.00  0.00     0.286 HD
ENDROOT
BRANCH   1  14
HETATM   14  N1  UNL     1      23.055   1.845  50.723  1.00  0.00    -0.341 N 
HETATM   15  H4  UNL     1      22.390   1.427  50.038  1.00  0.00     0.167 HD
BRANCH  14  16
HETATM   16  C5  UNL     1      23.500   1.038  51.822  1.00  0.00     0.034 A 
HETATM   17  C4  UNL     1      24.855   0.962  52.111  1.00  0.00     0.029 A 
HETATM   18  C3  UNL     1      25.330   0.189  53.173  1.00  0.00     0.004 A 
HETATM   19  C2  UNL     1      24.399  -0.496  53.921  1.00  0.00     0.019 A 
HETATM   20  C1  UNL     1      23.048  -0.436  53.653  1.00  0.00     0.013 A 
HETATM   21 BR1  UNL     1      21.784  -1.395  54.707  1.00  0.00    -0.051 Br
HETATM   22  C15 UNL     1      22.606   0.333  52.601  1.00  0.00     0.048 A 
ENDBRANCH  14  16
ENDBRANCH   1  14
BRANCH  11  23
HETATM   23  C14 UNL     1      22.500   9.130  49.055  1.00  0.00     0.107 C 
HETATM   24  I1  UNL     1      22.576   8.465  47.027  1.00  0.00    -0.086 I 
ENDBRANCH  11  23
TORSDOF 3
ENDMDL
MODEL 8
REMARK VINA RESULT:      -6.6      1.909      2.669
REMARK  3 active torsions:
REMARK  status: ('A' for Active; 'I' for Inactive)
REMARK    1  A    between atoms: C5_6  and  N1_7 
REMARK    2  A    between atoms: N1_7  and  C6_8 
REMARK    3  A    between atoms: C13_18  and  C14_19 
ROOT
HETATM    1  C6  UNL     1      23.663   3.050  50.814  1.00  0.00     0.175 A 
HETATM    2  N2  UNL     1      24.425   3.920  50.129  1.00  0.00    -0.221 NA
HETATM    3  C7  UNL     1      24.428   5.205  50.592  1.00  0.00     0.382 A 
HETATM    4  N3  UNL     1      23.762   5.604  51.639  1.00  0.00     0.216 N 
HETATM    5  C8  UNL     1      22.960   5.061  52.518  1.00  0.00     0.509 A 
HETATM    6  C9  UNL     1      23.344   4.093  51.639  1.00  0.00     0.445 A 
HETATM    7  N4  UNL     1      21.868   4.066  51.873  1.00  0.00     0.015 N 
HETATM    8  C10 UNL     1      21.260   5.026  50.898  1.00  0.00     0.246 C 
HETATM    9  C11 UNL     1      21.588   6.451  51.014  1.00  0.00     0.066 C 
HETATM   10  C12 UNL     1      22.921   7.006  50.725  1.00  0.00    -0.053 C 
HETATM   11  C13 UNL     1      23.169   8.050  49.934  1.00  0.00    -0.009 C 
HETATM   12  O1  UNL     1      24.267   6.488  51.265  1.00  0.00     0.000 OA
HETATM   13  H6  UNL     1      21.118   3.591  52.473  1.00  0.00     0.286 HD
ENDROOT
BRANCH   1  14
HETATM   14  N1  UNL     1      23.168   1.761  50.986  1.00  0.00    -0.341 N 
HETATM   15  H4  UNL     1      22.392   1.330  50.440  1.00  0.00     0.167 HD
BRANCH  14  16
HETATM   16  C5  UNL     1      23.798   0.978  52.010  1.00  0.00     0.034 A 
HETATM   17  C4  UNL     1      23.014   0.293  52.927  1.00  0.00     0.029 A 
HETATM   18  C3  UNL     1      23.587  -0.481  53.939  1.00  0.00     0.004 A 
HETATM   19  C2  UNL     1      24.962  -0.537  53.990  1.00  0.00     0.019 A 
HETATM   20  C1  UNL     1      25.761   0.135  53.090  1.00  0.00     0.013 A 
HETATM   21 BR1  UNL     1      27.661   0.038  53.185  1.00  0.00    -0.051 Br
HETATM   22  C15 UNL     1      25.172   0.892  52.102  1.00  0.00     0.048 A 
ENDBRANCH  14  16
ENDBRANCH   1  14
BRANCH  11  23
HETATM   23  C14 UNL     1      22.375   8.976  49.122  1.00  0.00     0.107 C 
HETATM   24  I1  UNL     1      22.172   8.233  47.131  1.00  0.00    -0.086 I 
ENDBRANCH  11  23
TORSDOF 3
ENDMDL
MODEL 9
REMARK VINA RESULT:      -6.5      1.707      2.042
REMARK  3 active torsions:
REMARK  status: ('A' for Active; 'I' for Inactive)
REMARK    1  A    between atoms: C5_6  and  N1_7 
REMARK    2  A    between atoms: N1_7  and  C6_8 
REMARK    3  A    between atoms: C13_18  and  C14_19 
ROOT
HETATM    1  C6  UNL     1      24.195   4.648  51.169  1.00  0.00     0.175 A 
HETATM    2  N2  UNL     1      23.906   4.376  49.885  1.00  0.00    -0.221 NA
HETATM    3  C7  UNL     1      24.338   5.291  48.968  1.00  0.00     0.382 A 
HETATM    4  N3  UNL     1      25.007   6.367  49.272  1.00  0.00     0.216 N 
HETATM    5  C8  UNL     1      25.458   6.929  50.364  1.00  0.00     0.509 A 
HETATM    6  C9  UNL     1      24.816   5.778  50.712  1.00  0.00     0.445 A 
HETATM    7  N4  UNL     1      24.401   6.921  51.582  1.00  0.00     0.015 N 
HETATM    8  C10 UNL     1      23.269   7.605  50.882  1.00  0.00     0.246 C 
HETATM    9  C11 UNL     1      23.525   8.249  49.589  1.00  0.00     0.066 C 
HETATM   10  C12 UNL     1      23.835   7.505  48.356  1.00  0.00    -0.053 C 
HETATM   11  C13 UNL     1      23.232   7.676  47.179  1.00  0.00    -0.009 C 
HETATM   12  O1  UNL     1      24.891   6.396  48.194  1.00  0.00     0.000 OA
HETATM   13  H6  UNL     1      24.622   7.390  52.519  1.00  0.00     0.286 HD
ENDROOT
BRANCH   1  14
HETATM   14  N1  UNL     1      24.130   4.304  52.516  1.00  0.00    -0.341 N 
HETATM   15  H4  UNL     1      24.023   4.972  53.309  1.00  0.00     0.167 HD
BRANCH  14  16
HETATM   16  C5  UNL     1      24.221   2.904  52.811  1.00  0.00     0.034 A 
HETATM   17  C4  UNL     1      23.137   2.077  52.551  1.00  0.00     0.029 A 
HETATM   18  C3  UNL     1      23.184   0.708  52.823  1.00  0.00     0.004 A 
HETATM   19  C2  UNL     1      24.350   0.211  53.360  1.00  0.00     0.019 A 
HETATM   20  C1  UNL     1      25.440   1.012  53.628  1.00  0.00     0.013 A 
HETATM   21 BR1  UNL     1      27.040   0.294  54.370  1.00  0.00    -0.051 Br
HETATM   22  C15 UNL     1      25.368   2.358  53.351  1.00  0.00     0.048 A 
ENDBRANCH  14  16
ENDBRANCH   1  14
BRANCH  11  23
HETATM   23  C14 UNL     1      22.169   8.532  46.647  1.00  0.00     0.107 C 
HETATM   24  I1  UNL     1      20.363   7.417  46.417  1.00  0.00    -0.086 I 
ENDBRANCH  11  23
TORSDOF 3
ENDMDL
