MODEL 1
REMARK VINA RESULT:      -8.7      0.000      0.000
REMARK  8 active torsions:
REMARK  status: ('A' for Active; 'I' for Inactive)
REMARK    1  A    between atoms: C2_2  and  C3_3 
REMARK       I    between atoms: C3_3  and  N1_5 
REMARK    2  A    between atoms: N1_5  and  C4_6 
REMARK    3  A    between atoms: N2_10  and  C8_11 
REMARK    4  A    between atoms: C11_14  and  C12_15 
REMARK    5  A    between atoms: C12_15  and  O2_16 
REMARK    6  A    between atoms: C12_15  and  C13_17 
REMARK    7  A    between atoms: C24_29  and  O3_30 
REMARK    8  A    between atoms: O3_30  and  N4_31 
ROOT
HETATM    1  C4  UNL     1      25.240  -0.185  53.697  1.00  0.00     0.071 C 
HETATM    2  C5  UNL     1      24.416   0.032  52.656  1.00  0.00     0.042 C 
HETATM    3  C6  UNL     1      23.042  -0.155  53.095  1.00  0.00    -0.025 A 
HETATM    4  C7  UNL     1      22.067   0.601  52.543  1.00  0.00     0.127 A 
HETATM    5  N2  UNL     1      20.693   0.541  52.878  1.00  0.00    -0.245 N 
HETATM    6  N3  UNL     1      20.346  -0.369  53.853  1.00  0.00    -0.183 NA
HETATM    7  C21 UNL     1      21.196  -1.144  54.438  1.00  0.00     0.125 A 
HETATM    8  C22 UNL     1      22.603  -1.123  54.101  1.00  0.00     0.088 A 
HETATM    9  C23 UNL     1      23.599  -1.241  55.171  1.00  0.00     0.030 C 
HETATM   10  C24 UNL     1      24.830  -0.804  54.952  1.00  0.00     0.122 C 
ENDROOT
BRANCH   5  11
HETATM   11  C8  UNL     1      19.693   1.347  52.279  1.00  0.00     0.058 A 
HETATM   12  C9  UNL     1      19.785   2.697  52.057  1.00  0.00     0.032 A 
HETATM   13  C10 UNL     1      18.791   3.453  51.470  1.00  0.00     0.012 A 
HETATM   14  C11 UNL     1      17.620   2.848  51.068  1.00  0.00    -0.025 A 
HETATM   15  C19 UNL     1      17.482   1.491  51.271  1.00  0.00     0.012 A 
HETATM   16  C20 UNL     1      18.506   0.780  51.863  1.00  0.00     0.032 A 
BRANCH  14  17
HETATM   17  C12 UNL     1      16.580   3.703  50.441  1.00  0.00     0.184 C 
BRANCH  17  18
HETATM   18  O2  UNL     1      17.023   5.013  50.275  1.00  0.00    -0.386 OA
HETATM   19  H12 UNL     1      16.627   5.566  51.006  1.00  0.00     0.210 HD
ENDBRANCH  17  18
BRANCH  17  20
HETATM   20  C13 UNL     1      15.440   3.780  51.419  1.00  0.00    -0.025 A 
HETATM   21  C14 UNL     1      15.574   4.296  52.700  1.00  0.00     0.010 A 
HETATM   22  C15 UNL     1      14.503   4.337  53.536  1.00  0.00     0.001 A 
HETATM   23  C16 UNL     1      13.273   3.881  53.157  1.00  0.00     0.000 A 
HETATM   24  C17 UNL     1      13.080   3.352  51.883  1.00  0.00     0.001 A 
HETATM   25  C18 UNL     1      14.182   3.328  51.069  1.00  0.00     0.010 A 
ENDBRANCH  17  20
ENDBRANCH  14  17
ENDBRANCH   5  11
BRANCH   1  26
HETATM   26  N1  UNL     1      26.640  -0.047  53.549  1.00  0.00    -0.325 N 
HETATM   27  C3  UNL     1      27.490   1.052  53.784  1.00  0.00     0.221 C 
HETATM   28  O1  UNL     1      26.995   2.129  54.194  1.00  0.00    -0.273 OA
HETATM   29  H6  UNL     1      27.245  -0.829  53.219  1.00  0.00     0.169 HD
BRANCH  27  30
HETATM   30  C2  UNL     1      28.959   1.127  53.609  1.00  0.00     0.098 C 
HETATM   31  C1  UNL     1      29.500  -0.285  53.648  1.00  0.00     0.014 C 
ENDBRANCH  27  30
ENDBRANCH   1  26
BRANCH  10  32
HETATM   32  O3  UNL     1      25.716  -0.975  56.009  1.00  0.00    -0.243 OA
BRANCH  32  33
HETATM   33  N4  UNL     1      25.328  -1.181  57.297  1.00  0.00    -0.305 N 
HETATM   34  H23 UNL     1      24.703  -1.988  57.438  1.00  0.00     0.184 HD
HETATM   35  H24 UNL     1      25.060  -0.316  57.806  1.00  0.00     0.184 HD
ENDBRANCH  32  33
ENDBRANCH  10  32
TORSDOF 8
ENDMDL
MODEL 2
REMARK VINA RESULT:      -8.4      3.484      5.025
REMARK  8 active torsions:
REMARK  status: ('A' for Active; 'I' for Inactive)
REMARK    1  A    between atoms: C2_2  and  C3_3 
REMARK       I    between atoms: C3_3  and  N1_5 
REMARK    2  A    between atoms: N1_5  and  C4_6 
REMARK    3  A    between atoms: N2_10  and  C8_11 
REMARK    4  A    between atoms: C11_14  and  C12_15 
REMARK    5  A    between atoms: C12_15  and  O2_16 
REMARK    6  A    between atoms: C12_15  and  C13_17 
REMARK    7  A    between atoms: C24_29  and  O3_30 
REMARK    8  A    between atoms: O3_30  and  N4_31 
ROOT
HETATM    1  C4  UNL     1      25.460   0.092  52.409  1.00  0.00     0.071 C 
HETATM    2  C5  UNL     1      24.389  -0.451  53.014  1.00  0.00     0.042 C 
HETATM    3  C6  UNL     1      23.245   0.430  52.830  1.00  0.00    -0.025 A 
HETATM    4  C7  UNL     1      22.013  -0.110  52.709  1.00  0.00     0.127 A 
HETATM    5  N2  UNL     1      20.814   0.618  52.513  1.00  0.00    -0.245 N 
HETATM    6  N3  UNL     1      20.942   1.988  52.438  1.00  0.00    -0.183 NA
HETATM    7  C21 UNL     1      22.070   2.604  52.549  1.00  0.00     0.125 A 
HETATM    8  C22 UNL     1      23.309   1.891  52.774  1.00  0.00     0.088 A 
HETATM    9  C23 UNL     1      24.525   2.327  52.079  1.00  0.00     0.030 C 
HETATM   10  C24 UNL     1      25.521   1.469  51.931  1.00  0.00     0.122 C 
ENDROOT
BRANCH   5  11
HETATM   11  C8  UNL     1      19.534   0.023  52.391  1.00  0.00     0.058 A 
HETATM   12  C9  UNL     1      18.703   0.133  51.305  1.00  0.00     0.032 A 
HETATM   13  C10 UNL     1      17.462  -0.461  51.220  1.00  0.00     0.012 A 
HETATM   14  C11 UNL     1      16.994  -1.221  52.270  1.00  0.00    -0.025 A 
HETATM   15  C19 UNL     1      17.794  -1.361  53.384  1.00  0.00     0.012 A 
HETATM   16  C20 UNL     1      19.029  -0.746  53.420  1.00  0.00     0.032 A 
BRANCH  14  17
HETATM   17  C12 UNL     1      15.651  -1.841  52.131  1.00  0.00     0.184 C 
BRANCH  17  18
HETATM   18  O2  UNL     1      14.680  -1.126  52.828  1.00  0.00    -0.386 OA
HETATM   19  H12 UNL     1      14.491  -0.288  52.319  1.00  0.00     0.210 HD
ENDBRANCH  17  18
BRANCH  17  20
HETATM   20  C13 UNL     1      15.727  -3.185  52.802  1.00  0.00    -0.025 A 
HETATM   21  C14 UNL     1      16.919  -3.863  53.008  1.00  0.00     0.010 A 
HETATM   22  C15 UNL     1      16.919  -5.076  53.622  1.00  0.00     0.001 A 
HETATM   23  C16 UNL     1      15.767  -5.666  54.054  1.00  0.00     0.000 A 
HETATM   24  C17 UNL     1      14.539  -5.032  53.874  1.00  0.00     0.001 A 
HETATM   25  C18 UNL     1      14.580  -3.812  53.252  1.00  0.00     0.010 A 
ENDBRANCH  17  20
ENDBRANCH  14  17
ENDBRANCH   5  11
BRANCH   1  26
HETATM   26  N1  UNL     1      26.707  -0.576  52.416  1.00  0.00    -0.325 N 
HETATM   27  C3  UNL     1      27.652  -0.757  53.444  1.00  0.00     0.221 C 
HETATM   28  O1  UNL     1      27.423  -0.271  54.577  1.00  0.00    -0.273 OA
HETATM   29  H6  UNL     1      27.088  -1.053  51.570  1.00  0.00     0.169 HD
BRANCH  27  30
HETATM   30  C2  UNL     1      28.947  -1.475  53.381  1.00  0.00     0.098 C 
HETATM   31  C1  UNL     1      30.049  -0.455  53.558  1.00  0.00     0.014 C 
ENDBRANCH  27  30
ENDBRANCH   1  26
BRANCH  10  32
HETATM   32  O3  UNL     1      26.644   1.971  51.282  1.00  0.00    -0.243 OA
BRANCH  32  33
HETATM   33  N4  UNL     1      26.806   3.281  50.953  1.00  0.00    -0.305 N 
HETATM   34  H23 UNL     1      27.778   3.561  50.756  1.00  0.00     0.184 HD
HETATM   35  H24 UNL     1      26.263   3.940  51.544  1.00  0.00     0.184 HD
ENDBRANCH  32  33
ENDBRANCH  10  32
TORSDOF 8
ENDMDL
MODEL 3
REMARK VINA RESULT:      -8.3      7.675     13.190
REMARK  8 active torsions:
REMARK  status: ('A' for Active; 'I' for Inactive)
REMARK    1  A    between atoms: C2_2  and  C3_3 
REMARK       I    between atoms: C3_3  and  N1_5 
REMARK    2  A    between atoms: N1_5  and  C4_6 
REMARK    3  A    between atoms: N2_10  and  C8_11 
REMARK    4  A    between atoms: C11_14  and  C12_15 
REMARK    5  A    between atoms: C12_15  and  O2_16 
REMARK    6  A    between atoms: C12_15  and  C13_17 
REMARK    7  A    between atoms: C24_29  and  O3_30 
REMARK    8  A    between atoms: O3_30  and  N4_31 
ROOT
HETATM    1  C4  UNL     1      25.052   3.420  50.570  1.00  0.00     0.071 C 
HETATM    2  C5  UNL     1      25.975   3.332  49.595  1.00  0.00     0.042 C 
HETATM    3  C6  UNL     1      26.305   4.672  49.136  1.00  0.00    -0.025 A 
HETATM    4  C7  UNL     1      27.565   4.934  48.723  1.00  0.00     0.127 A 
HETATM    5  N2  UNL     1      28.035   6.188  48.265  1.00  0.00    -0.245 N 
HETATM    6  N3  UNL     1      27.112   7.212  48.250  1.00  0.00    -0.183 NA
HETATM    7  C21 UNL     1      25.883   7.068  48.614  1.00  0.00     0.125 A 
HETATM    8  C22 UNL     1      25.367   5.793  49.065  1.00  0.00     0.088 A 
HETATM    9  C23 UNL     1      24.435   5.756  50.197  1.00  0.00     0.030 C 
HETATM   10  C24 UNL     1      24.298   4.629  50.878  1.00  0.00     0.122 C 
ENDROOT
BRANCH   5  11
HETATM   11  C8  UNL     1      29.363   6.432  47.837  1.00  0.00     0.058 A 
HETATM   12  C9  UNL     1      29.739   7.341  46.882  1.00  0.00     0.032 A 
HETATM   13  C10 UNL     1      31.044   7.553  46.489  1.00  0.00     0.012 A 
HETATM   14  C11 UNL     1      32.060   6.826  47.071  1.00  0.00    -0.025 A 
HETATM   15  C19 UNL     1      31.730   5.899  48.037  1.00  0.00     0.012 A 
HETATM   16  C20 UNL     1      30.409   5.725  48.395  1.00  0.00     0.032 A 
BRANCH  14  17
HETATM   17  C12 UNL     1      33.449   7.090  46.615  1.00  0.00     0.184 C 
BRANCH  17  18
HETATM   18  O2  UNL     1      33.470   7.824  45.431  1.00  0.00    -0.386 OA
HETATM   19  H12 UNL     1      32.975   8.677  45.589  1.00  0.00     0.210 HD
ENDBRANCH  17  18
BRANCH  17  20
HETATM   20  C13 UNL     1      34.052   5.755  46.277  1.00  0.00    -0.025 A 
HETATM   21  C14 UNL     1      34.121   5.260  44.983  1.00  0.00     0.010 A 
HETATM   22  C15 UNL     1      34.678   4.043  44.745  1.00  0.00     0.001 A 
HETATM   23  C16 UNL     1      35.186   3.272  45.750  1.00  0.00     0.000 A 
HETATM   24  C17 UNL     1      35.143   3.717  47.070  1.00  0.00     0.001 A 
HETATM   25  C18 UNL     1      34.574   4.948  47.270  1.00  0.00     0.010 A 
ENDBRANCH  17  20
ENDBRANCH  14  17
ENDBRANCH   5  11
BRANCH   1  26
HETATM   26  N1  UNL     1      24.569   2.255  51.212  1.00  0.00    -0.325 N 
HETATM   27  C3  UNL     1      24.764   1.774  52.521  1.00  0.00     0.221 C 
HETATM   28  O1  UNL     1      25.479   2.433  53.314  1.00  0.00    -0.273 OA
HETATM   29  H6  UNL     1      23.953   1.568  50.728  1.00  0.00     0.169 HD
BRANCH  27  30
HETATM   30  C2  UNL     1      24.222   0.538  53.132  1.00  0.00     0.098 C 
HETATM   31  C1  UNL     1      25.393  -0.333  53.528  1.00  0.00     0.014 C 
ENDBRANCH  27  30
ENDBRANCH   1  26
BRANCH  10  32
HETATM   32  O3  UNL     1      23.378   4.674  51.919  1.00  0.00    -0.243 OA
BRANCH  32  33
HETATM   33  N4  UNL     1      23.667   5.137  53.166  1.00  0.00    -0.305 N 
HETATM   34  H23 UNL     1      22.854   5.476  53.702  1.00  0.00     0.184 HD
HETATM   35  H24 UNL     1      24.513   5.737  53.214  1.00  0.00     0.184 HD
ENDBRANCH  32  33
ENDBRANCH  10  32
TORSDOF 8
ENDMDL
MODEL 4
REMARK VINA RESULT:      -8.2      7.083      9.216
REMARK  8 active torsions:
REMARK  status: ('A' for Active; 'I' for Inactive)
REMARK    1  A    between atoms: C2_2  and  C3_3 
REMARK       I    between atoms: C3_3  and  N1_5 
REMARK    2  A    between atoms: N1_5  and  C4_6 
REMARK    3  A    between atoms: N2_10  and  C8_11 
REMARK    4  A    between atoms: C11_14  and  C12_15 
REMARK    5  A    between atoms: C12_15  and  O2_16 
REMARK    6  A    between atoms: C12_15  and  C13_17 
REMARK    7  A    between atoms: C24_29  and  O3_30 
REMARK    8  A    between atoms: O3_30  and  N4_31 
ROOT
HETATM    1  C4  UNL     1      27.276   8.484  48.010  1.00  0.00     0.071 C 
HETATM    2  C5  UNL     1      26.115   7.820  47.874  1.00  0.00     0.042 C 
HETATM    3  C6  UNL     1      26.281   6.470  48.390  1.00  0.00    -0.025 A 
HETATM    4  C7  UNL     1      25.232   5.861  48.987  1.00  0.00     0.127 A 
HETATM    5  N2  UNL     1      25.248   4.561  49.547  1.00  0.00    -0.245 N 
HETATM    6  N3  UNL     1      26.444   3.882  49.467  1.00  0.00    -0.183 NA
HETATM    7  C21 UNL     1      27.503   4.367  48.912  1.00  0.00     0.125 A 
HETATM    8  C22 UNL     1      27.512   5.683  48.310  1.00  0.00     0.088 A 
HETATM    9  C23 UNL     1      28.686   6.544  48.486  1.00  0.00     0.030 C 
HETATM   10  C24 UNL     1      28.551   7.852  48.329  1.00  0.00     0.122 C 
ENDROOT
BRANCH   5  11
HETATM   11  C8  UNL     1      24.130   3.948  50.165  1.00  0.00     0.058 A 
HETATM   12  C9  UNL     1      23.745   4.124  51.469  1.00  0.00     0.032 A 
HETATM   13  C10 UNL     1      22.649   3.511  52.040  1.00  0.00     0.012 A 
HETATM   14  C11 UNL     1      21.867   2.665  51.283  1.00  0.00    -0.025 A 
HETATM   15  C19 UNL     1      22.215   2.458  49.965  1.00  0.00     0.012 A 
HETATM   16  C20 UNL     1      23.321   3.094  49.442  1.00  0.00     0.032 A 
BRANCH  14  17
HETATM   17  C12 UNL     1      20.697   2.030  51.942  1.00  0.00     0.184 C 
BRANCH  17  18
HETATM   18  O2  UNL     1      20.084   2.895  52.845  1.00  0.00    -0.386 OA
HETATM   19  H12 UNL     1      20.491   3.800  52.729  1.00  0.00     0.210 HD
ENDBRANCH  17  18
BRANCH  17  20
HETATM   20  C13 UNL     1      21.234   0.893  52.767  1.00  0.00    -0.025 A 
HETATM   21  C14 UNL     1      22.168  -0.015  52.290  1.00  0.00     0.010 A 
HETATM   22  C15 UNL     1      22.613  -1.021  53.088  1.00  0.00     0.001 A 
HETATM   23  C16 UNL     1      22.168  -1.178  54.369  1.00  0.00     0.000 A 
HETATM   24  C17 UNL     1      21.229  -0.296  54.901  1.00  0.00     0.001 A 
HETATM   25  C18 UNL     1      20.805   0.705  54.067  1.00  0.00     0.010 A 
ENDBRANCH  17  20
ENDBRANCH  14  17
ENDBRANCH   5  11
BRANCH   1  26
HETATM   26  N1  UNL     1      27.385   9.836  47.604  1.00  0.00    -0.325 N 
HETATM   27  C3  UNL     1      27.489  11.021  48.358  1.00  0.00     0.221 C 
HETATM   28  O1  UNL     1      27.491  10.950  49.610  1.00  0.00    -0.273 OA
HETATM   29  H6  UNL     1      27.404  10.116  46.600  1.00  0.00     0.169 HD
BRANCH  27  30
HETATM   30  C2  UNL     1      27.603  12.413  47.865  1.00  0.00     0.098 C 
HETATM   31  C1  UNL     1      29.071  12.778  47.849  1.00  0.00     0.014 C 
ENDBRANCH  27  30
ENDBRANCH   1  26
BRANCH  10  32
HETATM   32  O3  UNL     1      29.717   8.591  48.491  1.00  0.00    -0.243 OA
BRANCH  32  33
HETATM   33  N4  UNL     1      30.178   9.025  49.695  1.00  0.00    -0.305 N 
HETATM   34  H23 UNL     1      30.629   8.301  50.273  1.00  0.00     0.184 HD
HETATM   35  H24 UNL     1      29.526   9.657  50.200  1.00  0.00     0.184 HD
ENDBRANCH  32  33
ENDBRANCH  10  32
TORSDOF 8
ENDMDL
MODEL 5
REMARK VINA RESULT:      -8.2      2.635      3.708
REMARK  8 active torsions:
REMARK  status: ('A' for Active; 'I' for Inactive)
REMARK    1  A    between atoms: C2_2  and  C3_3 
REMARK       I    between atoms: C3_3  and  N1_5 
REMARK    2  A    between atoms: N1_5  and  C4_6 
REMARK    3  A    between atoms: N2_10  and  C8_11 
REMARK    4  A    between atoms: C11_14  and  C12_15 
REMARK    5  A    between atoms: C12_15  and  O2_16 
REMARK    6  A    between atoms: C12_15  and  C13_17 
REMARK    7  A    between atoms: C24_29  and  O3_30 
REMARK    8  A    between atoms: O3_30  and  N4_31 
ROOT
HETATM    1  C4  UNL     1      25.467   0.493  52.661  1.00  0.00     0.071 C 
HETATM    2  C5  UNL     1      24.373   0.031  53.292  1.00  0.00     0.042 C 
HETATM    3  C6  UNL     1      23.226   0.833  52.897  1.00  0.00    -0.025 A 
HETATM    4  C7  UNL     1      22.013   0.245  52.806  1.00  0.00     0.127 A 
HETATM    5  N2  UNL     1      20.813   0.892  52.422  1.00  0.00    -0.245 N 
HETATM    6  N3  UNL     1      20.919   2.232  52.118  1.00  0.00    -0.183 NA
HETATM    7  C21 UNL     1      22.026   2.891  52.180  1.00  0.00     0.125 A 
HETATM    8  C22 UNL     1      23.264   2.264  52.592  1.00  0.00     0.088 A 
HETATM    9  C23 UNL     1      24.509   2.610  51.898  1.00  0.00     0.030 C 
HETATM   10  C24 UNL     1      25.529   1.768  51.956  1.00  0.00     0.122 C 
ENDROOT
BRANCH   5  11
HETATM   11  C8  UNL     1      19.555   0.248  52.337  1.00  0.00     0.058 A 
HETATM   12  C9  UNL     1      19.068  -0.671  53.231  1.00  0.00     0.032 A 
HETATM   13  C10 UNL     1      17.835  -1.280  53.118  1.00  0.00     0.012 A 
HETATM   14  C11 UNL     1      17.015  -0.970  52.055  1.00  0.00    -0.025 A 
HETATM   15  C19 UNL     1      17.461  -0.051  51.130  1.00  0.00     0.012 A 
HETATM   16  C20 UNL     1      18.703   0.530  51.288  1.00  0.00     0.032 A 
BRANCH  14  17
HETATM   17  C12 UNL     1      15.696  -1.651  51.977  1.00  0.00     0.184 C 
BRANCH  17  18
HETATM   18  O2  UNL     1      15.497  -2.242  50.732  1.00  0.00    -0.386 OA
HETATM   19  H12 UNL     1      15.176  -3.176  50.883  1.00  0.00     0.210 HD
ENDBRANCH  17  18
BRANCH  17  20
HETATM   20  C13 UNL     1      14.651  -0.577  52.090  1.00  0.00    -0.025 A 
HETATM   21  C14 UNL     1      14.523   0.244  53.201  1.00  0.00     0.010 A 
HETATM   22  C15 UNL     1      13.555   1.198  53.240  1.00  0.00     0.001 A 
HETATM   23  C16 UNL     1      12.684   1.385  52.206  1.00  0.00     0.000 A 
HETATM   24  C17 UNL     1      12.764   0.589  51.065  1.00  0.00     0.001 A 
HETATM   25  C18 UNL     1      13.752  -0.360  51.063  1.00  0.00     0.010 A 
ENDBRANCH  17  20
ENDBRANCH  14  17
ENDBRANCH   5  11
BRANCH   1  26
HETATM   26  N1  UNL     1      26.725  -0.127  52.850  1.00  0.00    -0.325 N 
HETATM   27  C3  UNL     1      27.713   0.071  53.833  1.00  0.00     0.221 C 
HETATM   28  O1  UNL     1      27.521   0.928  54.728  1.00  0.00    -0.273 OA
HETATM   29  H6  UNL     1      27.079  -0.873  52.214  1.00  0.00     0.169 HD
BRANCH  27  30
HETATM   30  C2  UNL     1      29.016  -0.621  53.974  1.00  0.00     0.098 C 
HETATM   31  C1  UNL     1      28.950  -1.897  53.165  1.00  0.00     0.014 C 
ENDBRANCH  27  30
ENDBRANCH   1  26
BRANCH  10  32
HETATM   32  O3  UNL     1      26.678   2.183  51.291  1.00  0.00    -0.243 OA
BRANCH  32  33
HETATM   33  N4  UNL     1      26.838   3.426  50.760  1.00  0.00    -0.305 N 
HETATM   34  H23 UNL     1      26.623   4.203  51.401  1.00  0.00     0.184 HD
HETATM   35  H24 UNL     1      26.467   3.529  49.795  1.00  0.00     0.184 HD
ENDBRANCH  32  33
ENDBRANCH  10  32
TORSDOF 8
ENDMDL
MODEL 6
REMARK VINA RESULT:      -8.2      3.867      5.281
REMARK  8 active torsions:
REMARK  status: ('A' for Active; 'I' for Inactive)
REMARK    1  A    between atoms: C2_2  and  C3_3 
REMARK       I    between atoms: C3_3  and  N1_5 
REMARK    2  A    between atoms: N1_5  and  C4_6 
REMARK    3  A    between atoms: N2_10  and  C8_11 
REMARK    4  A    between atoms: C11_14  and  C12_15 
REMARK    5  A    between atoms: C12_15  and  O2_16 
REMARK    6  A    between atoms: C12_15  and  C13_17 
REMARK    7  A    between atoms: C24_29  and  O3_30 
REMARK    8  A    between atoms: O3_30  and  N4_31 
ROOT
HETATM    1  C4  UNL     1      25.930   0.191  52.989  1.00  0.00     0.071 C 
HETATM    2  C5  UNL     1      25.509   0.933  51.950  1.00  0.00     0.042 C 
HETATM    3  C6  UNL     1      24.100   1.245  52.133  1.00  0.00    -0.025 A 
HETATM    4  C7  UNL     1      23.626   2.430  51.689  1.00  0.00     0.127 A 
HETATM    5  N2  UNL     1      22.287   2.876  51.808  1.00  0.00    -0.245 N 
HETATM    6  N3  UNL     1      21.416   2.012  52.437  1.00  0.00    -0.183 NA
HETATM    7  C21 UNL     1      21.762   0.856  52.890  1.00  0.00     0.125 A 
HETATM    8  C22 UNL     1      23.117   0.362  52.762  1.00  0.00     0.088 A 
HETATM    9  C23 UNL     1      23.723  -0.370  53.880  1.00  0.00     0.030 C 
HETATM   10  C24 UNL     1      25.042  -0.444  53.957  1.00  0.00     0.122 C 
ENDROOT
BRANCH   5  11
HETATM   11  C8  UNL     1      21.820   4.124  51.330  1.00  0.00     0.058 A 
HETATM   12  C9  UNL     1      22.434   5.335  51.529  1.00  0.00     0.032 A 
HETATM   13  C10 UNL     1      21.951   6.534  51.048  1.00  0.00     0.012 A 
HETATM   14  C11 UNL     1      20.783   6.556  50.317  1.00  0.00    -0.025 A 
HETATM   15  C19 UNL     1      20.130   5.363  50.091  1.00  0.00     0.012 A 
HETATM   16  C20 UNL     1      20.654   4.191  50.594  1.00  0.00     0.032 A 
BRANCH  14  17
HETATM   17  C12 UNL     1      20.303   7.871  49.820  1.00  0.00     0.184 C 
BRANCH  17  18
HETATM   18  O2  UNL     1      19.044   7.770  49.234  1.00  0.00    -0.386 OA
HETATM   19  H12 UNL     1      18.722   6.832  49.356  1.00  0.00     0.210 HD
ENDBRANCH  17  18
BRANCH  17  20
HETATM   20  C13 UNL     1      21.236   8.278  48.712  1.00  0.00    -0.025 A 
HETATM   21  C14 UNL     1      22.145   9.318  48.831  1.00  0.00     0.010 A 
HETATM   22  C15 UNL     1      22.961   9.636  47.790  1.00  0.00     0.001 A 
HETATM   23  C16 UNL     1      22.920   8.956  46.608  1.00  0.00     0.000 A 
HETATM   24  C17 UNL     1      22.026   7.901  46.431  1.00  0.00     0.001 A 
HETATM   25  C18 UNL     1      21.222   7.611  47.502  1.00  0.00     0.010 A 
ENDBRANCH  17  20
ENDBRANCH  14  17
ENDBRANCH   5  11
BRANCH   1  26
HETATM   26  N1  UNL     1      27.277  -0.233  53.073  1.00  0.00    -0.325 N 
HETATM   27  C3  UNL     1      28.383   0.328  53.742  1.00  0.00     0.221 C 
HETATM   28  O1  UNL     1      28.227   1.387  54.396  1.00  0.00    -0.273 OA
HETATM   29  H6  UNL     1      27.620  -1.097  52.600  1.00  0.00     0.169 HD
BRANCH  27  30
HETATM   30  C2  UNL     1      29.775  -0.175  53.790  1.00  0.00     0.098 C 
HETATM   31  C1  UNL     1      29.746  -1.648  53.449  1.00  0.00     0.014 C 
ENDBRANCH  27  30
ENDBRANCH   1  26
BRANCH  10  32
HETATM   32  O3  UNL     1      25.532  -1.175  55.033  1.00  0.00    -0.243 OA
BRANCH  32  33
HETATM   33  N4  UNL     1      24.816  -1.439  56.159  1.00  0.00    -0.305 N 
HETATM   34  H23 UNL     1      25.277  -2.070  56.829  1.00  0.00     0.184 HD
HETATM   35  H24 UNL     1      23.808  -1.628  55.990  1.00  0.00     0.184 HD
ENDBRANCH  32  33
ENDBRANCH  10  32
TORSDOF 8
ENDMDL
MODEL 7
REMARK VINA RESULT:      -8.0      6.956     11.037
REMARK  8 active torsions:
REMARK  status: ('A' for Active; 'I' for Inactive)
REMARK    1  A    between atoms: C2_2  and  C3_3 
REMARK       I    between atoms: C3_3  and  N1_5 
REMARK    2  A    between atoms: N1_5  and  C4_6 
REMARK    3  A    between atoms: N2_10  and  C8_11 
REMARK    4  A    between atoms: C11_14  and  C12_15 
REMARK    5  A    between atoms: C12_15  and  O2_16 
REMARK    6  A    between atoms: C12_15  and  C13_17 
REMARK    7  A    between atoms: C24_29  and  O3_30 
REMARK    8  A    between atoms: O3_30  and  N4_31 
ROOT
HETATM    1  C4  UNL     1      26.596   8.269  48.384  1.00  0.00     0.071 C 
HETATM    2  C5  UNL     1      26.420   7.622  49.550  1.00  0.00     0.042 C 
HETATM    3  C6  UNL     1      25.461   6.546  49.352  1.00  0.00    -0.025 A 
HETATM    4  C7  UNL     1      25.599   5.404  50.061  1.00  0.00     0.127 A 
HETATM    5  N2  UNL     1      24.755   4.271  49.966  1.00  0.00    -0.245 N 
HETATM    6  N3  UNL     1      23.716   4.365  49.066  1.00  0.00    -0.183 NA
HETATM    7  C21 UNL     1      23.489   5.411  48.346  1.00  0.00     0.125 A 
HETATM    8  C22 UNL     1      24.319   6.593  48.438  1.00  0.00     0.088 A 
HETATM    9  C23 UNL     1      24.669   7.321  47.214  1.00  0.00     0.030 C 
HETATM   10  C24 UNL     1      25.734   8.108  47.219  1.00  0.00     0.122 C 
ENDROOT
BRANCH   5  11
HETATM   11  C8  UNL     1      24.925   3.087  50.725  1.00  0.00     0.058 A 
HETATM   12  C9  UNL     1      23.941   2.445  51.432  1.00  0.00     0.032 A 
HETATM   13  C10 UNL     1      24.141   1.291  52.161  1.00  0.00     0.012 A 
HETATM   14  C11 UNL     1      25.394   0.719  52.204  1.00  0.00    -0.025 A 
HETATM   15  C19 UNL     1      26.416   1.329  51.508  1.00  0.00     0.012 A 
HETATM   16  C20 UNL     1      26.164   2.482  50.794  1.00  0.00     0.032 A 
BRANCH  14  17
HETATM   17  C12 UNL     1      25.560  -0.523  53.002  1.00  0.00     0.184 C 
BRANCH  17  18
HETATM   18  O2  UNL     1      24.828  -0.474  54.186  1.00  0.00    -0.386 OA
HETATM   19  H12 UNL     1      25.453  -0.223  54.924  1.00  0.00     0.210 HD
ENDBRANCH  17  18
BRANCH  17  20
HETATM   20  C13 UNL     1      27.004  -0.576  53.419  1.00  0.00    -0.025 A 
HETATM   21  C14 UNL     1      27.561   0.302  54.337  1.00  0.00     0.010 A 
HETATM   22  C15 UNL     1      28.874   0.201  54.671  1.00  0.00     0.001 A 
HETATM   23  C16 UNL     1      29.686  -0.752  54.128  1.00  0.00     0.000 A 
HETATM   24  C17 UNL     1      29.182  -1.661  53.199  1.00  0.00     0.001 A 
HETATM   25  C18 UNL     1      27.855  -1.527  52.888  1.00  0.00     0.010 A 
ENDBRANCH  17  20
ENDBRANCH  14  17
ENDBRANCH   5  11
BRANCH   1  26
HETATM   26  N1  UNL     1      27.501   9.352  48.290  1.00  0.00    -0.325 N 
HETATM   27  C3  UNL     1      27.331  10.724  48.561  1.00  0.00     0.221 C 
HETATM   28  O1  UNL     1      26.214  11.135  48.954  1.00  0.00    -0.273 OA
HETATM   29  H6  UNL     1      28.489   9.227  47.982  1.00  0.00     0.169 HD
BRANCH  27  30
HETATM   30  C2  UNL     1      28.331  11.811  48.443  1.00  0.00     0.098 C 
HETATM   31  C1  UNL     1      29.662  11.178  48.105  1.00  0.00     0.014 C 
ENDBRANCH  27  30
ENDBRANCH   1  26
BRANCH  10  32
HETATM   32  O3  UNL     1      25.980   8.777  46.026  1.00  0.00    -0.243 OA
BRANCH  32  33
HETATM   33  N4  UNL     1      25.242   9.830  45.581  1.00  0.00    -0.305 N 
HETATM   34  H23 UNL     1      25.307  10.680  46.159  1.00  0.00     0.184 HD
HETATM   35  H24 UNL     1      24.284   9.577  45.267  1.00  0.00     0.184 HD
ENDBRANCH  32  33
ENDBRANCH  10  32
TORSDOF 8
ENDMDL
MODEL 8
REMARK VINA RESULT:      -7.9      7.626     13.292
REMARK  8 active torsions:
REMARK  status: ('A' for Active; 'I' for Inactive)
REMARK    1  A    between atoms: C2_2  and  C3_3 
REMARK       I    between atoms: C3_3  and  N1_5 
REMARK    2  A    between atoms: N1_5  and  C4_6 
REMARK    3  A    between atoms: N2_10  and  C8_11 
REMARK    4  A    between atoms: C11_14  and  C12_15 
REMARK    5  A    between atoms: C12_15  and  O2_16 
REMARK    6  A    between atoms: C12_15  and  C13_17 
REMARK    7  A    between atoms: C24_29  and  O3_30 
REMARK    8  A    between atoms: O3_30  and  N4_31 
ROOT
HETATM    1  C4  UNL     1      24.457   3.950  50.562  1.00  0.00     0.071 C 
HETATM    2  C5  UNL     1      25.518   3.707  49.772  1.00  0.00     0.042 C 
HETATM    3  C6  UNL     1      25.904   4.942  49.106  1.00  0.00    -0.025 A 
HETATM    4  C7  UNL     1      27.210   5.165  48.840  1.00  0.00     0.127 A 
HETATM    5  N2  UNL     1      27.733   6.321  48.213  1.00  0.00    -0.245 N 
HETATM    6  N3  UNL     1      26.815   7.285  47.856  1.00  0.00    -0.183 NA
HETATM    7  C21 UNL     1      25.546   7.168  48.056  1.00  0.00     0.125 A 
HETATM    8  C22 UNL     1      24.977   5.989  48.673  1.00  0.00     0.088 A 
HETATM    9  C23 UNL     1      23.884   6.141  49.639  1.00  0.00     0.030 C 
HETATM   10  C24 UNL     1      23.654   5.167  50.505  1.00  0.00     0.122 C 
ENDROOT
BRANCH   5  11
HETATM   11  C8  UNL     1      29.109   6.526  47.946  1.00  0.00     0.058 A 
HETATM   12  C9  UNL     1      29.624   7.459  47.082  1.00  0.00     0.032 A 
HETATM   13  C10 UNL     1      30.971   7.633  46.847  1.00  0.00     0.012 A 
HETATM   14  C11 UNL     1      31.888   6.839  47.502  1.00  0.00    -0.025 A 
HETATM   15  C19 UNL     1      31.418   5.887  48.381  1.00  0.00     0.012 A 
HETATM   16  C20 UNL     1      30.060   5.753  48.582  1.00  0.00     0.032 A 
BRANCH  14  17
HETATM   17  C12 UNL     1      33.328   7.064  47.215  1.00  0.00     0.184 C 
BRANCH  17  18
HETATM   18  O2  UNL     1      33.509   7.815  46.056  1.00  0.00    -0.386 OA
HETATM   19  H12 UNL     1      32.950   7.408  45.335  1.00  0.00     0.210 HD
ENDBRANCH  17  18
BRANCH  17  20
HETATM   20  C13 UNL     1      33.923   5.715  46.923  1.00  0.00    -0.025 A 
HETATM   21  C14 UNL     1      34.521   4.924  47.893  1.00  0.00     0.010 A 
HETATM   22  C15 UNL     1      35.041   3.712  47.563  1.00  0.00     0.001 A 
HETATM   23  C16 UNL     1      34.998   3.231  46.286  1.00  0.00     0.000 A 
HETATM   24  C17 UNL     1      34.410   3.982  45.270  1.00  0.00     0.001 A 
HETATM   25  C18 UNL     1      33.897   5.197  45.642  1.00  0.00     0.010 A 
ENDBRANCH  17  20
ENDBRANCH  14  17
ENDBRANCH   5  11
BRANCH   1  26
HETATM   26  N1  UNL     1      23.891   2.918  51.347  1.00  0.00    -0.325 N 
HETATM   27  C3  UNL     1      23.039   1.853  50.997  1.00  0.00     0.221 C 
HETATM   28  O1  UNL     1      22.671   1.732  49.805  1.00  0.00    -0.273 OA
HETATM   29  H6  UNL     1      24.072   2.834  52.370  1.00  0.00     0.169 HD
BRANCH  27  30
HETATM   30  C2  UNL     1      22.482   0.799  51.877  1.00  0.00     0.098 C 
HETATM   31  C1  UNL     1      21.210   0.289  51.237  1.00  0.00     0.014 C 
ENDBRANCH  27  30
ENDBRANCH   1  26
BRANCH  10  32
HETATM   32  O3  UNL     1      22.586   5.381  51.368  1.00  0.00    -0.243 OA
BRANCH  32  33
HETATM   33  N4  UNL     1      22.017   6.599  51.581  1.00  0.00    -0.305 N 
HETATM   34  H23 UNL     1      21.292   6.617  52.313  1.00  0.00     0.184 HD
HETATM   35  H24 UNL     1      21.785   7.120  50.712  1.00  0.00     0.184 HD
ENDBRANCH  32  33
ENDBRANCH  10  32
TORSDOF 8
ENDMDL
MODEL 9
REMARK VINA RESULT:      -7.9      7.867     11.080
REMARK  8 active torsions:
REMARK  status: ('A' for Active; 'I' for Inactive)
REMARK    1  A    between atoms: C2_2  and  C3_3 
REMARK       I    between atoms: C3_3  and  N1_5 
REMARK    2  A    between atoms: N1_5  and  C4_6 
REMARK    3  A    between atoms: N2_10  and  C8_11 
REMARK    4  A    between atoms: C11_14  and  C12_15 
REMARK    5  A    between atoms: C12_15  and  O2_16 
REMARK    6  A    between atoms: C12_15  and  C13_17 
REMARK    7  A    between atoms: C24_29  and  O3_30 
REMARK    8  A    between atoms: O3_30  and  N4_31 
ROOT
HETATM    1  C4  UNL     1      25.697   2.219  51.757  1.00  0.00     0.071 C 
HETATM    2  C5  UNL     1      26.515   2.527  50.734  1.00  0.00     0.042 C 
HETATM    3  C6  UNL     1      25.935   3.628  49.981  1.00  0.00    -0.025 A 
HETATM    4  C7  UNL     1      26.754   4.533  49.402  1.00  0.00     0.127 A 
HETATM    5  N2  UNL     1      26.335   5.659  48.653  1.00  0.00    -0.245 N 
HETATM    6  N3  UNL     1      24.974   5.826  48.522  1.00  0.00    -0.183 NA
HETATM    7  C21 UNL     1      24.105   5.018  49.027  1.00  0.00     0.125 A 
HETATM    8  C22 UNL     1      24.502   3.845  49.777  1.00  0.00     0.088 A 
HETATM    9  C23 UNL     1      23.748   3.473  50.979  1.00  0.00     0.030 C 
HETATM   10  C24 UNL     1      24.327   2.701  51.885  1.00  0.00     0.122 C 
ENDROOT
BRANCH   5  11
HETATM   11  C8  UNL     1      27.221   6.590  48.057  1.00  0.00     0.058 A 
HETATM   12  C9  UNL     1      28.579   6.440  47.945  1.00  0.00     0.032 A 
HETATM   13  C10 UNL     1      29.413   7.368  47.356  1.00  0.00     0.012 A 
HETATM   14  C11 UNL     1      28.884   8.529  46.836  1.00  0.00    -0.025 A 
HETATM   15  C19 UNL     1      27.522   8.724  46.924  1.00  0.00     0.012 A 
HETATM   16  C20 UNL     1      26.731   7.766  47.523  1.00  0.00     0.032 A 
BRANCH  14  17
HETATM   17  C12 UNL     1      29.822   9.497  46.211  1.00  0.00     0.184 C 
BRANCH  17  18
HETATM   18  O2  UNL     1      31.091   8.947  46.043  1.00  0.00    -0.386 OA
HETATM   19  H12 UNL     1      31.701   9.374  46.709  1.00  0.00     0.210 HD
ENDBRANCH  17  18
BRANCH  17  20
HETATM   20  C13 UNL     1      29.993  10.623  47.193  1.00  0.00    -0.025 A 
HETATM   21  C14 UNL     1      30.718  10.499  48.369  1.00  0.00     0.010 A 
HETATM   22  C15 UNL     1      30.835  11.557  49.215  1.00  0.00     0.001 A 
HETATM   23  C16 UNL     1      30.255  12.763  48.948  1.00  0.00     0.000 A 
HETATM   24  C17 UNL     1      29.515  12.946  47.782  1.00  0.00     0.001 A 
HETATM   25  C18 UNL     1      29.420  11.857  46.954  1.00  0.00     0.010 A 
ENDBRANCH  17  20
ENDBRANCH  14  17
ENDBRANCH   5  11
BRANCH   1  26
HETATM   26  N1  UNL     1      26.038   1.190  52.667  1.00  0.00    -0.325 N 
HETATM   27  C3  UNL     1      26.811   1.217  53.844  1.00  0.00     0.221 C 
HETATM   28  O1  UNL     1      27.322   2.301  54.214  1.00  0.00    -0.273 OA
HETATM   29  H6  UNL     1      25.712   0.208  52.544  1.00  0.00     0.169 HD
BRANCH  27  30
HETATM   30  C2  UNL     1      27.127   0.094  54.757  1.00  0.00     0.098 C 
HETATM   31  C1  UNL     1      28.630   0.039  54.917  1.00  0.00     0.014 C 
ENDBRANCH  27  30
ENDBRANCH   1  26
BRANCH  10  32
HETATM   32  O3  UNL     1      23.535   2.378  52.981  1.00  0.00    -0.243 OA
BRANCH  32  33
HETATM   33  N4  UNL     1      22.611   1.379  52.979  1.00  0.00    -0.305 N 
HETATM   34  H23 UNL     1      22.239   1.134  52.050  1.00  0.00     0.184 HD
HETATM   35  H24 UNL     1      21.905   1.448  53.738  1.00  0.00     0.184 HD
ENDBRANCH  32  33
ENDBRANCH  10  32
TORSDOF 8
ENDMDL
