MODEL 1
REMARK VINA RESULT:      -8.1      0.000      0.000
REMARK  7 active torsions:
REMARK  status: ('A' for Active; 'I' for Inactive)
REMARK    1  A    between atoms: C3_3  and  C4_4 
REMARK    2  A    between atoms: C3_3  and  N4_18 
REMARK    3  A    between atoms: C7_9  and  N3_10 
REMARK    4  A    between atoms: N3_10  and  C8_11 
REMARK       I    between atoms: N4_18  and  C14_19 
REMARK    5  A    between atoms: C14_19  and  C15_21 
REMARK    6  A    between atoms: C15_21  and  O2_22 
REMARK    7  A    between atoms: O2_22  and  C16_23 
ROOT
HETATM    1  C1  UNL     1      22.040   1.550  48.207  1.00  0.00     0.038 C 
HETATM    2  C2  UNL     1      21.248   1.043  49.333  1.00  0.00    -0.002 C 
HETATM    3  C3  UNL     1      21.582   1.041  50.630  1.00  0.00     0.033 C 
ENDROOT
BRANCH   3   4
HETATM    4  C4  UNL     1      20.671   0.495  51.622  1.00  0.00     0.065 C 
HETATM    5  C5  UNL     1      21.081  -0.258  52.626  1.00  0.00     0.106 A 
HETATM    6  N1  UNL     1      22.371  -0.717  53.008  1.00  0.00    -0.238 NA
HETATM    7  C7  UNL     1      20.207  -0.835  53.655  1.00  0.00     0.158 A 
HETATM    8  C6  UNL     1      22.281  -1.437  54.075  1.00  0.00     0.236 A 
HETATM    9  N2  UNL     1      20.918  -1.506  54.475  1.00  0.00    -0.222 NA
BRANCH   7  10
HETATM   10  N3  UNL     1      18.814  -0.697  53.761  1.00  0.00    -0.339 N 
HETATM   11  H7  UNL     1      18.440   0.232  54.105  1.00  0.00     0.167 HD
BRANCH  10  12
HETATM   12  C8  UNL     1      17.859  -1.698  53.443  1.00  0.00     0.035 A 
HETATM   13  C9  UNL     1      17.899  -3.012  53.847  1.00  0.00     0.029 A 
HETATM   14  C10 UNL     1      16.965  -3.955  53.529  1.00  0.00     0.004 A 
HETATM   15  C11 UNL     1      15.894  -3.620  52.755  1.00  0.00     0.019 A 
HETATM   16  C12 UNL     1      15.802  -2.333  52.324  1.00  0.00     0.013 A 
HETATM   17 BR1  UNL     1      14.318  -1.825  51.238  1.00  0.00    -0.051 Br
HETATM   18  C13 UNL     1      16.759  -1.409  52.663  1.00  0.00     0.048 A 
ENDBRANCH  10  12
ENDBRANCH   7  10
ENDBRANCH   3   4
BRANCH   3  19
HETATM   19  N4  UNL     1      22.863   1.616  50.841  1.00  0.00    -0.326 N 
HETATM   20  C14 UNL     1      23.307   2.619  51.752  1.00  0.00     0.246 C 
HETATM   21  O1  UNL     1      22.697   3.293  52.636  1.00  0.00    -0.271 OA
HETATM   22  H12 UNL     1      23.609   1.221  50.207  1.00  0.00     0.169 HD
BRANCH  20  23
HETATM   23  C15 UNL     1      24.732   3.040  51.762  1.00  0.00     0.278 C 
BRANCH  23  24
HETATM   24  O2  UNL     1      25.249   2.965  50.462  1.00  0.00    -0.342 OA
BRANCH  24  25
HETATM   25  C16 UNL     1      25.881   3.977  49.795  1.00  0.00     0.069 A 
HETATM   26  C17 UNL     1      25.115   5.129  49.776  1.00  0.00     0.037 A 
HETATM   27  C18 UNL     1      25.546   6.302  49.154  1.00  0.00     0.003 A 
HETATM   28  C19 UNL     1      26.796   6.287  48.535  1.00  0.00     0.000 A 
HETATM   29  C20 UNL     1      27.567   5.149  48.546  1.00  0.00     0.003 A 
HETATM   30  C21 UNL     1      27.094   4.009  49.178  1.00  0.00     0.037 A 
ENDBRANCH  24  25
ENDBRANCH  23  24
ENDBRANCH  20  23
ENDBRANCH   3  19
TORSDOF 7
ENDMDL
MODEL 2
REMARK VINA RESULT:      -8.1      3.923      5.536
REMARK  7 active torsions:
REMARK  status: ('A' for Active; 'I' for Inactive)
REMARK    1  A    between atoms: C3_3  and  C4_4 
REMARK    2  A    between atoms: C3_3  and  N4_18 
REMARK    3  A    between atoms: C7_9  and  N3_10 
REMARK    4  A    between atoms: N3_10  and  C8_11 
REMARK       I    between atoms: N4_18  and  C14_19 
REMARK    5  A    between atoms: C14_19  and  C15_21 
REMARK    6  A    between atoms: C15_21  and  O2_22 
REMARK    7  A    between atoms: O2_22  and  C16_23 
ROOT
HETATM    1  C1  UNL     1      27.221   4.843  48.588  1.00  0.00     0.038 C 
HETATM    2  C2  UNL     1      26.856   3.664  49.381  1.00  0.00    -0.002 C 
HETATM    3  C3  UNL     1      26.078   3.623  50.470  1.00  0.00     0.033 C 
ENDROOT
BRANCH   3   4
HETATM    4  C4  UNL     1      25.817   2.360  51.139  1.00  0.00     0.065 C 
HETATM    5  C5  UNL     1      26.601   1.882  52.087  1.00  0.00     0.106 A 
HETATM    6  N1  UNL     1      27.792   2.381  52.680  1.00  0.00    -0.238 NA
HETATM    7  C7  UNL     1      26.385   0.615  52.796  1.00  0.00     0.158 A 
HETATM    8  C6  UNL     1      28.211   1.557  53.581  1.00  0.00     0.236 A 
HETATM    9  N2  UNL     1      27.321   0.450  53.647  1.00  0.00    -0.222 NA
BRANCH   7  10
HETATM   10  N3  UNL     1      25.336  -0.299  52.604  1.00  0.00    -0.339 N 
HETATM   11  H7  UNL     1      25.486  -1.073  51.898  1.00  0.00     0.167 HD
BRANCH  10  12
HETATM   12  C8  UNL     1      24.087  -0.275  53.278  1.00  0.00     0.035 A 
HETATM   13  C9  UNL     1      23.766  -0.987  54.411  1.00  0.00     0.029 A 
HETATM   14  C10 UNL     1      22.556  -0.943  55.042  1.00  0.00     0.004 A 
HETATM   15  C11 UNL     1      21.560  -0.152  54.554  1.00  0.00     0.019 A 
HETATM   16  C12 UNL     1      21.820   0.576  53.435  1.00  0.00     0.013 A 
HETATM   17 BR1  UNL     1      20.451   1.696  52.720  1.00  0.00    -0.051 Br
HETATM   18  C13 UNL     1      23.048   0.510  52.824  1.00  0.00     0.048 A 
ENDBRANCH  10  12
ENDBRANCH   7  10
ENDBRANCH   3   4
BRANCH   3  19
HETATM   19  N4  UNL     1      25.599   4.914  50.819  1.00  0.00    -0.326 N 
HETATM   20  C14 UNL     1      24.366   5.570  50.532  1.00  0.00     0.246 C 
HETATM   21  O1  UNL     1      23.340   5.203  49.885  1.00  0.00    -0.271 OA
HETATM   22  H12 UNL     1      26.285   5.475  51.392  1.00  0.00     0.169 HD
BRANCH  20  23
HETATM   23  C15 UNL     1      24.120   6.948  51.032  1.00  0.00     0.278 C 
BRANCH  23  24
HETATM   24  O2  UNL     1      24.332   7.865  49.993  1.00  0.00    -0.342 OA
BRANCH  24  25
HETATM   25  C16 UNL     1      25.543   8.180  49.442  1.00  0.00     0.069 A 
HETATM   26  C17 UNL     1      25.520   8.062  48.064  1.00  0.00     0.037 A 
HETATM   27  C18 UNL     1      26.638   8.331  47.273  1.00  0.00     0.003 A 
HETATM   28  C19 UNL     1      27.807   8.731  47.918  1.00  0.00     0.000 A 
HETATM   29  C20 UNL     1      27.845   8.852  49.286  1.00  0.00     0.003 A 
HETATM   30  C21 UNL     1      26.707   8.573  50.028  1.00  0.00     0.037 A 
ENDBRANCH  24  25
ENDBRANCH  23  24
ENDBRANCH  20  23
ENDBRANCH   3  19
TORSDOF 7
ENDMDL
MODEL 3
REMARK VINA RESULT:      -8.0      5.755      8.568
REMARK  7 active torsions:
REMARK  status: ('A' for Active; 'I' for Inactive)
REMARK    1  A    between atoms: C3_3  and  C4_4 
REMARK    2  A    between atoms: C3_3  and  N4_18 
REMARK    3  A    between atoms: C7_9  and  N3_10 
REMARK    4  A    between atoms: N3_10  and  C8_11 
REMARK       I    between atoms: N4_18  and  C14_19 
REMARK    5  A    between atoms: C14_19  and  C15_21 
REMARK    6  A    between atoms: C15_21  and  O2_22 
REMARK    7  A    between atoms: O2_22  and  C16_23 
ROOT
HETATM    1  C1  UNL     1      28.150   8.342  46.821  1.00  0.00     0.038 C 
HETATM    2  C2  UNL     1      27.294   7.335  47.459  1.00  0.00    -0.002 C 
HETATM    3  C3  UNL     1      27.627   6.488  48.442  1.00  0.00     0.033 C 
ENDROOT
BRANCH   3   4
HETATM    4  C4  UNL     1      26.648   5.548  48.961  1.00  0.00     0.065 C 
HETATM    5  C5  UNL     1      25.697   5.904  49.804  1.00  0.00     0.106 A 
HETATM    6  N1  UNL     1      25.366   7.153  50.395  1.00  0.00    -0.238 NA
HETATM    7  C7  UNL     1      24.684   4.998  50.359  1.00  0.00     0.158 A 
HETATM    8  C6  UNL     1      24.340   7.016  51.165  1.00  0.00     0.236 A 
HETATM    9  N2  UNL     1      23.917   5.659  51.137  1.00  0.00    -0.222 NA
BRANCH   7  10
HETATM   10  N3  UNL     1      24.542   3.624  50.105  1.00  0.00    -0.339 N 
HETATM   11  H7  UNL     1      24.023   3.341  49.226  1.00  0.00     0.167 HD
BRANCH  10  12
HETATM   12  C8  UNL     1      25.038   2.578  50.925  1.00  0.00     0.035 A 
HETATM   13  C9  UNL     1      26.362   2.258  51.116  1.00  0.00     0.029 A 
HETATM   14  C10 UNL     1      26.813   1.246  51.914  1.00  0.00     0.004 A 
HETATM   15  C11 UNL     1      25.926   0.467  52.594  1.00  0.00     0.019 A 
HETATM   16  C12 UNL     1      24.601   0.736  52.444  1.00  0.00     0.013 A 
HETATM   17 BR1  UNL     1      23.327  -0.332  53.379  1.00  0.00    -0.051 Br
HETATM   18  C13 UNL     1      24.181   1.761  51.634  1.00  0.00     0.048 A 
ENDBRANCH  10  12
ENDBRANCH   7  10
ENDBRANCH   3   4
BRANCH   3  19
HETATM   19  N4  UNL     1      28.977   6.658  48.845  1.00  0.00    -0.326 N 
HETATM   20  C14 UNL     1      30.152   5.908  48.543  1.00  0.00     0.246 C 
HETATM   21  O1  UNL     1      30.340   4.875  47.832  1.00  0.00    -0.271 OA
HETATM   22  H12 UNL     1      29.124   7.490  49.479  1.00  0.00     0.169 HD
BRANCH  20  23
HETATM   23  C15 UNL     1      31.464   6.317  49.109  1.00  0.00     0.278 C 
BRANCH  23  24
HETATM   24  O2  UNL     1      31.359   7.607  49.644  1.00  0.00    -0.342 OA
BRANCH  24  25
HETATM   25  C16 UNL     1      31.516   8.775  48.949  1.00  0.00     0.069 A 
HETATM   26  C17 UNL     1      30.702   9.776  49.448  1.00  0.00     0.037 A 
HETATM   27  C18 UNL     1      30.682  11.062  48.905  1.00  0.00     0.003 A 
HETATM   28  C19 UNL     1      31.521  11.321  47.822  1.00  0.00     0.000 A 
HETATM   29  C20 UNL     1      32.334  10.335  47.315  1.00  0.00     0.003 A 
HETATM   30  C21 UNL     1      32.317   9.073  47.890  1.00  0.00     0.037 A 
ENDBRANCH  24  25
ENDBRANCH  23  24
ENDBRANCH  20  23
ENDBRANCH   3  19
TORSDOF 7
ENDMDL
MODEL 4
REMARK VINA RESULT:      -8.0      5.043     10.858
REMARK  7 active torsions:
REMARK  status: ('A' for Active; 'I' for Inactive)
REMARK    1  A    between atoms: C3_3  and  C4_4 
REMARK    2  A    between atoms: C3_3  and  N4_18 
REMARK    3  A    between atoms: C7_9  and  N3_10 
REMARK    4  A    between atoms: N3_10  and  C8_11 
REMARK       I    between atoms: N4_18  and  C14_19 
REMARK    5  A    between atoms: C14_19  and  C15_21 
REMARK    6  A    between atoms: C15_21  and  O2_22 
REMARK    7  A    between atoms: O2_22  and  C16_23 
ROOT
HETATM    1  C1  UNL     1      26.475   1.128  51.767  1.00  0.00     0.038 C 
HETATM    2  C2  UNL     1      26.599   2.353  50.968  1.00  0.00    -0.002 C 
HETATM    3  C3  UNL     1      25.622   3.197  50.613  1.00  0.00     0.033 C 
ENDROOT
BRANCH   3   4
HETATM    4  C4  UNL     1      25.922   4.371  49.812  1.00  0.00     0.065 C 
HETATM    5  C5  UNL     1      25.335   5.537  50.011  1.00  0.00     0.106 A 
HETATM    6  N1  UNL     1      24.353   5.962  50.947  1.00  0.00    -0.238 NA
HETATM    7  C7  UNL     1      25.601   6.755  49.235  1.00  0.00     0.158 A 
HETATM    8  C6  UNL     1      24.082   7.210  50.761  1.00  0.00     0.236 A 
HETATM    9  N2  UNL     1      24.870   7.700  49.683  1.00  0.00    -0.222 NA
BRANCH   7  10
HETATM   10  N3  UNL     1      26.500   6.902  48.167  1.00  0.00    -0.339 N 
HETATM   11  H7  UNL     1      26.095   6.958  47.191  1.00  0.00     0.167 HD
BRANCH  10  12
HETATM   12  C8  UNL     1      27.913   6.987  48.284  1.00  0.00     0.035 A 
HETATM   13  C9  UNL     1      28.805   5.963  48.066  1.00  0.00     0.029 A 
HETATM   14  C10 UNL     1      30.161   6.071  48.183  1.00  0.00     0.004 A 
HETATM   15  C11 UNL     1      30.721   7.261  48.540  1.00  0.00     0.019 A 
HETATM   16  C12 UNL     1      29.887   8.311  48.769  1.00  0.00     0.013 A 
HETATM   17 BR1  UNL     1      30.633   9.994  49.271  1.00  0.00    -0.051 Br
HETATM   18  C13 UNL     1      28.528   8.168  48.643  1.00  0.00     0.048 A 
ENDBRANCH  10  12
ENDBRANCH   7  10
ENDBRANCH   3   4
BRANCH   3  19
HETATM   19  N4  UNL     1      24.360   2.777  51.112  1.00  0.00    -0.326 N 
HETATM   20  C14 UNL     1      23.169   2.374  50.440  1.00  0.00     0.246 C 
HETATM   21  O1  UNL     1      22.881   2.272  49.210  1.00  0.00    -0.271 OA
HETATM   22  H12 UNL     1      24.310   2.765  52.166  1.00  0.00     0.169 HD
BRANCH  20  23
HETATM   23  C15 UNL     1      21.970   1.974  51.222  1.00  0.00     0.278 C 
BRANCH  23  24
HETATM   24  O2  UNL     1      21.980   0.586  51.413  1.00  0.00    -0.342 OA
BRANCH  24  25
HETATM   25  C16 UNL     1      22.030  -0.053  52.621  1.00  0.00     0.069 A 
HETATM   26  C17 UNL     1      23.325  -0.134  53.099  1.00  0.00     0.037 A 
HETATM   27  C18 UNL     1      23.634  -0.744  54.316  1.00  0.00     0.003 A 
HETATM   28  C19 UNL     1      22.583  -1.283  55.057  1.00  0.00     0.000 A 
HETATM   29  C20 UNL     1      21.292  -1.210  54.593  1.00  0.00     0.003 A 
HETATM   30  C21 UNL     1      21.036  -0.594  53.377  1.00  0.00     0.037 A 
ENDBRANCH  24  25
ENDBRANCH  23  24
ENDBRANCH  20  23
ENDBRANCH   3  19
TORSDOF 7
ENDMDL
MODEL 5
REMARK VINA RESULT:      -7.9      4.571      7.087
REMARK  7 active torsions:
REMARK  status: ('A' for Active; 'I' for Inactive)
REMARK    1  A    between atoms: C3_3  and  C4_4 
REMARK    2  A    between atoms: C3_3  and  N4_18 
REMARK    3  A    between atoms: C7_9  and  N3_10 
REMARK    4  A    between atoms: N3_10  and  C8_11 
REMARK       I    between atoms: N4_18  and  C14_19 
REMARK    5  A    between atoms: C14_19  and  C15_21 
REMARK    6  A    between atoms: C15_21  and  O2_22 
REMARK    7  A    between atoms: O2_22  and  C16_23 
ROOT
HETATM    1  C1  UNL     1      28.665   5.555  48.210  1.00  0.00     0.038 C 
HETATM    2  C2  UNL     1      27.544   4.747  48.704  1.00  0.00    -0.002 C 
HETATM    3  C3  UNL     1      26.504   5.160  49.440  1.00  0.00     0.033 C 
ENDROOT
BRANCH   3   4
HETATM    4  C4  UNL     1      25.475   4.219  49.847  1.00  0.00     0.065 C 
HETATM    5  C5  UNL     1      24.345   4.602  50.413  1.00  0.00     0.106 A 
HETATM    6  N1  UNL     1      23.839   5.884  50.759  1.00  0.00    -0.238 NA
HETATM    7  C7  UNL     1      23.272   3.697  50.842  1.00  0.00     0.158 A 
HETATM    8  C6  UNL     1      22.673   5.764  51.299  1.00  0.00     0.236 A 
HETATM    9  N2  UNL     1      22.324   4.386  51.347  1.00  0.00    -0.222 NA
BRANCH   7  10
HETATM   10  N3  UNL     1      23.247   2.297  50.735  1.00  0.00    -0.339 N 
HETATM   11  H7  UNL     1      22.858   1.882  49.842  1.00  0.00     0.167 HD
BRANCH  10  12
HETATM   12  C8  UNL     1      23.703   1.386  51.724  1.00  0.00     0.035 A 
HETATM   13  C9  UNL     1      25.016   1.093  52.009  1.00  0.00     0.029 A 
HETATM   14  C10 UNL     1      25.428   0.213  52.969  1.00  0.00     0.004 A 
HETATM   15  C11 UNL     1      24.509  -0.450  53.726  1.00  0.00     0.019 A 
HETATM   16  C12 UNL     1      23.193  -0.201  53.488  1.00  0.00     0.013 A 
HETATM   17 BR1  UNL     1      21.876  -1.109  54.526  1.00  0.00    -0.051 Br
HETATM   18  C13 UNL     1      22.813   0.690  52.515  1.00  0.00     0.048 A 
ENDBRANCH  10  12
ENDBRANCH   7  10
ENDBRANCH   3   4
BRANCH   3  19
HETATM   19  N4  UNL     1      26.582   6.549  49.723  1.00  0.00    -0.326 N 
HETATM   20  C14 UNL     1      26.139   7.686  48.985  1.00  0.00     0.246 C 
HETATM   21  O1  UNL     1      25.551   7.796  47.867  1.00  0.00    -0.271 OA
HETATM   22  H12 UNL     1      27.051   6.764  50.644  1.00  0.00     0.169 HD
BRANCH  20  23
HETATM   23  C15 UNL     1      26.350   9.054  49.525  1.00  0.00     0.278 C 
BRANCH  23  24
HETATM   24  O2  UNL     1      27.660   9.167  50.009  1.00  0.00    -0.342 OA
BRANCH  24  25
HETATM   25  C16 UNL     1      28.691   9.809  49.380  1.00  0.00     0.069 A 
HETATM   26  C17 UNL     1      29.806   8.997  49.277  1.00  0.00     0.037 A 
HETATM   27  C18 UNL     1      30.989   9.427  48.672  1.00  0.00     0.003 A 
HETATM   28  C19 UNL     1      31.022  10.725  48.163  1.00  0.00     0.000 A 
HETATM   29  C20 UNL     1      29.921  11.542  48.259  1.00  0.00     0.003 A 
HETATM   30  C21 UNL     1      28.769  11.068  48.869  1.00  0.00     0.037 A 
ENDBRANCH  24  25
ENDBRANCH  23  24
ENDBRANCH  20  23
ENDBRANCH   3  19
TORSDOF 7
ENDMDL
MODEL 6
REMARK VINA RESULT:      -7.9      5.923     10.363
REMARK  7 active torsions:
REMARK  status: ('A' for Active; 'I' for Inactive)
REMARK    1  A    between atoms: C3_3  and  C4_4 
REMARK    2  A    between atoms: C3_3  and  N4_18 
REMARK    3  A    between atoms: C7_9  and  N3_10 
REMARK    4  A    between atoms: N3_10  and  C8_11 
REMARK       I    between atoms: N4_18  and  C14_19 
REMARK    5  A    between atoms: C14_19  and  C15_21 
REMARK    6  A    between atoms: C15_21  and  O2_22 
REMARK    7  A    between atoms: O2_22  and  C16_23 
ROOT
HETATM    1  C1  UNL     1      22.635   1.514  50.419  1.00  0.00     0.038 C 
HETATM    2  C2  UNL     1      23.352   2.665  49.861  1.00  0.00    -0.002 C 
HETATM    3  C3  UNL     1      24.505   3.194  50.291  1.00  0.00     0.033 C 
ENDROOT
BRANCH   3   4
HETATM    4  C4  UNL     1      25.081   4.345  49.616  1.00  0.00     0.065 C 
HETATM    5  C5  UNL     1      24.828   5.587  49.985  1.00  0.00     0.106 A 
HETATM    6  N1  UNL     1      24.020   6.127  51.022  1.00  0.00    -0.238 NA
HETATM    7  C7  UNL     1      25.383   6.784  49.341  1.00  0.00     0.158 A 
HETATM    8  C6  UNL     1      24.082   7.416  51.000  1.00  0.00     0.236 A 
HETATM    9  N2  UNL     1      24.940   7.820  49.941  1.00  0.00    -0.222 NA
BRANCH   7  10
HETATM   10  N3  UNL     1      26.259   6.831  48.245  1.00  0.00    -0.339 N 
HETATM   11  H7  UNL     1      25.830   6.917  47.281  1.00  0.00     0.167 HD
BRANCH  10  12
HETATM   12  C8  UNL     1      27.675   6.776  48.318  1.00  0.00     0.035 A 
HETATM   13  C9  UNL     1      28.446   5.640  48.227  1.00  0.00     0.029 A 
HETATM   14  C10 UNL     1      29.810   5.615  48.298  1.00  0.00     0.004 A 
HETATM   15  C11 UNL     1      30.505   6.775  48.472  1.00  0.00     0.019 A 
HETATM   16  C12 UNL     1      29.795   7.931  48.570  1.00  0.00     0.013 A 
HETATM   17 BR1  UNL     1      30.731   9.575  48.813  1.00  0.00    -0.051 Br
HETATM   18  C13 UNL     1      28.424   7.921  48.494  1.00  0.00     0.048 A 
ENDBRANCH  10  12
ENDBRANCH   7  10
ENDBRANCH   3   4
BRANCH   3  19
HETATM   19  N4  UNL     1      25.013   2.495  51.417  1.00  0.00    -0.326 N 
HETATM   20  C14 UNL     1      24.872   2.734  52.816  1.00  0.00     0.246 C 
HETATM   21  O1  UNL     1      24.258   3.633  53.466  1.00  0.00    -0.271 OA
HETATM   22  H12 UNL     1      25.595   1.653  51.161  1.00  0.00     0.169 HD
BRANCH  20  23
HETATM   23  C15 UNL     1      25.521   1.827  53.797  1.00  0.00     0.278 C 
BRANCH  23  24
HETATM   24  O2  UNL     1      25.831   0.611  53.173  1.00  0.00    -0.342 OA
BRANCH  24  25
HETATM   25  C16 UNL     1      27.031  -0.041  53.247  1.00  0.00     0.069 A 
HETATM   26  C17 UNL     1      27.999   0.744  53.846  1.00  0.00     0.037 A 
HETATM   27  C18 UNL     1      29.309   0.299  54.036  1.00  0.00     0.003 A 
HETATM   28  C19 UNL     1      29.627  -0.986  53.598  1.00  0.00     0.000 A 
HETATM   29  C20 UNL     1      28.674  -1.776  53.001  1.00  0.00     0.003 A 
HETATM   30  C21 UNL     1      27.387  -1.288  52.834  1.00  0.00     0.037 A 
ENDBRANCH  24  25
ENDBRANCH  23  24
ENDBRANCH  20  23
ENDBRANCH   3  19
TORSDOF 7
ENDMDL
MODEL 7
REMARK VINA RESULT:      -7.9      6.609     12.841
REMARK  7 active torsions:
REMARK  status: ('A' for Active; 'I' for Inactive)
REMARK    1  A    between atoms: C3_3  and  C4_4 
REMARK    2  A    between atoms: C3_3  and  N4_18 
REMARK    3  A    between atoms: C7_9  and  N3_10 
REMARK    4  A    between atoms: N3_10  and  C8_11 
REMARK       I    between atoms: N4_18  and  C14_19 
REMARK    5  A    between atoms: C14_19  and  C15_21 
REMARK    6  A    between atoms: C15_21  and  O2_22 
REMARK    7  A    between atoms: O2_22  and  C16_23 
ROOT
HETATM    1  C1  UNL     1      25.640   7.566  48.104  1.00  0.00     0.038 C 
HETATM    2  C2  UNL     1      26.962   6.959  47.915  1.00  0.00    -0.002 C 
HETATM    3  C3  UNL     1      27.469   5.895  48.551  1.00  0.00     0.033 C 
ENDROOT
BRANCH   3   4
HETATM    4  C4  UNL     1      28.807   5.422  48.239  1.00  0.00     0.065 C 
HETATM    5  C5  UNL     1      29.878   6.182  48.370  1.00  0.00     0.106 A 
HETATM    6  N1  UNL     1      30.046   7.526  48.801  1.00  0.00    -0.238 NA
HETATM    7  C7  UNL     1      31.251   5.758  48.071  1.00  0.00     0.158 A 
HETATM    8  C6  UNL     1      31.296   7.845  48.765  1.00  0.00     0.236 A 
HETATM    9  N2  UNL     1      32.046   6.728  48.305  1.00  0.00    -0.222 NA
BRANCH   7  10
HETATM   10  N3  UNL     1      31.669   4.501  47.603  1.00  0.00    -0.339 N 
HETATM   11  H7  UNL     1      31.064   3.666  47.841  1.00  0.00     0.167 HD
BRANCH  10  12
HETATM   12  C8  UNL     1      32.836   4.254  46.834  1.00  0.00     0.035 A 
HETATM   13  C9  UNL     1      33.970   3.610  47.269  1.00  0.00     0.029 A 
HETATM   14  C10 UNL     1      35.079   3.382  46.505  1.00  0.00     0.004 A 
HETATM   15  C11 UNL     1      35.115   3.805  45.210  1.00  0.00     0.019 A 
HETATM   16  C12 UNL     1      34.020   4.450  44.724  1.00  0.00     0.013 A 
HETATM   17 BR1  UNL     1      34.029   5.057  42.916  1.00  0.00    -0.051 Br
HETATM   18  C13 UNL     1      32.920   4.662  45.519  1.00  0.00     0.048 A 
ENDBRANCH  10  12
ENDBRANCH   7  10
ENDBRANCH   3   4
BRANCH   3  19
HETATM   19  N4  UNL     1      26.550   5.363  49.494  1.00  0.00    -0.326 N 
HETATM   20  C14 UNL     1      26.210   4.016  49.820  1.00  0.00     0.246 C 
HETATM   21  O1  UNL     1      26.620   2.905  49.370  1.00  0.00    -0.271 OA
HETATM   22  H12 UNL     1      26.037   6.103  50.044  1.00  0.00     0.169 HD
BRANCH  20  23
HETATM   23  C15 UNL     1      25.197   3.737  50.870  1.00  0.00     0.278 C 
BRANCH  23  24
HETATM   24  O2  UNL     1      25.615   2.645  51.642  1.00  0.00    -0.342 OA
BRANCH  24  25
HETATM   25  C16 UNL     1      24.799   1.686  52.177  1.00  0.00     0.069 A 
HETATM   26  C17 UNL     1      25.528   0.632  52.696  1.00  0.00     0.037 A 
HETATM   27  C18 UNL     1      24.920  -0.472  53.298  1.00  0.00     0.003 A 
HETATM   28  C19 UNL     1      23.527  -0.487  53.365  1.00  0.00     0.000 A 
HETATM   29  C20 UNL     1      22.791   0.554  52.853  1.00  0.00     0.003 A 
HETATM   30  C21 UNL     1      23.442   1.627  52.265  1.00  0.00     0.037 A 
ENDBRANCH  24  25
ENDBRANCH  23  24
ENDBRANCH  20  23
ENDBRANCH   3  19
TORSDOF 7
ENDMDL
MODEL 8
REMARK VINA RESULT:      -7.9      6.605     10.888
REMARK  7 active torsions:
REMARK  status: ('A' for Active; 'I' for Inactive)
REMARK    1  A    between atoms: C3_3  and  C4_4 
REMARK    2  A    between atoms: C3_3  and  N4_18 
REMARK    3  A    between atoms: C7_9  and  N3_10 
REMARK    4  A    between atoms: N3_10  and  C8_11 
REMARK       I    between atoms: N4_18  and  C14_19 
REMARK    5  A    between atoms: C14_19  and  C15_21 
REMARK    6  A    between atoms: C15_21  and  O2_22 
REMARK    7  A    between atoms: O2_22  and  C16_23 
ROOT
HETATM    1  C1  UNL     1      22.968   2.590  48.797  1.00  0.00     0.038 C 
HETATM    2  C2  UNL     1      23.876   3.739  48.885  1.00  0.00    -0.002 C 
HETATM    3  C3  UNL     1      24.844   3.945  49.788  1.00  0.00     0.033 C 
ENDROOT
BRANCH   3   4
HETATM    4  C4  UNL     1      25.656   5.148  49.729  1.00  0.00     0.065 C 
HETATM    5  C5  UNL     1      25.181   6.343  50.026  1.00  0.00     0.106 A 
HETATM    6  N1  UNL     1      23.893   6.781  50.441  1.00  0.00    -0.238 NA
HETATM    7  C7  UNL     1      25.955   7.590  49.985  1.00  0.00     0.158 A 
HETATM    8  C6  UNL     1      23.900   8.059  50.616  1.00  0.00     0.236 A 
HETATM    9  N2  UNL     1      25.200   8.560  50.327  1.00  0.00    -0.222 NA
BRANCH   7  10
HETATM   10  N3  UNL     1      27.307   7.739  49.634  1.00  0.00    -0.339 N 
HETATM   11  H7  UNL     1      28.016   7.759  50.419  1.00  0.00     0.167 HD
BRANCH  10  12
HETATM   12  C8  UNL     1      27.806   7.864  48.311  1.00  0.00     0.035 A 
HETATM   13  C9  UNL     1      27.087   8.267  47.210  1.00  0.00     0.029 A 
HETATM   14  C10 UNL     1      27.594   8.382  45.947  1.00  0.00     0.004 A 
HETATM   15  C11 UNL     1      28.903   8.086  45.708  1.00  0.00     0.019 A 
HETATM   16  C12 UNL     1      29.664   7.681  46.760  1.00  0.00     0.013 A 
HETATM   17 BR1  UNL     1      31.500   7.259  46.466  1.00  0.00    -0.051 Br
HETATM   18  C13 UNL     1      29.123   7.577  48.018  1.00  0.00     0.048 A 
ENDBRANCH  10  12
ENDBRANCH   7  10
ENDBRANCH   3   4
BRANCH   3  19
HETATM   19  N4  UNL     1      24.924   2.879  50.722  1.00  0.00    -0.326 N 
HETATM   20  C14 UNL     1      26.033   2.333  51.434  1.00  0.00     0.246 C 
HETATM   21  O1  UNL     1      27.265   2.632  51.444  1.00  0.00    -0.271 OA
HETATM   22  H12 UNL     1      23.994   2.419  50.915  1.00  0.00     0.169 HD
BRANCH  20  23
HETATM   23  C15 UNL     1      25.832   1.196  52.369  1.00  0.00     0.278 C 
BRANCH  23  24
HETATM   24  O2  UNL     1      26.953   1.074  53.202  1.00  0.00    -0.342 OA
BRANCH  24  25
HETATM   25  C16 UNL     1      27.789  -0.006  53.263  1.00  0.00     0.069 A 
HETATM   26  C17 UNL     1      27.161  -1.159  52.827  1.00  0.00     0.037 A 
HETATM   27  C18 UNL     1      27.808  -2.395  52.795  1.00  0.00     0.003 A 
HETATM   28  C19 UNL     1      29.135  -2.444  53.223  1.00  0.00     0.000 A 
HETATM   29  C20 UNL     1      29.770  -1.306  53.658  1.00  0.00     0.003 A 
HETATM   30  C21 UNL     1      29.083  -0.101  53.672  1.00  0.00     0.037 A 
ENDBRANCH  24  25
ENDBRANCH  23  24
ENDBRANCH  20  23
ENDBRANCH   3  19
TORSDOF 7
ENDMDL
MODEL 9
REMARK VINA RESULT:      -7.8      5.623      8.689
REMARK  7 active torsions:
REMARK  status: ('A' for Active; 'I' for Inactive)
REMARK    1  A    between atoms: C3_3  and  C4_4 
REMARK    2  A    between atoms: C3_3  and  N4_18 
REMARK    3  A    between atoms: C7_9  and  N3_10 
REMARK    4  A    between atoms: N3_10  and  C8_11 
REMARK       I    between atoms: N4_18  and  C14_19 
REMARK    5  A    between atoms: C14_19  and  C15_21 
REMARK    6  A    between atoms: C15_21  and  O2_22 
REMARK    7  A    between atoms: O2_22  and  C16_23 
ROOT
HETATM    1  C1  UNL     1      27.778   8.687  47.188  1.00  0.00     0.038 C 
HETATM    2  C2  UNL     1      27.019   7.575  47.772  1.00  0.00    -0.002 C 
HETATM    3  C3  UNL     1      27.495   6.558  48.501  1.00  0.00     0.033 C 
ENDROOT
BRANCH   3   4
HETATM    4  C4  UNL     1      26.596   5.534  49.006  1.00  0.00     0.065 C 
HETATM    5  C5  UNL     1      25.636   5.794  49.873  1.00  0.00     0.106 A 
HETATM    6  N1  UNL     1      25.226   6.998  50.508  1.00  0.00    -0.238 NA
HETATM    7  C7  UNL     1      24.700   4.801  50.414  1.00  0.00     0.158 A 
HETATM    8  C6  UNL     1      24.225   6.764  51.288  1.00  0.00     0.236 A 
HETATM    9  N2  UNL     1      23.901   5.381  51.223  1.00  0.00    -0.222 NA
BRANCH   7  10
HETATM   10  N3  UNL     1      24.653   3.429  50.119  1.00  0.00    -0.339 N 
HETATM   11  H7  UNL     1      24.291   3.147  49.166  1.00  0.00     0.167 HD
BRANCH  10  12
HETATM   12  C8  UNL     1      25.054   2.383  50.992  1.00  0.00     0.035 A 
HETATM   13  C9  UNL     1      26.346   1.968  51.216  1.00  0.00     0.029 A 
HETATM   14  C10 UNL     1      26.705   0.960  52.064  1.00  0.00     0.004 A 
HETATM   15  C11 UNL     1      25.750   0.284  52.763  1.00  0.00     0.019 A 
HETATM   16  C12 UNL     1      24.453   0.651  52.581  1.00  0.00     0.013 A 
HETATM   17 BR1  UNL     1      23.086  -0.270  53.541  1.00  0.00    -0.051 Br
HETATM   18  C13 UNL     1      24.126   1.670  51.721  1.00  0.00     0.048 A 
ENDBRANCH  10  12
ENDBRANCH   7  10
ENDBRANCH   3   4
BRANCH   3  19
HETATM   19  N4  UNL     1      28.901   6.652  48.677  1.00  0.00    -0.326 N 
HETATM   20  C14 UNL     1      29.951   5.736  48.373  1.00  0.00     0.246 C 
HETATM   21  O1  UNL     1      29.943   4.575  47.863  1.00  0.00    -0.271 OA
HETATM   22  H12 UNL     1      29.210   7.565  49.107  1.00  0.00     0.169 HD
BRANCH  20  23
HETATM   23  C15 UNL     1      31.363   6.096  48.664  1.00  0.00     0.278 C 
BRANCH  23  24
HETATM   24  O2  UNL     1      32.071   6.212  47.461  1.00  0.00    -0.342 OA
BRANCH  24  25
HETATM   25  C16 UNL     1      33.025   5.342  47.009  1.00  0.00     0.069 A 
HETATM   26  C17 UNL     1      33.755   4.803  48.053  1.00  0.00     0.037 A 
HETATM   27  C18 UNL     1      34.788   3.887  47.846  1.00  0.00     0.003 A 
HETATM   28  C19 UNL     1      35.075   3.519  46.532  1.00  0.00     0.000 A 
HETATM   29  C20 UNL     1      34.358   4.048  45.486  1.00  0.00     0.003 A 
HETATM   30  C21 UNL     1      33.341   4.955  45.743  1.00  0.00     0.037 A 
ENDBRANCH  24  25
ENDBRANCH  23  24
ENDBRANCH  20  23
ENDBRANCH   3  19
TORSDOF 7
ENDMDL
