MODEL 1
REMARK VINA RESULT:      -8.9      0.000      0.000
REMARK  2 active torsions:
REMARK  status: ('A' for Active; 'I' for Inactive)
REMARK    1  A    between atoms: C8_10  and  N2_11 
REMARK    2  A    between atoms: N2_11  and  C9_12 
ROOT
HETATM    1  C1  UNL     1      27.278  -2.034  52.386  1.00  0.00     0.063 C 
HETATM    2  C2  UNL     1      27.163  -0.588  52.668  1.00  0.00     0.222 C 
HETATM    3  O1  UNL     1      28.108  -0.245  53.686  1.00  0.00    -0.346 OA
HETATM    4  C3  UNL     1      27.374   0.281  54.762  1.00  0.00     0.321 C 
HETATM    5  N1  UNL     1      26.391   1.260  54.490  1.00  0.00    -0.250 NA
HETATM    6  C4  UNL     1      25.434   1.053  53.666  1.00  0.00     0.109 C 
HETATM    7  C5  UNL     1      24.308   1.785  53.169  1.00  0.00     0.081 C 
HETATM    8  C6  UNL     1      24.541   3.134  52.589  1.00  0.00    -0.016 C 
HETATM    9  C7  UNL     1      23.334   3.608  52.170  1.00  0.00    -0.001 C 
HETATM   10  C8  UNL     1      21.973   2.954  52.224  1.00  0.00     0.135 C 
HETATM   11  C15 UNL     1      22.087   1.484  52.496  1.00  0.00    -0.038 C 
HETATM   12  C16 UNL     1      21.020   0.876  52.987  1.00  0.00     0.088 C 
HETATM   13  N3  UNL     1      20.645  -0.427  53.392  1.00  0.00    -0.395 N 
HETATM   14  C17 UNL     1      21.212  -0.794  54.708  1.00  0.00     0.146 C 
HETATM   15  C18 UNL     1      22.696  -0.910  54.571  1.00  0.00    -0.010 C 
HETATM   16  C19 UNL     1      23.970  -0.643  54.791  1.00  0.00    -0.009 C 
HETATM   17  C20 UNL     1      25.230  -1.209  54.236  1.00  0.00     0.154 C 
HETATM   18  N4  UNL     1      25.971  -0.243  53.478  1.00  0.00    -0.339 N 
HETATM   19  C21 UNL     1      23.488   1.048  52.137  1.00  0.00     0.054 C 
HETATM   20  H17 UNL     1      20.027  -1.044  52.792  1.00  0.00     0.159 HD
ENDROOT
BRANCH  10  21
HETATM   21  N2  UNL     1      21.192   3.228  51.075  1.00  0.00    -0.378 N 
HETATM   22  H11 UNL     1      20.206   3.553  51.269  1.00  0.00     0.160 HD
BRANCH  21  23
HETATM   23  C9  UNL     1      21.561   3.119  49.725  1.00  0.00     0.030 A 
HETATM   24  C10 UNL     1      21.828   1.935  49.073  1.00  0.00     0.029 A 
HETATM   25  C11 UNL     1      22.182   1.801  47.747  1.00  0.00     0.004 A 
HETATM   26  C12 UNL     1      22.279   2.967  47.000  1.00  0.00     0.019 A 
HETATM   27  C13 UNL     1      22.029   4.192  47.580  1.00  0.00     0.013 A 
HETATM   28 BR1  UNL     1      22.160   5.804  46.565  1.00  0.00    -0.051 Br
HETATM   29  C14 UNL     1      21.681   4.225  48.912  1.00  0.00     0.048 A 
ENDBRANCH  21  23
ENDBRANCH  10  21
TORSDOF 2
ENDMDL
MODEL 2
REMARK VINA RESULT:      -8.3      3.929      7.737
REMARK  2 active torsions:
REMARK  status: ('A' for Active; 'I' for Inactive)
REMARK    1  A    between atoms: C8_10  and  N2_11 
REMARK    2  A    between atoms: N2_11  and  C9_12 
ROOT
HETATM    1  C1  UNL     1      18.530   3.478  48.294  1.00  0.00     0.063 C 
HETATM    2  C2  UNL     1      18.781   2.808  49.588  1.00  0.00     0.222 C 
HETATM    3  O1  UNL     1      17.644   3.007  50.433  1.00  0.00    -0.346 OA
HETATM    4  C3  UNL     1      18.102   3.677  51.580  1.00  0.00     0.321 C 
HETATM    5  N1  UNL     1      19.261   3.189  52.225  1.00  0.00    -0.250 NA
HETATM    6  C4  UNL     1      20.373   3.045  51.609  1.00  0.00     0.109 C 
HETATM    7  C5  UNL     1      21.695   2.599  51.932  1.00  0.00     0.081 C 
HETATM    8  C6  UNL     1      21.855   1.266  52.572  1.00  0.00    -0.016 C 
HETATM    9  C7  UNL     1      23.191   1.063  52.753  1.00  0.00    -0.001 C 
HETATM   10  C8  UNL     1      24.356   1.952  52.390  1.00  0.00     0.135 C 
HETATM   11  C15 UNL     1      23.941   3.030  51.435  1.00  0.00    -0.038 C 
HETATM   12  C16 UNL     1      24.708   4.106  51.365  1.00  0.00     0.088 C 
HETATM   13  N3  UNL     1      24.740   5.331  50.659  1.00  0.00    -0.395 N 
HETATM   14  C17 UNL     1      23.762   6.309  51.182  1.00  0.00     0.146 C 
HETATM   15  C18 UNL     1      22.385   5.804  50.896  1.00  0.00    -0.010 C 
HETATM   16  C19 UNL     1      21.159   5.380  51.146  1.00  0.00    -0.009 C 
HETATM   17  C20 UNL     1      20.046   4.933  50.264  1.00  0.00     0.154 C 
HETATM   18  N4  UNL     1      19.720   3.551  50.460  1.00  0.00    -0.339 N 
HETATM   19  C21 UNL     1      22.657   2.596  50.768  1.00  0.00     0.054 C 
HETATM   20  H17 UNL     1      25.404   5.494  49.849  1.00  0.00     0.159 HD
ENDROOT
BRANCH  10  21
HETATM   21  N2  UNL     1      25.473   1.220  51.919  1.00  0.00    -0.378 N 
HETATM   22  H11 UNL     1      25.361   0.799  50.956  1.00  0.00     0.160 HD
BRANCH  21  23
HETATM   23  C9  UNL     1      26.696   0.984  52.565  1.00  0.00     0.030 A 
HETATM   24  C10 UNL     1      27.452   1.947  53.198  1.00  0.00     0.029 A 
HETATM   25  C11 UNL     1      28.650   1.740  53.848  1.00  0.00     0.004 A 
HETATM   26  C12 UNL     1      29.141   0.442  53.866  1.00  0.00     0.019 A 
HETATM   27  C13 UNL     1      28.444  -0.579  53.254  1.00  0.00     0.013 A 
HETATM   28 BR1  UNL     1      29.108  -2.368  53.269  1.00  0.00    -0.051 Br
HETATM   29  C14 UNL     1      27.255  -0.273  52.629  1.00  0.00     0.048 A 
ENDBRANCH  21  23
ENDBRANCH  10  21
TORSDOF 2
ENDMDL
MODEL 3
REMARK VINA RESULT:      -8.3      3.984      7.784
REMARK  2 active torsions:
REMARK  status: ('A' for Active; 'I' for Inactive)
REMARK    1  A    between atoms: C8_10  and  N2_11 
REMARK    2  A    between atoms: N2_11  and  C9_12 
ROOT
HETATM    1  C1  UNL     1      21.220   8.379  49.735  1.00  0.00     0.063 C 
HETATM    2  C2  UNL     1      22.324   7.744  48.985  1.00  0.00     0.222 C 
HETATM    3  O1  UNL     1      22.024   7.812  47.588  1.00  0.00    -0.346 OA
HETATM    4  C3  UNL     1      21.984   6.489  47.115  1.00  0.00     0.321 C 
HETATM    5  N1  UNL     1      23.039   5.617  47.470  1.00  0.00    -0.250 NA
HETATM    6  C4  UNL     1      23.358   5.394  48.688  1.00  0.00     0.109 C 
HETATM    7  C5  UNL     1      24.327   4.604  49.387  1.00  0.00     0.081 C 
HETATM    8  C6  UNL     1      25.760   4.757  49.019  1.00  0.00    -0.016 C 
HETATM    9  C7  UNL     1      26.475   3.928  49.832  1.00  0.00    -0.001 C 
HETATM   10  C8  UNL     1      25.995   3.011  50.932  1.00  0.00     0.135 C 
HETATM   11  C15 UNL     1      24.588   3.335  51.336  1.00  0.00    -0.038 C 
HETATM   12  C16 UNL     1      23.901   2.387  51.950  1.00  0.00     0.088 C 
HETATM   13  N3  UNL     1      22.608   2.212  52.497  1.00  0.00    -0.395 N 
HETATM   14  C17 UNL     1      21.578   2.004  51.456  1.00  0.00     0.146 C 
HETATM   15  C18 UNL     1      21.432   3.269  50.674  1.00  0.00    -0.010 C 
HETATM   16  C19 UNL     1      21.447   4.066  49.621  1.00  0.00    -0.009 C 
HETATM   17  C20 UNL     1      21.146   5.513  49.447  1.00  0.00     0.154 C 
HETATM   18  N4  UNL     1      22.301   6.264  49.049  1.00  0.00    -0.339 N 
HETATM   19  C21 UNL     1      24.287   4.747  50.889  1.00  0.00     0.054 C 
HETATM   20  H17 UNL     1      22.435   2.234  53.543  1.00  0.00     0.159 HD
ENDROOT
BRANCH  10  21
HETATM   21  N2  UNL     1      26.877   2.981  52.039  1.00  0.00    -0.378 N 
HETATM   22  H11 UNL     1      27.075   3.921  52.481  1.00  0.00     0.160 HD
BRANCH  21  23
HETATM   23  C9  UNL     1      27.516   1.873  52.615  1.00  0.00     0.030 A 
HETATM   24  C10 UNL     1      28.591   1.940  53.474  1.00  0.00     0.029 A 
HETATM   25  C11 UNL     1      29.229   0.868  54.061  1.00  0.00     0.004 A 
HETATM   26  C12 UNL     1      28.745  -0.397  53.756  1.00  0.00     0.019 A 
HETATM   27  C13 UNL     1      27.673  -0.550  52.902  1.00  0.00     0.013 A 
HETATM   28 BR1  UNL     1      26.997  -2.282  52.473  1.00  0.00    -0.051 Br
HETATM   29  C14 UNL     1      27.101   0.583  52.365  1.00  0.00     0.048 A 
ENDBRANCH  21  23
ENDBRANCH  10  21
TORSDOF 2
ENDMDL
MODEL 4
REMARK VINA RESULT:      -8.2      5.283      8.468
REMARK  2 active torsions:
REMARK  status: ('A' for Active; 'I' for Inactive)
REMARK    1  A    between atoms: C8_10  and  N2_11 
REMARK    2  A    between atoms: N2_11  and  C9_12 
ROOT
HETATM    1  C1  UNL     1      26.588  11.072  48.773  1.00  0.00     0.063 C 
HETATM    2  C2  UNL     1      26.814   9.733  48.191  1.00  0.00     0.222 C 
HETATM    3  O1  UNL     1      26.849   9.855  46.766  1.00  0.00    -0.346 OA
HETATM    4  C3  UNL     1      25.820   9.042  46.262  1.00  0.00     0.321 C 
HETATM    5  N1  UNL     1      25.704   7.722  46.756  1.00  0.00    -0.250 NA
HETATM    6  C4  UNL     1      25.576   7.472  48.004  1.00  0.00     0.109 C 
HETATM    7  C5  UNL     1      25.436   6.308  48.827  1.00  0.00     0.081 C 
HETATM    8  C6  UNL     1      26.444   5.222  48.692  1.00  0.00    -0.016 C 
HETATM    9  C7  UNL     1      26.110   4.249  49.587  1.00  0.00    -0.001 C 
HETATM   10  C8  UNL     1      24.970   4.202  50.576  1.00  0.00     0.135 C 
HETATM   11  C15 UNL     1      24.356   5.558  50.762  1.00  0.00    -0.038 C 
HETATM   12  C16 UNL     1      23.123   5.602  51.239  1.00  0.00     0.088 C 
HETATM   13  N3  UNL     1      22.159   6.583  51.573  1.00  0.00    -0.395 N 
HETATM   14  C17 UNL     1      21.504   7.159  50.379  1.00  0.00     0.146 C 
HETATM   15  C18 UNL     1      22.517   7.946  49.613  1.00  0.00    -0.010 C 
HETATM   16  C19 UNL     1      23.283   8.295  48.595  1.00  0.00    -0.009 C 
HETATM   17  C20 UNL     1      24.283   9.381  48.410  1.00  0.00     0.154 C 
HETATM   18  N4  UNL     1      25.609   8.871  48.215  1.00  0.00    -0.339 N 
HETATM   19  C21 UNL     1      25.358   6.592  50.308  1.00  0.00     0.054 C 
HETATM   20  H17 UNL     1      21.958   6.851  52.578  1.00  0.00     0.159 HD
ENDROOT
BRANCH  10  21
HETATM   21  N2  UNL     1      25.342   3.609  51.807  1.00  0.00    -0.378 N 
HETATM   22  H11 UNL     1      25.563   4.289  52.585  1.00  0.00     0.160 HD
BRANCH  21  23
HETATM   23  C9  UNL     1      25.453   2.245  52.118  1.00  0.00     0.030 A 
HETATM   24  C10 UNL     1      26.578   1.478  51.906  1.00  0.00     0.029 A 
HETATM   25  C11 UNL     1      26.716   0.140  52.212  1.00  0.00     0.004 A 
HETATM   26  C12 UNL     1      25.621  -0.492  52.784  1.00  0.00     0.019 A 
HETATM   27  C13 UNL     1      24.457   0.207  53.026  1.00  0.00     0.013 A 
HETATM   28 BR1  UNL     1      22.942  -0.650  53.810  1.00  0.00    -0.051 Br
HETATM   29  C14 UNL     1      24.414   1.541  52.686  1.00  0.00     0.048 A 
ENDBRANCH  21  23
ENDBRANCH  10  21
TORSDOF 2
ENDMDL
MODEL 5
REMARK VINA RESULT:      -8.1      5.469      8.020
REMARK  2 active torsions:
REMARK  status: ('A' for Active; 'I' for Inactive)
REMARK    1  A    between atoms: C8_10  and  N2_11 
REMARK    2  A    between atoms: N2_11  and  C9_12 
ROOT
HETATM    1  C1  UNL     1      27.881  10.292  49.551  1.00  0.00     0.063 C 
HETATM    2  C2  UNL     1      28.328   8.930  49.191  1.00  0.00     0.222 C 
HETATM    3  O1  UNL     1      29.296   9.031  48.143  1.00  0.00    -0.346 OA
HETATM    4  C3  UNL     1      28.789   8.309  47.049  1.00  0.00     0.321 C 
HETATM    5  N1  UNL     1      28.275   7.012  47.281  1.00  0.00    -0.250 NA
HETATM    6  C4  UNL     1      27.344   6.790  48.128  1.00  0.00     0.109 C 
HETATM    7  C5  UNL     1      26.609   5.655  48.601  1.00  0.00     0.081 C 
HETATM    8  C6  UNL     1      27.371   4.480  49.102  1.00  0.00    -0.016 C 
HETATM    9  C7  UNL     1      26.459   3.553  49.511  1.00  0.00    -0.001 C 
HETATM   10  C8  UNL     1      24.951   3.623  49.513  1.00  0.00     0.135 C 
HETATM   11  C15 UNL     1      24.472   5.032  49.321  1.00  0.00    -0.038 C 
HETATM   12  C16 UNL     1      23.236   5.195  48.879  1.00  0.00     0.088 C 
HETATM   13  N3  UNL     1      22.369   6.265  48.552  1.00  0.00    -0.395 N 
HETATM   14  C17 UNL     1      22.702   6.883  47.251  1.00  0.00     0.146 C 
HETATM   15  C18 UNL     1      24.027   7.564  47.373  1.00  0.00    -0.010 C 
HETATM   16  C19 UNL     1      25.296   7.828  47.120  1.00  0.00    -0.009 C 
HETATM   17  C20 UNL     1      26.254   8.815  47.688  1.00  0.00     0.154 C 
HETATM   18  N4  UNL     1      27.338   8.183  48.380  1.00  0.00    -0.339 N 
HETATM   19  C21 UNL     1      25.604   5.964  49.683  1.00  0.00     0.054 C 
HETATM   20  H17 UNL     1      21.580   6.563  49.195  1.00  0.00     0.159 HD
ENDROOT
BRANCH  10  21
HETATM   21  N2  UNL     1      24.379   3.014  50.656  1.00  0.00    -0.378 N 
HETATM   22  H11 UNL     1      24.836   3.266  51.575  1.00  0.00     0.160 HD
BRANCH  21  23
HETATM   23  C9  UNL     1      23.294   2.127  50.719  1.00  0.00     0.030 A 
HETATM   24  C10 UNL     1      22.476   1.804  49.658  1.00  0.00     0.029 A 
HETATM   25  C11 UNL     1      21.411   0.929  49.691  1.00  0.00     0.004 A 
HETATM   26  C12 UNL     1      21.136   0.317  50.907  1.00  0.00     0.019 A 
HETATM   27  C13 UNL     1      21.907   0.589  52.018  1.00  0.00     0.013 A 
HETATM   28 BR1  UNL     1      21.540  -0.243  53.696  1.00  0.00    -0.051 Br
HETATM   29  C14 UNL     1      22.951   1.478  51.885  1.00  0.00     0.048 A 
ENDBRANCH  21  23
ENDBRANCH  10  21
TORSDOF 2
ENDMDL
MODEL 6
REMARK VINA RESULT:      -8.0      1.869      2.318
REMARK  2 active torsions:
REMARK  status: ('A' for Active; 'I' for Inactive)
REMARK    1  A    between atoms: C8_10  and  N2_11 
REMARK    2  A    between atoms: N2_11  and  C9_12 
ROOT
HETATM    1  C1  UNL     1      27.427  -1.984  52.497  1.00  0.00     0.063 C 
HETATM    2  C2  UNL     1      27.251  -0.535  52.726  1.00  0.00     0.222 C 
HETATM    3  O1  UNL     1      28.151  -0.124  53.760  1.00  0.00    -0.346 OA
HETATM    4  C3  UNL     1      27.364   0.411  54.795  1.00  0.00     0.321 C 
HETATM    5  N1  UNL     1      26.357   1.344  54.459  1.00  0.00    -0.250 NA
HETATM    6  C4  UNL     1      25.435   1.076  53.613  1.00  0.00     0.109 C 
HETATM    7  C5  UNL     1      24.300   1.749  53.056  1.00  0.00     0.081 C 
HETATM    8  C6  UNL     1      24.505   3.086  52.438  1.00  0.00    -0.016 C 
HETATM    9  C7  UNL     1      23.296   3.501  51.965  1.00  0.00    -0.001 C 
HETATM   10  C8  UNL     1      21.958   2.801  51.999  1.00  0.00     0.135 C 
HETATM   11  C15 UNL     1      22.114   1.346  52.325  1.00  0.00    -0.038 C 
HETATM   12  C16 UNL     1      21.054   0.716  52.804  1.00  0.00     0.088 C 
HETATM   13  N3  UNL     1      20.713  -0.586  53.242  1.00  0.00    -0.395 N 
HETATM   14  C17 UNL     1      21.249  -0.887  54.587  1.00  0.00     0.146 C 
HETATM   15  C18 UNL     1      22.740  -0.954  54.500  1.00  0.00    -0.010 C 
HETATM   16  C19 UNL     1      23.996  -0.635  54.750  1.00  0.00    -0.009 C 
HETATM   17  C20 UNL     1      25.292  -1.172  54.253  1.00  0.00     0.154 C 
HETATM   18  N4  UNL     1      26.023  -0.205  53.487  1.00  0.00    -0.339 N 
HETATM   19  C21 UNL     1      23.540   0.949  52.025  1.00  0.00     0.054 C 
HETATM   20  H17 UNL     1      20.136  -1.244  52.645  1.00  0.00     0.159 HD
ENDROOT
BRANCH  10  21
HETATM   21  N2  UNL     1      21.205   3.008  50.818  1.00  0.00    -0.378 N 
HETATM   22  H11 UNL     1      21.716   2.796  49.917  1.00  0.00     0.160 HD
BRANCH  21  23
HETATM   23  C9  UNL     1      19.882   3.456  50.696  1.00  0.00     0.030 A 
HETATM   24  C10 UNL     1      18.895   3.270  51.641  1.00  0.00     0.029 A 
HETATM   25  C11 UNL     1      17.592   3.709  51.549  1.00  0.00     0.004 A 
HETATM   26  C12 UNL     1      17.239   4.402  50.399  1.00  0.00     0.019 A 
HETATM   27  C13 UNL     1      18.168   4.628  49.406  1.00  0.00     0.013 A 
HETATM   28 BR1  UNL     1      17.697   5.577  47.818  1.00  0.00    -0.051 Br
HETATM   29  C14 UNL     1      19.447   4.150  49.588  1.00  0.00     0.048 A 
ENDBRANCH  21  23
ENDBRANCH  10  21
TORSDOF 2
ENDMDL
MODEL 7
REMARK VINA RESULT:      -7.8      4.237      8.150
REMARK  2 active torsions:
REMARK  status: ('A' for Active; 'I' for Inactive)
REMARK    1  A    between atoms: C8_10  and  N2_11 
REMARK    2  A    between atoms: N2_11  and  C9_12 
ROOT
HETATM    1  C1  UNL     1      20.522   6.389  47.105  1.00  0.00     0.063 C 
HETATM    2  C2  UNL     1      20.574   6.240  48.574  1.00  0.00     0.222 C 
HETATM    3  O1  UNL     1      20.069   7.438  49.172  1.00  0.00    -0.346 OA
HETATM    4  C3  UNL     1      21.100   7.960  49.971  1.00  0.00     0.321 C 
HETATM    5  N1  UNL     1      21.781   7.083  50.847  1.00  0.00    -0.250 NA
HETATM    6  C4  UNL     1      22.356   6.018  50.432  1.00  0.00     0.109 C 
HETATM    7  C5  UNL     1      23.108   4.945  51.010  1.00  0.00     0.081 C 
HETATM    8  C6  UNL     1      22.514   4.202  52.154  1.00  0.00    -0.016 C 
HETATM    9  C7  UNL     1      23.400   3.227  52.505  1.00  0.00    -0.001 C 
HETATM   10  C8  UNL     1      24.738   2.879  51.897  1.00  0.00     0.135 C 
HETATM   11  C15 UNL     1      24.908   3.521  50.553  1.00  0.00    -0.038 C 
HETATM   12  C16 UNL     1      26.144   3.667  50.104  1.00  0.00     0.088 C 
HETATM   13  N3  UNL     1      26.792   4.188  48.959  1.00  0.00    -0.395 N 
HETATM   14  C17 UNL     1      26.830   5.666  48.955  1.00  0.00     0.146 C 
HETATM   15  C18 UNL     1      25.434   6.177  48.799  1.00  0.00    -0.010 C 
HETATM   16  C19 UNL     1      24.326   6.825  49.107  1.00  0.00    -0.009 C 
HETATM   17  C20 UNL     1      23.022   6.985  48.407  1.00  0.00     0.154 C 
HETATM   18  N4  UNL     1      21.940   6.385  49.131  1.00  0.00    -0.339 N 
HETATM   19  C21 UNL     1      23.538   3.881  50.029  1.00  0.00     0.054 C 
HETATM   20  H17 UNL     1      27.193   3.557  48.208  1.00  0.00     0.159 HD
ENDROOT
BRANCH  10  21
HETATM   21  N2  UNL     1      24.971   1.484  51.858  1.00  0.00    -0.378 N 
HETATM   22  H11 UNL     1      24.233   0.918  51.355  1.00  0.00     0.160 HD
BRANCH  21  23
HETATM   23  C9  UNL     1      26.049   0.765  52.398  1.00  0.00     0.030 A 
HETATM   24  C10 UNL     1      26.219  -0.599  52.294  1.00  0.00     0.029 A 
HETATM   25  C11 UNL     1      27.272  -1.326  52.807  1.00  0.00     0.004 A 
HETATM   26  C12 UNL     1      28.251  -0.620  53.493  1.00  0.00     0.019 A 
HETATM   27  C13 UNL     1      28.153   0.747  53.642  1.00  0.00     0.013 A 
HETATM   28 BR1  UNL     1      29.490   1.731  54.584  1.00  0.00    -0.051 Br
HETATM   29  C14 UNL     1      27.063   1.387  53.094  1.00  0.00     0.048 A 
ENDBRANCH  21  23
ENDBRANCH  10  21
TORSDOF 2
ENDMDL
MODEL 8
REMARK VINA RESULT:      -7.8      8.951     10.722
REMARK  2 active torsions:
REMARK  status: ('A' for Active; 'I' for Inactive)
REMARK    1  A    between atoms: C8_10  and  N2_11 
REMARK    2  A    between atoms: N2_11  and  C9_12 
ROOT
HETATM    1  C1  UNL     1      35.300   5.930  49.016  1.00  0.00     0.063 C 
HETATM    2  C2  UNL     1      34.083   5.435  48.340  1.00  0.00     0.222 C 
HETATM    3  O1  UNL     1      34.466   4.812  47.110  1.00  0.00    -0.346 OA
HETATM    4  C3  UNL     1      33.809   5.507  46.080  1.00  0.00     0.321 C 
HETATM    5  N1  UNL     1      32.428   5.773  46.224  1.00  0.00    -0.250 NA
HETATM    6  C4  UNL     1      31.958   6.401  47.233  1.00  0.00     0.109 C 
HETATM    7  C5  UNL     1      30.669   6.832  47.688  1.00  0.00     0.081 C 
HETATM    8  C6  UNL     1      29.580   5.823  47.784  1.00  0.00    -0.016 C 
HETATM    9  C7  UNL     1      28.475   6.466  48.257  1.00  0.00    -0.001 C 
HETATM   10  C8  UNL     1      28.301   7.912  48.654  1.00  0.00     0.135 C 
HETATM   11  C15 UNL     1      29.626   8.595  48.818  1.00  0.00    -0.038 C 
HETATM   12  C16 UNL     1      29.640   9.916  48.737  1.00  0.00     0.088 C 
HETATM   13  N3  UNL     1      30.587  10.964  48.817  1.00  0.00    -0.395 N 
HETATM   14  C17 UNL     1      31.404  11.080  47.590  1.00  0.00     0.146 C 
HETATM   15  C18 UNL     1      32.270   9.867  47.479  1.00  0.00    -0.010 C 
HETATM   16  C19 UNL     1      32.765   8.759  46.958  1.00  0.00    -0.009 C 
HETATM   17  C20 UNL     1      33.818   7.811  47.415  1.00  0.00     0.154 C 
HETATM   18  N4  UNL     1      33.290   6.509  47.698  1.00  0.00    -0.339 N 
HETATM   19  C21 UNL     1      30.678   7.532  49.026  1.00  0.00     0.054 C 
HETATM   20  H17 UNL     1      30.673  11.576  49.677  1.00  0.00     0.159 HD
ENDROOT
BRANCH  10  21
HETATM   21  N2  UNL     1      27.473   8.069  49.791  1.00  0.00    -0.378 N 
HETATM   22  H11 UNL     1      27.984   8.263  50.696  1.00  0.00     0.160 HD
BRANCH  21  23
HETATM   23  C9  UNL     1      26.074   7.997  49.867  1.00  0.00     0.030 A 
HETATM   24  C10 UNL     1      25.205   8.896  49.287  1.00  0.00     0.029 A 
HETATM   25  C11 UNL     1      23.828   8.842  49.339  1.00  0.00     0.004 A 
HETATM   26  C12 UNL     1      23.265   7.784  50.040  1.00  0.00     0.019 A 
HETATM   27  C13 UNL     1      24.066   6.843  50.650  1.00  0.00     0.013 A 
HETATM   28 BR1  UNL     1      23.306   5.384  51.618  1.00  0.00    -0.051 Br
HETATM   29  C14 UNL     1      25.432   6.981  50.543  1.00  0.00     0.048 A 
ENDBRANCH  21  23
ENDBRANCH  10  21
TORSDOF 2
ENDMDL
MODEL 9
REMARK VINA RESULT:      -7.8      3.901      6.361
REMARK  2 active torsions:
REMARK  status: ('A' for Active; 'I' for Inactive)
REMARK    1  A    between atoms: C8_10  and  N2_11 
REMARK    2  A    between atoms: N2_11  and  C9_12 
ROOT
HETATM    1  C1  UNL     1      24.162   4.691  53.329  1.00  0.00     0.063 C 
HETATM    2  C2  UNL     1      24.314   3.249  53.612  1.00  0.00     0.222 C 
HETATM    3  O1  UNL     1      25.669   2.873  53.349  1.00  0.00    -0.346 OA
HETATM    4  C3  UNL     1      25.630   1.877  52.358  1.00  0.00     0.321 C 
HETATM    5  N1  UNL     1      24.721   0.806  52.519  1.00  0.00    -0.250 NA
HETATM    6  C4  UNL     1      23.466   0.995  52.675  1.00  0.00     0.109 C 
HETATM    7  C5  UNL     1      22.302   0.181  52.856  1.00  0.00     0.081 C 
HETATM    8  C6  UNL     1      22.306  -0.823  53.953  1.00  0.00    -0.016 C 
HETATM    9  C7  UNL     1      21.092  -1.445  53.936  1.00  0.00    -0.001 C 
HETATM   10  C8  UNL     1      19.906  -1.213  53.030  1.00  0.00     0.135 C 
HETATM   11  C15 UNL     1      20.033   0.085  52.289  1.00  0.00    -0.038 C 
HETATM   12  C16 UNL     1      19.326   0.220  51.179  1.00  0.00     0.088 C 
HETATM   13  N3  UNL     1      19.115   1.198  50.179  1.00  0.00    -0.395 N 
HETATM   14  C17 UNL     1      20.246   1.286  49.229  1.00  0.00     0.146 C 
HETATM   15  C18 UNL     1      21.438   1.817  49.958  1.00  0.00    -0.010 C 
HETATM   16  C19 UNL     1      22.662   1.837  50.454  1.00  0.00    -0.009 C 
HETATM   17  C20 UNL     1      23.415   2.848  51.245  1.00  0.00     0.154 C 
HETATM   18  N4  UNL     1      23.734   2.380  52.561  1.00  0.00    -0.339 N 
HETATM   19  C21 UNL     1      21.017   0.955  53.034  1.00  0.00     0.054 C 
HETATM   20  H17 UNL     1      18.233   1.784  50.145  1.00  0.00     0.159 HD
ENDROOT
BRANCH  10  21
HETATM   21  N2  UNL     1      18.671  -1.321  53.712  1.00  0.00    -0.378 N 
HETATM   22  H11 UNL     1      18.577  -0.713  54.572  1.00  0.00     0.160 HD
BRANCH  21  23
HETATM   23  C9  UNL     1      17.568  -2.128  53.395  1.00  0.00     0.030 A 
HETATM   24  C10 UNL     1      17.417  -3.444  53.777  1.00  0.00     0.029 A 
HETATM   25  C11 UNL     1      16.340  -4.254  53.486  1.00  0.00     0.004 A 
HETATM   26  C12 UNL     1      15.313  -3.694  52.739  1.00  0.00     0.019 A 
HETATM   27  C13 UNL     1      15.390  -2.384  52.316  1.00  0.00     0.013 A 
HETATM   28 BR1  UNL     1      13.986  -1.601  51.286  1.00  0.00    -0.051 Br
HETATM   29  C14 UNL     1      16.506  -1.653  52.656  1.00  0.00     0.048 A 
ENDBRANCH  21  23
ENDBRANCH  10  21
TORSDOF 2
ENDMDL
