MODEL 1
REMARK VINA RESULT:      -7.4      0.000      0.000
REMARK  4 active torsions:
REMARK  status: ('A' for Active; 'I' for Inactive)
REMARK    1  A    between atoms: C2_2  and  N1_3 
REMARK    2  A    between atoms: N1_3  and  C3_4 
REMARK    3  A    between atoms: N1_3  and  N3_6 
REMARK    4  A    between atoms: C7_12  and  N6_13 
ROOT
HETATM    1  N3  UNL     1      26.245   1.984  53.554  1.00  0.00    -0.210 N 
HETATM    2  N4  UNL     1      27.574   2.452  53.717  1.00  0.00    -0.217 NA
HETATM    3  C4  UNL     1      28.402   1.271  53.475  1.00  0.00     0.118 C 
HETATM    4  C5  UNL     1      28.267   0.354  54.683  1.00  0.00     0.078 C 
HETATM    5  C6  UNL     1      26.884  -0.240  54.643  1.00  0.00     0.072 A 
HETATM    6  N5  UNL     1      25.872  -1.032  54.768  1.00  0.00    -0.231 NA
HETATM    7  C7  UNL     1      24.922  -0.152  54.187  1.00  0.00     0.162 A 
HETATM    8  C13 UNL     1      25.934   0.686  54.044  1.00  0.00     0.140 A 
HETATM    9  H8  UNL     1      27.751   3.179  53.004  1.00  0.00     0.148 HD
ENDROOT
BRANCH   7  10
HETATM   10  N6  UNL     1      23.537  -0.400  53.997  1.00  0.00    -0.336 N 
HETATM   11  C8  UNL     1      22.927   0.063  52.822  1.00  0.00     0.095 A 
HETATM   12  C9  UNL     1      21.638  -0.184  52.658  1.00  0.00     0.041 A 
HETATM   13  C10 UNL     1      20.811  -0.902  53.615  1.00  0.00     0.033 A 
HETATM   14 CL1  UNL     1      19.120  -1.151  53.253  1.00  0.00    -0.085 Cl
HETATM   15  C11 UNL     1      21.409  -1.324  54.709  1.00  0.00     0.017 A 
HETATM   16  C12 UNL     1      22.822  -1.136  55.046  1.00  0.00     0.159 A 
ENDBRANCH   7  10
BRANCH   1  17
HETATM   17  N1  UNL     1      25.315   2.810  52.922  1.00  0.00    -0.270 N 
BRANCH  17  18
HETATM   18  C2  UNL     1      24.139   3.645  53.044  1.00  0.00     0.147 C 
HETATM   19  C1  UNL     1      23.344   3.573  51.776  1.00  0.00     0.028 C 
ENDBRANCH  17  18
BRANCH  17  20
HETATM   20  C3  UNL     1      25.862   2.721  51.603  1.00  0.00     0.218 C 
HETATM   21  N2  UNL     1      26.852   3.263  50.974  1.00  0.00    -0.294 NA
HETATM   22  H7  UNL     1      27.507   3.951  51.380  1.00  0.00     0.187 HD
ENDBRANCH  17  20
ENDBRANCH   1  17
TORSDOF 4
ENDMDL
MODEL 2
REMARK VINA RESULT:      -7.3      3.136      5.371
REMARK  4 active torsions:
REMARK  status: ('A' for Active; 'I' for Inactive)
REMARK    1  A    between atoms: C2_2  and  N1_3 
REMARK    2  A    between atoms: N1_3  and  C3_4 
REMARK    3  A    between atoms: N1_3  and  N3_6 
REMARK    4  A    between atoms: C7_12  and  N6_13 
ROOT
HETATM    1  N3  UNL     1      22.529   0.527  52.574  1.00  0.00    -0.210 N 
HETATM    2  N4  UNL     1      21.115   0.530  52.463  1.00  0.00    -0.217 NA
HETATM    3  C4  UNL     1      20.647   0.549  53.848  1.00  0.00     0.118 C 
HETATM    4  C5  UNL     1      20.889  -0.833  54.440  1.00  0.00     0.078 C 
HETATM    5  C6  UNL     1      22.374  -0.985  54.630  1.00  0.00     0.072 A 
HETATM    6  N5  UNL     1      23.538  -1.323  55.076  1.00  0.00    -0.231 NA
HETATM    7  C7  UNL     1      24.284  -0.610  54.102  1.00  0.00     0.162 A 
HETATM    8  C13 UNL     1      23.111  -0.244  53.616  1.00  0.00     0.140 A 
HETATM    9  H8  UNL     1      20.831   1.390  51.965  1.00  0.00     0.148 HD
ENDROOT
BRANCH   7  10
HETATM   10  N6  UNL     1      25.698  -0.542  53.997  1.00  0.00    -0.336 N 
HETATM   11  C8  UNL     1      26.328  -1.224  52.945  1.00  0.00     0.095 A 
HETATM   12  C9  UNL     1      27.644  -1.144  52.858  1.00  0.00     0.041 A 
HETATM   13  C10 UNL     1      28.485  -0.396  53.781  1.00  0.00     0.033 A 
HETATM   14 CL1  UNL     1      30.213  -0.383  53.531  1.00  0.00    -0.085 Cl
HETATM   15  C11 UNL     1      27.868   0.234  54.759  1.00  0.00     0.017 A 
HETATM   16  C12 UNL     1      26.423   0.248  54.999  1.00  0.00     0.159 A 
ENDBRANCH   7  10
BRANCH   1  17
HETATM   17  N1  UNL     1      23.275   1.280  51.666  1.00  0.00    -0.270 N 
BRANCH  17  18
HETATM   18  C2  UNL     1      24.513   1.974  51.379  1.00  0.00     0.147 C 
HETATM   19  C1  UNL     1      24.946   2.740  52.592  1.00  0.00     0.028 C 
ENDBRANCH  17  18
BRANCH  17  20
HETATM   20  C3  UNL     1      22.306   1.308  50.614  1.00  0.00     0.218 C 
HETATM   21  N2  UNL     1      21.549   2.207  50.077  1.00  0.00    -0.294 NA
HETATM   22  H7  UNL     1      21.515   3.199  50.361  1.00  0.00     0.187 HD
ENDBRANCH  17  20
ENDBRANCH   1  17
TORSDOF 4
ENDMDL
MODEL 3
REMARK VINA RESULT:      -6.8      0.801      1.769
REMARK  4 active torsions:
REMARK  status: ('A' for Active; 'I' for Inactive)
REMARK    1  A    between atoms: C2_2  and  N1_3 
REMARK    2  A    between atoms: N1_3  and  C3_4 
REMARK    3  A    between atoms: N1_3  and  N3_6 
REMARK    4  A    between atoms: C7_12  and  N6_13 
ROOT
HETATM    1  N3  UNL     1      26.116   1.958  52.985  1.00  0.00    -0.210 N 
HETATM    2  N4  UNL     1      27.450   2.425  53.105  1.00  0.00    -0.217 NA
HETATM    3  C4  UNL     1      28.254   1.205  53.146  1.00  0.00     0.118 C 
HETATM    4  C5  UNL     1      28.049   0.557  54.508  1.00  0.00     0.078 C 
HETATM    5  C6  UNL     1      26.653  -0.006  54.531  1.00  0.00     0.072 A 
HETATM    6  N5  UNL     1      25.616  -0.737  54.771  1.00  0.00    -0.231 NA
HETATM    7  C7  UNL     1      24.713   0.023  53.983  1.00  0.00     0.162 A 
HETATM    8  C13 UNL     1      25.751   0.795  53.715  1.00  0.00     0.140 A 
HETATM    9  H8  UNL     1      27.673   2.988  52.267  1.00  0.00     0.148 HD
ENDROOT
BRANCH   7  10
HETATM   10  N6  UNL     1      23.330  -0.235  53.788  1.00  0.00    -0.336 N 
HETATM   11  C8  UNL     1      22.634  -0.948  54.775  1.00  0.00     0.095 A 
HETATM   12  C9  UNL     1      21.346  -1.173  54.581  1.00  0.00     0.041 A 
HETATM   13  C10 UNL     1      20.602  -0.730  53.411  1.00  0.00     0.033 A 
HETATM   14 CL1  UNL     1      18.899  -1.103  53.301  1.00  0.00    -0.085 Cl
HETATM   15  C11 UNL     1      21.280  -0.064  52.500  1.00  0.00     0.017 A 
HETATM   16  C12 UNL     1      22.706   0.268  52.559  1.00  0.00     0.159 A 
ENDBRANCH   7  10
BRANCH   1  17
HETATM   17  N1  UNL     1      25.233   2.654  52.157  1.00  0.00    -0.270 N 
BRANCH  17  18
HETATM   18  C2  UNL     1      24.781   2.930  50.810  1.00  0.00     0.147 C 
HETATM   19  C1  UNL     1      25.965   3.217  49.938  1.00  0.00     0.028 C 
ENDBRANCH  17  18
BRANCH  17  20
HETATM   20  C3  UNL     1      24.524   3.345  53.190  1.00  0.00     0.218 C 
HETATM   21  N2  UNL     1      24.158   4.566  53.402  1.00  0.00    -0.294 NA
HETATM   22  H7  UNL     1      24.345   5.359  52.767  1.00  0.00     0.187 HD
ENDBRANCH  17  20
ENDBRANCH   1  17
TORSDOF 4
ENDMDL
MODEL 4
REMARK VINA RESULT:      -6.7      1.201      1.747
REMARK  4 active torsions:
REMARK  status: ('A' for Active; 'I' for Inactive)
REMARK    1  A    between atoms: C2_2  and  N1_3 
REMARK    2  A    between atoms: N1_3  and  C3_4 
REMARK    3  A    between atoms: N1_3  and  N3_6 
REMARK    4  A    between atoms: C7_12  and  N6_13 
ROOT
HETATM    1  N3  UNL     1      25.831   2.184  52.733  1.00  0.00    -0.210 N 
HETATM    2  N4  UNL     1      27.178   2.467  53.074  1.00  0.00    -0.217 NA
HETATM    3  C4  UNL     1      27.810   1.152  53.156  1.00  0.00     0.118 C 
HETATM    4  C5  UNL     1      27.323   0.479  54.432  1.00  0.00     0.078 C 
HETATM    5  C6  UNL     1      25.881   0.103  54.218  1.00  0.00     0.072 A 
HETATM    6  N5  UNL     1      24.738  -0.495  54.260  1.00  0.00    -0.231 NA
HETATM    7  C7  UNL     1      24.065   0.409  53.398  1.00  0.00     0.162 A 
HETATM    8  C13 UNL     1      25.219   1.049  53.331  1.00  0.00     0.140 A 
HETATM    9  H8  UNL     1      27.593   3.030  52.313  1.00  0.00     0.148 HD
ENDROOT
BRANCH   7  10
HETATM   10  N6  UNL     1      22.707   0.344  52.990  1.00  0.00    -0.336 N 
HETATM   11  C8  UNL     1      21.719   0.157  53.968  1.00  0.00     0.095 A 
HETATM   12  C9  UNL     1      20.459   0.105  53.571  1.00  0.00     0.041 A 
HETATM   13  C10 UNL     1      20.028   0.228  52.187  1.00  0.00     0.033 A 
HETATM   14 CL1  UNL     1      18.322   0.142  51.822  1.00  0.00    -0.085 Cl
HETATM   15  C11 UNL     1      20.975   0.401  51.290  1.00  0.00     0.017 A 
HETATM   16  C12 UNL     1      22.413   0.481  51.558  1.00  0.00     0.159 A 
ENDBRANCH   7  10
BRANCH   1  17
HETATM   17  N1  UNL     1      25.176   3.024  51.831  1.00  0.00    -0.270 N 
BRANCH  17  18
HETATM   18  C2  UNL     1      24.017   3.843  51.543  1.00  0.00     0.147 C 
HETATM   19  C1  UNL     1      23.405   4.307  52.829  1.00  0.00     0.028 C 
ENDBRANCH  17  18
BRANCH  17  20
HETATM   20  C3  UNL     1      26.166   2.988  50.799  1.00  0.00     0.218 C 
HETATM   21  N2  UNL     1      27.082   3.791  50.368  1.00  0.00    -0.294 NA
HETATM   22  H7  UNL     1      27.278   4.729  50.755  1.00  0.00     0.187 HD
ENDBRANCH  17  20
ENDBRANCH   1  17
TORSDOF 4
ENDMDL
MODEL 5
REMARK VINA RESULT:      -6.7      2.972      5.733
REMARK  4 active torsions:
REMARK  status: ('A' for Active; 'I' for Inactive)
REMARK    1  A    between atoms: C2_2  and  N1_3 
REMARK    2  A    between atoms: N1_3  and  C3_4 
REMARK    3  A    between atoms: N1_3  and  N3_6 
REMARK    4  A    between atoms: C7_12  and  N6_13 
ROOT
HETATM    1  N3  UNL     1      23.680   0.059  53.506  1.00  0.00    -0.210 N 
HETATM    2  N4  UNL     1      23.279  -0.944  54.424  1.00  0.00    -0.217 NA
HETATM    3  C4  UNL     1      21.962  -1.361  53.947  1.00  0.00     0.118 C 
HETATM    4  C5  UNL     1      20.974  -0.251  54.279  1.00  0.00     0.078 C 
HETATM    5  C6  UNL     1      21.271   0.904  53.361  1.00  0.00     0.072 A 
HETATM    6  N5  UNL     1      21.163   1.946  52.607  1.00  0.00    -0.231 NA
HETATM    7  C7  UNL     1      22.539   2.029  52.269  1.00  0.00     0.162 A 
HETATM    8  C13 UNL     1      22.689   0.961  53.033  1.00  0.00     0.140 A 
HETATM    9  H8  UNL     1      23.956  -1.723  54.369  1.00  0.00     0.148 HD
ENDROOT
BRANCH   7  10
HETATM   10  N6  UNL     1      23.152   2.993  51.426  1.00  0.00    -0.336 N 
HETATM   11  C8  UNL     1      23.414   2.649  50.091  1.00  0.00     0.095 A 
HETATM   12  C9  UNL     1      23.978   3.561  49.319  1.00  0.00     0.041 A 
HETATM   13  C10 UNL     1      24.347   4.898  49.760  1.00  0.00     0.033 A 
HETATM   14 CL1  UNL     1      25.085   5.993  48.617  1.00  0.00    -0.085 Cl
HETATM   15  C11 UNL     1      24.092   5.193  51.017  1.00  0.00     0.017 A 
HETATM   16  C12 UNL     1      23.473   4.303  52.003  1.00  0.00     0.159 A 
ENDBRANCH   7  10
BRANCH   1  17
HETATM   17  N1  UNL     1      25.017   0.110  53.108  1.00  0.00    -0.270 N 
BRANCH  17  18
HETATM   18  C2  UNL     1      25.986   0.559  52.131  1.00  0.00     0.147 C 
HETATM   19  C1  UNL     1      26.405   1.961  52.455  1.00  0.00     0.028 C 
ENDBRANCH  17  18
BRANCH  17  20
HETATM   20  C3  UNL     1      25.562  -0.617  54.214  1.00  0.00     0.218 C 
HETATM   21  N2  UNL     1      26.244  -0.319  55.270  1.00  0.00    -0.294 NA
HETATM   22  H7  UNL     1      26.554   0.632  55.526  1.00  0.00     0.187 HD
ENDBRANCH  17  20
ENDBRANCH   1  17
TORSDOF 4
ENDMDL
MODEL 6
REMARK VINA RESULT:      -6.6      2.082      4.679
REMARK  4 active torsions:
REMARK  status: ('A' for Active; 'I' for Inactive)
REMARK    1  A    between atoms: C2_2  and  N1_3 
REMARK    2  A    between atoms: N1_3  and  C3_4 
REMARK    3  A    between atoms: N1_3  and  N3_6 
REMARK    4  A    between atoms: C7_12  and  N6_13 
ROOT
HETATM    1  N3  UNL     1      26.003   0.070  53.746  1.00  0.00    -0.210 N 
HETATM    2  N4  UNL     1      26.959  -0.811  54.313  1.00  0.00    -0.217 NA
HETATM    3  C4  UNL     1      28.032   0.069  54.770  1.00  0.00     0.118 C 
HETATM    4  C5  UNL     1      28.784   0.563  53.542  1.00  0.00     0.078 C 
HETATM    5  C6  UNL     1      27.886   1.535  52.826  1.00  0.00     0.072 A 
HETATM    6  N5  UNL     1      27.439   2.522  52.123  1.00  0.00    -0.231 NA
HETATM    7  C7  UNL     1      26.064   2.203  52.277  1.00  0.00     0.162 A 
HETATM    8  C13 UNL     1      26.485   1.182  53.002  1.00  0.00     0.140 A 
HETATM    9  H8  UNL     1      26.516  -1.300  55.110  1.00  0.00     0.148 HD
ENDROOT
BRANCH   7  10
HETATM   10  N6  UNL     1      24.961   2.914  51.736  1.00  0.00    -0.336 N 
HETATM   11  C8  UNL     1      24.064   3.536  52.617  1.00  0.00     0.095 A 
HETATM   12  C9  UNL     1      23.046   4.198  52.095  1.00  0.00     0.041 A 
HETATM   13  C10 UNL     1      22.793   4.325  50.668  1.00  0.00     0.033 A 
HETATM   14 CL1  UNL     1      21.403   5.238  50.133  1.00  0.00    -0.085 Cl
HETATM   15  C11 UNL     1      23.649   3.730  49.864  1.00  0.00     0.017 A 
HETATM   16  C12 UNL     1      24.825   2.959  50.275  1.00  0.00     0.159 A 
ENDBRANCH   7  10
BRANCH   1  17
HETATM   17  N1  UNL     1      24.647  -0.189  53.948  1.00  0.00    -0.270 N 
BRANCH  17  18
HETATM   18  C2  UNL     1      23.277   0.120  53.597  1.00  0.00     0.147 C 
HETATM   19  C1  UNL     1      22.483  -1.149  53.528  1.00  0.00     0.028 C 
ENDBRANCH  17  18
BRANCH  17  20
HETATM   20  C3  UNL     1      24.804  -1.214  54.934  1.00  0.00     0.218 C 
HETATM   21  N2  UNL     1      24.824  -1.261  56.225  1.00  0.00    -0.294 NA
HETATM   22  H7  UNL     1      24.713  -0.445  56.848  1.00  0.00     0.187 HD
ENDBRANCH  17  20
ENDBRANCH   1  17
TORSDOF 4
ENDMDL
MODEL 7
REMARK VINA RESULT:      -6.6      2.209      2.868
REMARK  4 active torsions:
REMARK  status: ('A' for Active; 'I' for Inactive)
REMARK    1  A    between atoms: C2_2  and  N1_3 
REMARK    2  A    between atoms: N1_3  and  C3_4 
REMARK    3  A    between atoms: N1_3  and  N3_6 
REMARK    4  A    between atoms: C7_12  and  N6_13 
ROOT
HETATM    1  N3  UNL     1      24.342   3.346  51.433  1.00  0.00    -0.210 N 
HETATM    2  N4  UNL     1      25.564   4.020  51.175  1.00  0.00    -0.217 NA
HETATM    3  C4  UNL     1      26.415   2.998  50.570  1.00  0.00     0.118 C 
HETATM    4  C5  UNL     1      26.841   2.035  51.670  1.00  0.00     0.078 C 
HETATM    5  C6  UNL     1      25.630   1.226  52.051  1.00  0.00     0.072 A 
HETATM    6  N5  UNL     1      24.849   0.276  52.444  1.00  0.00    -0.231 NA
HETATM    7  C7  UNL     1      23.641   1.006  52.296  1.00  0.00     0.162 A 
HETATM    8  C13 UNL     1      24.409   2.002  51.889  1.00  0.00     0.140 A 
HETATM    9  H8  UNL     1      25.375   4.787  50.509  1.00  0.00     0.148 HD
ENDROOT
BRANCH   7  10
HETATM   10  N6  UNL     1      22.327   0.541  52.565  1.00  0.00    -0.336 N 
HETATM   11  C8  UNL     1      21.416   0.448  51.502  1.00  0.00     0.095 A 
HETATM   12  C9  UNL     1      20.199   0.006  51.770  1.00  0.00     0.041 A 
HETATM   13  C10 UNL     1      19.741  -0.389  53.093  1.00  0.00     0.033 A 
HETATM   14 CL1  UNL     1      18.100  -0.957  53.286  1.00  0.00    -0.085 Cl
HETATM   15  C11 UNL     1      20.616  -0.291  54.072  1.00  0.00     0.017 A 
HETATM   16  C12 UNL     1      21.998   0.178  53.948  1.00  0.00     0.159 A 
ENDBRANCH   7  10
BRANCH   1  17
HETATM   17  N1  UNL     1      23.143   4.028  51.224  1.00  0.00    -0.270 N 
BRANCH  17  18
HETATM   18  C2  UNL     1      21.846   4.053  50.579  1.00  0.00     0.147 C 
HETATM   19  C1  UNL     1      20.772   4.067  51.624  1.00  0.00     0.028 C 
ENDBRANCH  17  18
BRANCH  17  20
HETATM   20  C3  UNL     1      23.431   5.159  52.051  1.00  0.00     0.218 C 
HETATM   21  N2  UNL     1      23.802   5.340  53.275  1.00  0.00    -0.294 NA
HETATM   22  H7  UNL     1      23.978   4.585  53.958  1.00  0.00     0.187 HD
ENDBRANCH  17  20
ENDBRANCH   1  17
TORSDOF 4
ENDMDL
MODEL 8
REMARK VINA RESULT:      -6.5      3.099      5.255
REMARK  4 active torsions:
REMARK  status: ('A' for Active; 'I' for Inactive)
REMARK    1  A    between atoms: C2_2  and  N1_3 
REMARK    2  A    between atoms: N1_3  and  C3_4 
REMARK    3  A    between atoms: N1_3  and  N3_6 
REMARK    4  A    between atoms: C7_12  and  N6_13 
ROOT
HETATM    1  N3  UNL     1      22.852   2.414  51.950  1.00  0.00    -0.210 N 
HETATM    2  N4  UNL     1      21.519   2.773  51.623  1.00  0.00    -0.217 NA
HETATM    3  C4  UNL     1      20.734   2.317  52.768  1.00  0.00     0.118 C 
HETATM    4  C5  UNL     1      20.651   0.798  52.701  1.00  0.00     0.078 C 
HETATM    5  C6  UNL     1      22.015   0.259  53.042  1.00  0.00     0.072 A 
HETATM    6  N5  UNL     1      22.983  -0.480  53.471  1.00  0.00    -0.231 NA
HETATM    7  C7  UNL     1      24.027   0.390  53.062  1.00  0.00     0.162 A 
HETATM    8  C13 UNL     1      23.063   1.173  52.610  1.00  0.00     0.140 A 
HETATM    9  H8  UNL     1      21.475   3.801  51.529  1.00  0.00     0.148 HD
ENDROOT
BRANCH   7  10
HETATM   10  N6  UNL     1      25.421   0.185  53.232  1.00  0.00    -0.336 N 
HETATM   11  C8  UNL     1      26.153   1.122  53.978  1.00  0.00     0.095 A 
HETATM   12  C9  UNL     1      27.448   0.911  54.132  1.00  0.00     0.041 A 
HETATM   13  C10 UNL     1      28.168  -0.226  53.579  1.00  0.00     0.033 A 
HETATM   14 CL1  UNL     1      29.884  -0.366  53.874  1.00  0.00    -0.085 Cl
HETATM   15  C11 UNL     1      27.458  -1.089  52.883  1.00  0.00     0.017 A 
HETATM   16  C12 UNL     1      26.019  -1.005  52.617  1.00  0.00     0.159 A 
ENDBRANCH   7  10
BRANCH   1  17
HETATM   17  N1  UNL     1      23.885   3.292  51.618  1.00  0.00    -0.270 N 
BRANCH  17  18
HETATM   18  C2  UNL     1      25.020   3.578  50.765  1.00  0.00     0.147 C 
HETATM   19  C1  UNL     1      24.531   4.016  49.418  1.00  0.00     0.028 C 
ENDBRANCH  17  18
BRANCH  17  20
HETATM   20  C3  UNL     1      23.590   4.296  52.593  1.00  0.00     0.218 C 
HETATM   21  N2  UNL     1      23.934   5.526  52.787  1.00  0.00    -0.294 NA
HETATM   22  H7  UNL     1      24.572   6.066  52.180  1.00  0.00     0.187 HD
ENDBRANCH  17  20
ENDBRANCH   1  17
TORSDOF 4
ENDMDL
MODEL 9
REMARK VINA RESULT:      -6.5      9.535     11.806
REMARK  4 active torsions:
REMARK  status: ('A' for Active; 'I' for Inactive)
REMARK    1  A    between atoms: C2_2  and  N1_3 
REMARK    2  A    between atoms: N1_3  and  C3_4 
REMARK    3  A    between atoms: N1_3  and  N3_6 
REMARK    4  A    between atoms: C7_12  and  N6_13 
ROOT
HETATM    1  N3  UNL     1      28.474  10.236  48.882  1.00  0.00    -0.210 N 
HETATM    2  N4  UNL     1      27.894  11.491  49.199  1.00  0.00    -0.217 NA
HETATM    3  C4  UNL     1      28.641  12.447  48.383  1.00  0.00     0.118 C 
HETATM    4  C5  UNL     1      30.025  12.602  48.998  1.00  0.00     0.078 C 
HETATM    5  C6  UNL     1      30.781  11.329  48.730  1.00  0.00     0.072 A 
HETATM    6  N5  UNL     1      31.715  10.468  48.494  1.00  0.00    -0.231 NA
HETATM    7  C7  UNL     1      30.864   9.333  48.451  1.00  0.00     0.162 A 
HETATM    8  C13 UNL     1      29.882  10.184  48.692  1.00  0.00     0.140 A 
HETATM    9  H8  UNL     1      26.899  11.467  48.922  1.00  0.00     0.148 HD
ENDROOT
BRANCH   7  10
HETATM   10  N6  UNL     1      31.252   7.988  48.218  1.00  0.00    -0.336 N 
HETATM   11  C8  UNL     1      31.537   7.170  49.322  1.00  0.00     0.095 A 
HETATM   12  C9  UNL     1      31.890   5.918  49.087  1.00  0.00     0.041 A 
HETATM   13  C10 UNL     1      32.005   5.331  47.761  1.00  0.00     0.033 A 
HETATM   14 CL1  UNL     1      32.481   3.657  47.614  1.00  0.00    -0.085 Cl
HETATM   15  C11 UNL     1      31.734   6.121  46.743  1.00  0.00     0.017 A 
HETATM   16  C12 UNL     1      31.330   7.527  46.827  1.00  0.00     0.159 A 
ENDBRANCH   7  10
BRANCH   1  17
HETATM   17  N1  UNL     1      27.642   9.122  48.766  1.00  0.00    -0.270 N 
BRANCH  17  18
HETATM   18  C2  UNL     1      27.127   8.062  47.925  1.00  0.00     0.147 C 
HETATM   19  C1  UNL     1      27.852   6.787  48.232  1.00  0.00     0.028 C 
ENDBRANCH  17  18
BRANCH  17  20
HETATM   20  C3  UNL     1      27.149   9.124  50.109  1.00  0.00     0.218 C 
HETATM   21  N2  UNL     1      27.612   9.474  51.264  1.00  0.00    -0.294 NA
HETATM   22  H7  UNL     1      28.553   9.866  51.431  1.00  0.00     0.187 HD
ENDBRANCH  17  20
ENDBRANCH   1  17
TORSDOF 4
ENDMDL
