MODEL 1
REMARK VINA RESULT:      -6.6      0.000      0.000
REMARK  8 active torsions:
REMARK  status: ('A' for Active; 'I' for Inactive)
REMARK    1  A    between atoms: C2_2  and  C3_3 
REMARK    2  A    between atoms: C3_3  and  O1_4 
REMARK    3  A    between atoms: O1_4  and  C4_5 
REMARK    4  A    between atoms: C6_8  and  N2_9 
REMARK    5  A    between atoms: N2_9  and  C7_10 
REMARK    6  A    between atoms: C7_10  and  C8_11 
REMARK    7  A    between atoms: C9_12  and  C10_14 
REMARK    8  A    between atoms: C14_19  and  C15_20 
ROOT
HETATM    1  C4  UNL     1      26.630   1.845  52.125  1.00  0.00     0.166 A 
HETATM    2  N1  UNL     1      26.237   2.864  51.475  1.00  0.00    -0.264 NA
HETATM    3  C5  UNL     1      24.944   3.258  51.060  1.00  0.00     0.191 A 
HETATM    4  C6  UNL     1      23.880   2.294  51.473  1.00  0.00     0.264 A 
HETATM    5  C13 UNL     1      24.441   1.153  52.218  1.00  0.00     0.021 A 
HETATM    6  C14 UNL     1      25.674   0.844  52.573  1.00  0.00    -0.008 A 
ENDROOT
BRANCH   4   7
HETATM    7  N2  UNL     1      22.880   2.989  52.271  1.00  0.00     0.096 N 
HETATM    8  H9  UNL     1      23.086   2.761  53.258  1.00  0.00     0.317 HD
BRANCH   7   9
HETATM    9  C7  UNL     1      21.535   2.654  51.882  1.00  0.00     0.299 C 
BRANCH   9  10
HETATM   10  C8  UNL     1      20.995   1.514  52.656  1.00  0.00     0.030 C 
HETATM   11  C9  UNL     1      20.727   0.245  52.437  1.00  0.00     0.070 C 
HETATM   12 CL1  UNL     1      21.225   0.180  50.768  1.00  0.00    -0.081 Cl
BRANCH  11  13
HETATM   13  C10 UNL     1      20.186  -0.542  53.514  1.00  0.00     0.133 C 
HETATM   14  F1  UNL     1      18.865  -0.640  53.659  1.00  0.00    -0.205 F 
HETATM   15  C11 UNL     1      21.003  -1.159  54.345  1.00  0.00     0.013 C 
HETATM   16  C12 UNL     1      22.485  -1.165  54.340  1.00  0.00     0.039 C 
ENDBRANCH  11  13
ENDBRANCH   9  10
ENDBRANCH   7   9
ENDBRANCH   4   7
BRANCH   6  17
HETATM   17  C15 UNL     1      26.090  -0.340  53.324  1.00  0.00     0.038 C 
HETATM   18  C16 UNL     1      26.599  -1.456  52.443  1.00  0.00     0.010 C 
ENDBRANCH   6  17
BRANCH   1  19
HETATM   19  O1  UNL     1      27.988   1.732  52.384  1.00  0.00    -0.331 OA
BRANCH  19  20
HETATM   20  C3  UNL     1      28.607   2.237  53.565  1.00  0.00     0.204 C 
BRANCH  20  21
HETATM   21  C2  UNL     1      29.414   1.181  54.244  1.00  0.00    -0.011 C 
HETATM   22  C1  UNL     1      29.752   0.039  53.670  1.00  0.00     0.009 C 
ENDBRANCH  20  21
ENDBRANCH  19  20
ENDBRANCH   1  19
TORSDOF 8
ENDMDL
MODEL 2
REMARK VINA RESULT:      -6.6      2.508      3.825
REMARK  8 active torsions:
REMARK  status: ('A' for Active; 'I' for Inactive)
REMARK    1  A    between atoms: C2_2  and  C3_3 
REMARK    2  A    between atoms: C3_3  and  O1_4 
REMARK    3  A    between atoms: O1_4  and  C4_5 
REMARK    4  A    between atoms: C6_8  and  N2_9 
REMARK    5  A    between atoms: N2_9  and  C7_10 
REMARK    6  A    between atoms: C7_10  and  C8_11 
REMARK    7  A    between atoms: C9_12  and  C10_14 
REMARK    8  A    between atoms: C14_19  and  C15_20 
ROOT
HETATM    1  C4  UNL     1      26.039  -0.547  53.979  1.00  0.00     0.166 A 
HETATM    2  N1  UNL     1      25.178  -0.976  54.809  1.00  0.00    -0.264 NA
HETATM    3  C5  UNL     1      23.768  -0.865  54.824  1.00  0.00     0.191 A 
HETATM    4  C6  UNL     1      23.230  -0.114  53.651  1.00  0.00     0.264 A 
HETATM    5  C13 UNL     1      24.308   0.337  52.753  1.00  0.00     0.021 A 
HETATM    6  C14 UNL     1      25.620   0.198  52.802  1.00  0.00    -0.008 A 
ENDROOT
BRANCH   4   7
HETATM    7  N2  UNL     1      22.280  -0.952  52.933  1.00  0.00     0.096 N 
HETATM    8  H9  UNL     1      22.812  -1.415  52.179  1.00  0.00     0.317 HD
BRANCH   7   9
HETATM    9  C7  UNL     1      21.145  -0.208  52.450  1.00  0.00     0.299 C 
BRANCH   9  10
HETATM   10  C8  UNL     1      21.406   0.421  51.137  1.00  0.00     0.030 C 
HETATM   11  C9  UNL     1      21.444   1.642  50.646  1.00  0.00     0.070 C 
HETATM   12 CL1  UNL     1      21.058   2.500  52.113  1.00  0.00    -0.081 Cl
BRANCH  11  13
HETATM   13  C10 UNL     1      21.749   1.817  49.251  1.00  0.00     0.133 C 
HETATM   14  F1  UNL     1      20.911   1.343  48.329  1.00  0.00    -0.205 F 
HETATM   15  C11 UNL     1      22.854   2.444  48.900  1.00  0.00     0.013 C 
HETATM   16  C12 UNL     1      23.894   3.032  49.776  1.00  0.00     0.039 C 
ENDBRANCH  11  13
ENDBRANCH   9  10
ENDBRANCH   7   9
ENDBRANCH   4   7
BRANCH   6  17
HETATM   17  C15 UNL     1      26.583   0.706  51.825  1.00  0.00     0.038 C 
HETATM   18  C16 UNL     1      26.881   2.177  51.992  1.00  0.00     0.010 C 
ENDBRANCH   6  17
BRANCH   1  19
HETATM   19  O1  UNL     1      27.374  -0.817  54.240  1.00  0.00    -0.331 OA
BRANCH  19  20
HETATM   20  C3  UNL     1      28.253   0.107  54.878  1.00  0.00     0.204 C 
BRANCH  20  21
HETATM   21  C2  UNL     1      29.473   0.347  54.054  1.00  0.00    -0.011 C 
HETATM   22  C1  UNL     1      30.120  -0.610  53.411  1.00  0.00     0.009 C 
ENDBRANCH  20  21
ENDBRANCH  19  20
ENDBRANCH   1  19
TORSDOF 8
ENDMDL
MODEL 3
REMARK VINA RESULT:      -6.5      3.504      6.838
REMARK  8 active torsions:
REMARK  status: ('A' for Active; 'I' for Inactive)
REMARK    1  A    between atoms: C2_2  and  C3_3 
REMARK    2  A    between atoms: C3_3  and  O1_4 
REMARK    3  A    between atoms: O1_4  and  C4_5 
REMARK    4  A    between atoms: C6_8  and  N2_9 
REMARK    5  A    between atoms: N2_9  and  C7_10 
REMARK    6  A    between atoms: C7_10  and  C8_11 
REMARK    7  A    between atoms: C9_12  and  C10_14 
REMARK    8  A    between atoms: C14_19  and  C15_20 
ROOT
HETATM    1  C4  UNL     1      21.964   1.122  51.344  1.00  0.00     0.166 A 
HETATM    2  N1  UNL     1      22.339   2.231  50.850  1.00  0.00    -0.264 NA
HETATM    3  C5  UNL     1      23.293   3.173  51.302  1.00  0.00     0.191 A 
HETATM    4  C6  UNL     1      23.957   2.764  52.576  1.00  0.00     0.264 A 
HETATM    5  C13 UNL     1      23.452   1.468  53.061  1.00  0.00     0.021 A 
HETATM    6  C14 UNL     1      22.548   0.633  52.583  1.00  0.00    -0.008 A 
ENDROOT
BRANCH   4   7
HETATM    7  N2  UNL     1      25.398   2.713  52.376  1.00  0.00     0.096 N 
HETATM    8  H9  UNL     1      25.607   3.360  51.598  1.00  0.00     0.317 HD
BRANCH   7   9
HETATM    9  C7  UNL     1      25.874   1.374  52.143  1.00  0.00     0.299 C 
BRANCH   9  10
HETATM   10  C8  UNL     1      27.210   1.144  52.737  1.00  0.00     0.030 C 
HETATM   11  C9  UNL     1      27.700   0.510  53.781  1.00  0.00     0.070 C 
HETATM   12 CL1  UNL     1      26.198  -0.099  54.419  1.00  0.00    -0.081 Cl
BRANCH  11  13
HETATM   13  C10 UNL     1      29.122   0.540  54.001  1.00  0.00     0.133 C 
HETATM   14  F1  UNL     1      29.694   1.652  54.464  1.00  0.00    -0.205 F 
HETATM   15  C11 UNL     1      29.844  -0.532  53.743  1.00  0.00     0.013 C 
HETATM   16  C12 UNL     1      29.387  -1.845  53.228  1.00  0.00     0.039 C 
ENDBRANCH  11  13
ENDBRANCH   9  10
ENDBRANCH   7   9
ENDBRANCH   4   7
BRANCH   6  17
HETATM   17  C15 UNL     1      22.142  -0.640  53.180  1.00  0.00     0.038 C 
HETATM   18  C16 UNL     1      21.600  -0.494  54.582  1.00  0.00     0.010 C 
ENDBRANCH   6  17
BRANCH   1  19
HETATM   19  O1  UNL     1      20.991   0.410  50.659  1.00  0.00    -0.331 OA
BRANCH  19  20
HETATM   20  C3  UNL     1      19.702   0.937  50.352  1.00  0.00     0.204 C 
BRANCH  20  21
HETATM   21  C2  UNL     1      18.755   0.742  51.489  1.00  0.00    -0.011 C 
HETATM   22  C1  UNL     1      18.578  -0.417  52.102  1.00  0.00     0.009 C 
ENDBRANCH  20  21
ENDBRANCH  19  20
ENDBRANCH   1  19
TORSDOF 8
ENDMDL
MODEL 4
REMARK VINA RESULT:      -6.4      2.802      3.849
REMARK  8 active torsions:
REMARK  status: ('A' for Active; 'I' for Inactive)
REMARK    1  A    between atoms: C2_2  and  C3_3 
REMARK    2  A    between atoms: C3_3  and  O1_4 
REMARK    3  A    between atoms: O1_4  and  C4_5 
REMARK    4  A    between atoms: C6_8  and  N2_9 
REMARK    5  A    between atoms: N2_9  and  C7_10 
REMARK    6  A    between atoms: C7_10  and  C8_11 
REMARK    7  A    between atoms: C9_12  and  C10_14 
REMARK    8  A    between atoms: C14_19  and  C15_20 
ROOT
HETATM    1  C4  UNL     1      26.650   0.457  53.354  1.00  0.00     0.166 A 
HETATM    2  N1  UNL     1      27.309   1.263  52.625  1.00  0.00    -0.264 NA
HETATM    3  C5  UNL     1      26.881   2.195  51.652  1.00  0.00     0.191 A 
HETATM    4  C6  UNL     1      25.398   2.216  51.476  1.00  0.00     0.264 A 
HETATM    5  C13 UNL     1      24.732   1.248  52.366  1.00  0.00     0.021 A 
HETATM    6  C14 UNL     1      25.200   0.397  53.260  1.00  0.00    -0.008 A 
ENDROOT
BRANCH   4   7
HETATM    7  N2  UNL     1      24.900   3.563  51.717  1.00  0.00     0.096 N 
HETATM    8  H9  UNL     1      24.118   3.469  52.386  1.00  0.00     0.317 HD
BRANCH   7   9
HETATM    9  C7  UNL     1      24.527   4.237  50.501  1.00  0.00     0.299 C 
BRANCH   9  10
HETATM   10  C8  UNL     1      23.775   3.354  49.580  1.00  0.00     0.030 C 
HETATM   11  C9  UNL     1      22.536   3.245  49.152  1.00  0.00     0.070 C 
HETATM   12 CL1  UNL     1      21.856   4.579  50.045  1.00  0.00    -0.081 Cl
BRANCH  11  13
HETATM   13  C10 UNL     1      22.218   2.198  48.218  1.00  0.00     0.133 C 
HETATM   14  F1  UNL     1      22.550   2.336  46.934  1.00  0.00    -0.205 F 
HETATM   15  C11 UNL     1      21.601   1.113  48.642  1.00  0.00     0.013 C 
HETATM   16  C12 UNL     1      21.157   0.787  50.017  1.00  0.00     0.039 C 
ENDBRANCH  11  13
ENDBRANCH   9  10
ENDBRANCH   7   9
ENDBRANCH   4   7
BRANCH   6  17
HETATM   17  C15 UNL     1      24.409  -0.517  54.084  1.00  0.00     0.038 C 
HETATM   18  C16 UNL     1      22.961  -0.598  53.663  1.00  0.00     0.010 C 
ENDBRANCH   6  17
BRANCH   1  19
HETATM   19  O1  UNL     1      27.364  -0.348  54.229  1.00  0.00    -0.331 OA
BRANCH  19  20
HETATM   20  C3  UNL     1      28.698  -0.065  54.647  1.00  0.00     0.204 C 
BRANCH  20  21
HETATM   21  C2  UNL     1      29.685  -0.888  53.890  1.00  0.00    -0.011 C 
HETATM   22  C1  UNL     1      29.377  -2.020  53.280  1.00  0.00     0.009 C 
ENDBRANCH  20  21
ENDBRANCH  19  20
ENDBRANCH   1  19
TORSDOF 8
ENDMDL
MODEL 5
REMARK VINA RESULT:      -6.3      2.625      4.433
REMARK  8 active torsions:
REMARK  status: ('A' for Active; 'I' for Inactive)
REMARK    1  A    between atoms: C2_2  and  C3_3 
REMARK    2  A    between atoms: C3_3  and  O1_4 
REMARK    3  A    between atoms: O1_4  and  C4_5 
REMARK    4  A    between atoms: C6_8  and  N2_9 
REMARK    5  A    between atoms: N2_9  and  C7_10 
REMARK    6  A    between atoms: C7_10  and  C8_11 
REMARK    7  A    between atoms: C9_12  and  C10_14 
REMARK    8  A    between atoms: C14_19  and  C15_20 
ROOT
HETATM    1  C4  UNL     1      26.004  -0.250  54.100  1.00  0.00     0.166 A 
HETATM    2  N1  UNL     1      25.908   0.960  54.479  1.00  0.00    -0.264 NA
HETATM    3  C5  UNL     1      26.362   2.158  53.882  1.00  0.00     0.191 A 
HETATM    4  C6  UNL     1      27.070   1.932  52.586  1.00  0.00     0.264 A 
HETATM    5  C13 UNL     1      27.126   0.501  52.240  1.00  0.00     0.021 A 
HETATM    6  C14 UNL     1      26.676  -0.578  52.852  1.00  0.00    -0.008 A 
ENDROOT
BRANCH   4   7
HETATM    7  N2  UNL     1      26.408   2.690  51.534  1.00  0.00     0.096 N 
HETATM    8  H9  UNL     1      26.983   3.532  51.375  1.00  0.00     0.317 HD
BRANCH   7   9
HETATM    9  C7  UNL     1      25.037   2.993  51.853  1.00  0.00     0.299 C 
BRANCH   9  10
HETATM   10  C8  UNL     1      24.091   2.399  50.882  1.00  0.00     0.030 C 
HETATM   11  C9  UNL     1      22.833   2.570  50.539  1.00  0.00     0.070 C 
HETATM   12 CL1  UNL     1      22.453   3.855  51.653  1.00  0.00    -0.081 Cl
BRANCH  11  13
HETATM   13  C10 UNL     1      22.281   1.742  49.499  1.00  0.00     0.133 C 
HETATM   14  F1  UNL     1      22.620   1.966  48.229  1.00  0.00    -0.205 F 
HETATM   15  C11 UNL     1      21.448   0.770  49.813  1.00  0.00     0.013 C 
HETATM   16  C12 UNL     1      20.962   0.376  51.156  1.00  0.00     0.039 C 
ENDBRANCH  11  13
ENDBRANCH   9  10
ENDBRANCH   7   9
ENDBRANCH   4   7
BRANCH   6  17
HETATM   17  C15 UNL     1      26.805  -1.958  52.384  1.00  0.00     0.038 C 
HETATM   18  C16 UNL     1      28.090  -2.618  52.824  1.00  0.00     0.010 C 
ENDBRANCH   6  17
BRANCH   1  19
HETATM   19  O1  UNL     1      25.450  -1.225  54.915  1.00  0.00    -0.331 OA
BRANCH  19  20
HETATM   20  C3  UNL     1      24.143  -1.128  55.479  1.00  0.00     0.204 C 
BRANCH  20  21
HETATM   21  C2  UNL     1      23.105  -1.003  54.415  1.00  0.00    -0.011 C 
HETATM   22  C1  UNL     1      21.808  -1.134  54.641  1.00  0.00     0.009 C 
ENDBRANCH  20  21
ENDBRANCH  19  20
ENDBRANCH   1  19
TORSDOF 8
ENDMDL
MODEL 6
REMARK VINA RESULT:      -6.2      4.035      6.212
REMARK  8 active torsions:
REMARK  status: ('A' for Active; 'I' for Inactive)
REMARK    1  A    between atoms: C2_2  and  C3_3 
REMARK    2  A    between atoms: C3_3  and  O1_4 
REMARK    3  A    between atoms: O1_4  and  C4_5 
REMARK    4  A    between atoms: C6_8  and  N2_9 
REMARK    5  A    between atoms: N2_9  and  C7_10 
REMARK    6  A    between atoms: C7_10  and  C8_11 
REMARK    7  A    between atoms: C9_12  and  C10_14 
REMARK    8  A    between atoms: C14_19  and  C15_20 
ROOT
HETATM    1  C4  UNL     1      26.661   0.477  53.280  1.00  0.00     0.166 A 
HETATM    2  N1  UNL     1      27.338   1.343  52.642  1.00  0.00    -0.264 NA
HETATM    3  C5  UNL     1      26.945   2.308  51.686  1.00  0.00     0.191 A 
HETATM    4  C6  UNL     1      25.478   2.284  51.403  1.00  0.00     0.264 A 
HETATM    5  C13 UNL     1      24.789   1.249  52.193  1.00  0.00     0.021 A 
HETATM    6  C14 UNL     1      25.225   0.370  53.077  1.00  0.00    -0.008 A 
ENDROOT
BRANCH   4   7
HETATM    7  N2  UNL     1      24.911   3.598  51.671  1.00  0.00     0.096 N 
HETATM    8  H9  UNL     1      24.174   3.457  52.380  1.00  0.00     0.317 HD
BRANCH   7   9
HETATM    9  C7  UNL     1      24.433   4.245  50.477  1.00  0.00     0.299 C 
BRANCH   9  10
HETATM   10  C8  UNL     1      25.539   4.755  49.635  1.00  0.00     0.030 C 
HETATM   11  C9  UNL     1      26.155   5.903  49.450  1.00  0.00     0.070 C 
HETATM   12 CL1  UNL     1      25.242   6.851  50.593  1.00  0.00    -0.081 Cl
BRANCH  11  13
HETATM   13  C10 UNL     1      27.227   5.965  48.492  1.00  0.00     0.133 C 
HETATM   14  F1  UNL     1      28.080   4.947  48.391  1.00  0.00    -0.205 F 
HETATM   15  C11 UNL     1      27.353   7.030  47.724  1.00  0.00     0.013 C 
HETATM   16  C12 UNL     1      26.507   8.246  47.695  1.00  0.00     0.039 C 
ENDBRANCH  11  13
ENDBRANCH   9  10
ENDBRANCH   7   9
ENDBRANCH   4   7
BRANCH   6  17
HETATM   17  C15 UNL     1      24.413  -0.613  53.795  1.00  0.00     0.038 C 
HETATM   18  C16 UNL     1      22.929  -0.381  53.649  1.00  0.00     0.010 C 
ENDBRANCH   6  17
BRANCH   1  19
HETATM   19  O1  UNL     1      27.341  -0.345  54.166  1.00  0.00    -0.331 OA
BRANCH  19  20
HETATM   20  C3  UNL     1      28.686  -0.113  54.579  1.00  0.00     0.204 C 
BRANCH  20  21
HETATM   21  C2  UNL     1      29.641  -0.963  53.810  1.00  0.00    -0.011 C 
HETATM   22  C1  UNL     1      29.304  -2.110  53.243  1.00  0.00     0.009 C 
ENDBRANCH  20  21
ENDBRANCH  19  20
ENDBRANCH   1  19
TORSDOF 8
ENDMDL
MODEL 7
REMARK VINA RESULT:      -6.1      1.969      2.840
REMARK  8 active torsions:
REMARK  status: ('A' for Active; 'I' for Inactive)
REMARK    1  A    between atoms: C2_2  and  C3_3 
REMARK    2  A    between atoms: C3_3  and  O1_4 
REMARK    3  A    between atoms: O1_4  and  C4_5 
REMARK    4  A    between atoms: C6_8  and  N2_9 
REMARK    5  A    between atoms: N2_9  and  C7_10 
REMARK    6  A    between atoms: C7_10  and  C8_11 
REMARK    7  A    between atoms: C9_12  and  C10_14 
REMARK    8  A    between atoms: C14_19  and  C15_20 
ROOT
HETATM    1  C4  UNL     1      26.651   0.477  53.367  1.00  0.00     0.166 A 
HETATM    2  N1  UNL     1      27.276   1.329  52.660  1.00  0.00    -0.264 NA
HETATM    3  C5  UNL     1      26.807   2.287  51.732  1.00  0.00     0.191 A 
HETATM    4  C6  UNL     1      25.321   2.275  51.581  1.00  0.00     0.264 A 
HETATM    5  C13 UNL     1      24.696   1.255  52.442  1.00  0.00     0.021 A 
HETATM    6  C14 UNL     1      25.201   0.383  53.294  1.00  0.00    -0.008 A 
ENDROOT
BRANCH   4   7
HETATM    7  N2  UNL     1      24.792   3.597  51.883  1.00  0.00     0.096 N 
HETATM    8  H9  UNL     1      24.422   3.550  52.846  1.00  0.00     0.317 HD
BRANCH   7   9
HETATM    9  C7  UNL     1      23.814   4.032  50.920  1.00  0.00     0.299 C 
BRANCH   9  10
HETATM   10  C8  UNL     1      22.434   3.691  51.332  1.00  0.00     0.030 C 
HETATM   11  C9  UNL     1      21.478   2.887  50.918  1.00  0.00     0.070 C 
HETATM   12 CL1  UNL     1      22.321   2.194  49.559  1.00  0.00    -0.081 Cl
BRANCH  11  13
HETATM   13  C10 UNL     1      20.233   2.866  51.639  1.00  0.00     0.133 C 
HETATM   14  F1  UNL     1      19.676   4.014  52.025  1.00  0.00    -0.205 F 
HETATM   15  C11 UNL     1      19.657   1.711  51.909  1.00  0.00     0.013 C 
HETATM   16  C12 UNL     1      20.124   0.349  51.563  1.00  0.00     0.039 C 
ENDBRANCH  11  13
ENDBRANCH   9  10
ENDBRANCH   7   9
ENDBRANCH   4   7
BRANCH   6  17
HETATM   17  C15 UNL     1      24.448  -0.584  54.094  1.00  0.00     0.038 C 
HETATM   18  C16 UNL     1      22.973  -0.602  53.773  1.00  0.00     0.010 C 
ENDBRANCH   6  17
BRANCH   1  19
HETATM   19  O1  UNL     1      27.400  -0.342  54.198  1.00  0.00    -0.331 OA
BRANCH  19  20
HETATM   20  C3  UNL     1      28.775  -0.111  54.498  1.00  0.00     0.204 C 
BRANCH  20  21
HETATM   21  C2  UNL     1      29.654  -1.075  53.776  1.00  0.00    -0.011 C 
HETATM   22  C1  UNL     1      29.208  -2.179  53.199  1.00  0.00     0.009 C 
ENDBRANCH  20  21
ENDBRANCH  19  20
ENDBRANCH   1  19
TORSDOF 8
ENDMDL
MODEL 8
REMARK VINA RESULT:      -6.1      2.419      3.751
REMARK  8 active torsions:
REMARK  status: ('A' for Active; 'I' for Inactive)
REMARK    1  A    between atoms: C2_2  and  C3_3 
REMARK    2  A    between atoms: C3_3  and  O1_4 
REMARK    3  A    between atoms: O1_4  and  C4_5 
REMARK    4  A    between atoms: C6_8  and  N2_9 
REMARK    5  A    between atoms: N2_9  and  C7_10 
REMARK    6  A    between atoms: C7_10  and  C8_11 
REMARK    7  A    between atoms: C9_12  and  C10_14 
REMARK    8  A    between atoms: C14_19  and  C15_20 
ROOT
HETATM    1  C4  UNL     1      25.697  -0.522  54.036  1.00  0.00     0.166 A 
HETATM    2  N1  UNL     1      25.063  -1.172  54.926  1.00  0.00    -0.264 NA
HETATM    3  C5  UNL     1      23.682  -1.235  55.220  1.00  0.00     0.191 A 
HETATM    4  C6  UNL     1      22.853  -0.385  54.314  1.00  0.00     0.264 A 
HETATM    5  C13 UNL     1      23.683   0.323  53.323  1.00  0.00     0.021 A 
HETATM    6  C14 UNL     1      24.984   0.336  53.103  1.00  0.00    -0.008 A 
ENDROOT
BRANCH   4   7
HETATM    7  N2  UNL     1      21.855  -1.213  53.651  1.00  0.00     0.096 N 
HETATM    8  H9  UNL     1      22.237  -1.439  52.719  1.00  0.00     0.317 HD
BRANCH   7   9
HETATM    9  C7  UNL     1      20.563  -0.580  53.597  1.00  0.00     0.299 C 
BRANCH   9  10
HETATM   10  C8  UNL     1      20.214  -0.138  52.228  1.00  0.00     0.030 C 
HETATM   11  C9  UNL     1      20.072   1.006  51.595  1.00  0.00     0.070 C 
HETATM   12 CL1  UNL     1      20.444   2.065  52.929  1.00  0.00    -0.081 Cl
BRANCH  11  13
HETATM   13  C10 UNL     1      19.706   0.985  50.203  1.00  0.00     0.133 C 
HETATM   14  F1  UNL     1      18.458   0.672  49.855  1.00  0.00    -0.205 F 
HETATM   15  C11 UNL     1      20.609   1.277  49.288  1.00  0.00     0.013 C 
HETATM   16  C12 UNL     1      22.030   1.645  49.485  1.00  0.00     0.039 C 
ENDBRANCH  11  13
ENDBRANCH   9  10
ENDBRANCH   7   9
ENDBRANCH   4   7
BRANCH   6  17
HETATM   17  C15 UNL     1      25.681   1.098  52.067  1.00  0.00     0.038 C 
HETATM   18  C16 UNL     1      24.837   2.196  51.466  1.00  0.00     0.010 C 
ENDBRANCH   6  17
BRANCH   1  19
HETATM   19  O1  UNL     1      27.076  -0.666  53.996  1.00  0.00    -0.331 OA
BRANCH  19  20
HETATM   20  C3  UNL     1      27.742  -1.628  53.181  1.00  0.00     0.204 C 
BRANCH  20  21
HETATM   21  C2  UNL     1      29.223  -1.531  53.333  1.00  0.00    -0.011 C 
HETATM   22  C1  UNL     1      29.847  -0.429  53.713  1.00  0.00     0.009 C 
ENDBRANCH  20  21
ENDBRANCH  19  20
ENDBRANCH   1  19
TORSDOF 8
ENDMDL
MODEL 9
REMARK VINA RESULT:      -6.1      2.574      4.637
REMARK  8 active torsions:
REMARK  status: ('A' for Active; 'I' for Inactive)
REMARK    1  A    between atoms: C2_2  and  C3_3 
REMARK    2  A    between atoms: C3_3  and  O1_4 
REMARK    3  A    between atoms: O1_4  and  C4_5 
REMARK    4  A    between atoms: C6_8  and  N2_9 
REMARK    5  A    between atoms: N2_9  and  C7_10 
REMARK    6  A    between atoms: C7_10  and  C8_11 
REMARK    7  A    between atoms: C9_12  and  C10_14 
REMARK    8  A    between atoms: C14_19  and  C15_20 
ROOT
HETATM    1  C4  UNL     1      26.292  -0.062  54.173  1.00  0.00     0.166 A 
HETATM    2  N1  UNL     1      26.377   1.135  54.594  1.00  0.00    -0.264 NA
HETATM    3  C5  UNL     1      26.921   2.293  53.992  1.00  0.00     0.191 A 
HETATM    4  C6  UNL     1      27.479   2.036  52.631  1.00  0.00     0.264 A 
HETATM    5  C13 UNL     1      27.330   0.623  52.240  1.00  0.00     0.021 A 
HETATM    6  C14 UNL     1      26.807  -0.419  52.860  1.00  0.00    -0.008 A 
ENDROOT
BRANCH   4   7
HETATM    7  N2  UNL     1      26.825   2.908  51.666  1.00  0.00     0.096 N 
HETATM    8  H9  UNL     1      26.728   3.828  52.124  1.00  0.00     0.317 HD
BRANCH   7   9
HETATM    9  C7  UNL     1      25.572   2.372  51.200  1.00  0.00     0.299 C 
BRANCH   9  10
HETATM   10  C8  UNL     1      24.429   3.249  51.536  1.00  0.00     0.030 C 
HETATM   11  C9  UNL     1      23.121   3.134  51.618  1.00  0.00     0.070 C 
HETATM   12 CL1  UNL     1      23.001   1.452  51.176  1.00  0.00    -0.081 Cl
BRANCH  11  13
HETATM   13  C10 UNL     1      22.348   4.288  51.994  1.00  0.00     0.133 C 
HETATM   14  F1  UNL     1      22.667   4.963  53.098  1.00  0.00    -0.205 F 
HETATM   15  C11 UNL     1      21.331   4.664  51.243  1.00  0.00     0.013 C 
HETATM   16  C12 UNL     1      20.833   4.041  49.994  1.00  0.00     0.039 C 
ENDBRANCH  11  13
ENDBRANCH   9  10
ENDBRANCH   7   9
ENDBRANCH   4   7
BRANCH   6  17
HETATM   17  C15 UNL     1      26.726  -1.785  52.344  1.00  0.00     0.038 C 
HETATM   18  C16 UNL     1      27.897  -2.646  52.751  1.00  0.00     0.010 C 
ENDBRANCH   6  17
BRANCH   1  19
HETATM   19  O1  UNL     1      25.696  -0.995  55.008  1.00  0.00    -0.331 OA
BRANCH  19  20
HETATM   20  C3  UNL     1      24.296  -1.029  55.276  1.00  0.00     0.204 C 
BRANCH  20  21
HETATM   21  C2  UNL     1      23.505  -0.702  54.053  1.00  0.00    -0.011 C 
HETATM   22  C1  UNL     1      22.276  -1.141  53.840  1.00  0.00     0.009 C 
ENDBRANCH  20  21
ENDBRANCH  19  20
ENDBRANCH   1  19
TORSDOF 8
ENDMDL
