MODEL 1
REMARK VINA RESULT:      -9.1      0.000      0.000
REMARK  4 active torsions:
REMARK  status: ('A' for Active; 'I' for Inactive)
REMARK    1  A    between atoms: C6_6  and  N1_7 
REMARK    2  A    between atoms: C7_8  and  N2_9 
REMARK    3  A    between atoms: N2_9  and  C8_10 
REMARK    4  A    between atoms: C10_14  and  C11_15 
ROOT
HETATM    1  C1  UNL     1      21.163   0.708  49.146  1.00  0.00     0.018 C 
HETATM    2  C2  UNL     1      21.662   1.535  49.895  1.00  0.00    -0.078 C 
HETATM    3  C3  UNL     1      22.257   2.505  50.749  1.00  0.00     0.019 A 
HETATM    4  C4  UNL     1      21.393   3.370  51.360  1.00  0.00     0.023 A 
HETATM    5  C5  UNL     1      21.911   4.288  52.187  1.00  0.00     0.033 A 
HETATM    6  C6  UNL     1      23.221   4.481  52.514  1.00  0.00     0.052 A 
HETATM    7  C7  UNL     1      24.051   3.545  51.840  1.00  0.00     0.058 A 
HETATM    8  C21 UNL     1      23.606   2.585  50.984  1.00  0.00     0.052 A 
ENDROOT
BRANCH   7   9
HETATM    9  N2  UNL     1      25.476   3.289  51.940  1.00  0.00    -0.347 N 
HETATM   10  H6  UNL     1      26.210   3.303  51.164  1.00  0.00     0.162 HD
BRANCH   9  11
HETATM   11  C8  UNL     1      25.561   3.000  53.413  1.00  0.00     0.334 A 
HETATM   12  N3  UNL     1      26.131   2.159  53.952  1.00  0.00     0.156 N 
HETATM   13  N4  UNL     1      25.826   0.602  54.065  1.00  0.00     0.000 N 
HETATM   14  C10 UNL     1      26.717   1.305  54.559  1.00  0.00     0.308 A 
HETATM   15  C11 UNL     1      26.347   1.678  53.127  1.00  0.00     0.272 A 
HETATM   16  C9  UNL     1      27.274   0.387  54.967  1.00  0.00     0.120 A 
HETATM   17  C15 UNL     1      24.780  -0.643  53.711  1.00  0.00    -0.006 A 
HETATM   18  N5  UNL     1      27.183  -0.932  54.135  1.00  0.00    -0.399 N 
HETATM   19  C13 UNL     1      27.010  -0.708  52.663  1.00  0.00     0.100 C 
HETATM   20  H18 UNL     1      27.229  -2.031  54.176  1.00  0.00     0.154 HD
HETATM   21  C12 UNL     1      26.880   0.710  52.228  1.00  0.00     0.019 C 
HETATM   22  C14 UNL     1      25.566  -1.353  52.620  1.00  0.00     0.043 C 
HETATM   23  C16 UNL     1      23.625  -0.041  53.131  1.00  0.00    -0.016 A 
HETATM   24  C20 UNL     1      24.504  -1.339  54.941  1.00  0.00     0.041 A 
HETATM   25  C17 UNL     1      22.371  -0.029  53.555  1.00  0.00    -0.003 A 
HETATM   26  C18 UNL     1      22.016  -0.708  54.790  1.00  0.00    -0.004 A 
HETATM   27  C19 UNL     1      23.088  -1.265  55.322  1.00  0.00    -0.026 A 
ENDBRANCH   9  11
ENDBRANCH   7   9
BRANCH   6  28
HETATM   28  N1  UNL     1      23.959   5.369  53.329  1.00  0.00    -0.397 N 
HETATM   29  H4  UNL     1      24.667   4.905  53.963  1.00  0.00     0.156 HD
HETATM   30  H5  UNL     1      23.805   6.420  53.297  1.00  0.00     0.156 HD
ENDBRANCH   6  28
TORSDOF 4
ENDMDL
MODEL 2
REMARK VINA RESULT:      -9.1      2.417      6.593
REMARK  4 active torsions:
REMARK  status: ('A' for Active; 'I' for Inactive)
REMARK    1  A    between atoms: C6_6  and  N1_7 
REMARK    2  A    between atoms: C7_8  and  N2_9 
REMARK    3  A    between atoms: N2_9  and  C8_10 
REMARK    4  A    between atoms: C10_14  and  C11_15 
ROOT
HETATM    1  C1  UNL     1      28.649   2.493  53.484  1.00  0.00     0.018 C 
HETATM    2  C2  UNL     1      27.599   1.871  53.560  1.00  0.00    -0.078 C 
HETATM    3  C3  UNL     1      26.377   1.146  53.625  1.00  0.00     0.019 A 
HETATM    4  C4  UNL     1      26.391   0.024  54.405  1.00  0.00     0.023 A 
HETATM    5  C5  UNL     1      25.256  -0.678  54.508  1.00  0.00     0.033 A 
HETATM    6  C6  UNL     1      24.050  -0.417  53.925  1.00  0.00     0.052 A 
HETATM    7  C7  UNL     1      24.118   0.761  53.136  1.00  0.00     0.058 A 
HETATM    8  C21 UNL     1      25.231   1.529  52.976  1.00  0.00     0.052 A 
ENDROOT
BRANCH   7   9
HETATM    9  N2  UNL     1      23.088   1.489  52.417  1.00  0.00    -0.347 N 
HETATM   10  H6  UNL     1      22.274   1.099  51.846  1.00  0.00     0.162 HD
BRANCH   9  11
HETATM   11  C8  UNL     1      23.535   2.892  52.721  1.00  0.00     0.334 A 
HETATM   12  N3  UNL     1      23.161   3.883  52.272  1.00  0.00     0.156 N 
HETATM   13  N4  UNL     1      23.406   4.534  50.841  1.00  0.00     0.000 N 
HETATM   14  C10 UNL     1      22.796   4.941  51.838  1.00  0.00     0.308 A 
HETATM   15  C11 UNL     1      22.633   3.448  51.570  1.00  0.00     0.272 A 
HETATM   16  C9  UNL     1      22.382   5.848  51.268  1.00  0.00     0.120 A 
HETATM   17  C15 UNL     1      24.183   4.425  49.373  1.00  0.00    -0.006 A 
HETATM   18  N5  UNL     1      22.093   5.662  49.744  1.00  0.00    -0.399 N 
HETATM   19  C13 UNL     1      21.724   4.259  49.365  1.00  0.00     0.100 C 
HETATM   20  H18 UNL     1      22.009   6.171  48.771  1.00  0.00     0.154 HD
HETATM   21  C12 UNL     1      21.758   3.255  50.463  1.00  0.00     0.019 C 
HETATM   22  C14 UNL     1      23.016   4.039  48.478  1.00  0.00     0.043 C 
HETATM   23  C16 UNL     1      25.073   3.315  49.476  1.00  0.00    -0.016 A 
HETATM   24  C20 UNL     1      24.856   5.678  49.146  1.00  0.00     0.041 A 
HETATM   25  C17 UNL     1      26.394   3.278  49.397  1.00  0.00    -0.003 A 
HETATM   26  C18 UNL     1      27.143   4.503  49.171  1.00  0.00    -0.004 A 
HETATM   27  C19 UNL     1      26.314   5.526  49.076  1.00  0.00    -0.026 A 
ENDBRANCH   9  11
ENDBRANCH   7   9
BRANCH   6  28
HETATM   28  N1  UNL     1      22.770  -1.016  53.895  1.00  0.00    -0.397 N 
HETATM   29  H4  UNL     1      22.631  -1.801  54.591  1.00  0.00     0.156 HD
HETATM   30  H5  UNL     1      22.015  -0.693  53.220  1.00  0.00     0.156 HD
ENDBRANCH   6  28
TORSDOF 4
ENDMDL
MODEL 3
REMARK VINA RESULT:      -8.9      1.841      5.714
REMARK  4 active torsions:
REMARK  status: ('A' for Active; 'I' for Inactive)
REMARK    1  A    between atoms: C6_6  and  N1_7 
REMARK    2  A    between atoms: C7_8  and  N2_9 
REMARK    3  A    between atoms: N2_9  and  C8_10 
REMARK    4  A    between atoms: C10_14  and  C11_15 
ROOT
HETATM    1  C1  UNL     1      22.018  -1.549  53.824  1.00  0.00     0.018 C 
HETATM    2  C2  UNL     1      23.004  -0.826  53.814  1.00  0.00    -0.078 C 
HETATM    3  C3  UNL     1      24.139   0.031  53.815  1.00  0.00     0.019 A 
HETATM    4  C4  UNL     1      25.296  -0.513  54.296  1.00  0.00     0.023 A 
HETATM    5  C5  UNL     1      26.393   0.255  54.297  1.00  0.00     0.033 A 
HETATM    6  C6  UNL     1      26.517   1.545  53.869  1.00  0.00     0.052 A 
HETATM    7  C7  UNL     1      25.275   2.035  53.385  1.00  0.00     0.058 A 
HETATM    8  C21 UNL     1      24.116   1.322  53.351  1.00  0.00     0.052 A 
ENDROOT
BRANCH   7   9
HETATM    9  N2  UNL     1      24.931   3.290  52.741  1.00  0.00    -0.347 N 
HETATM   10  H6  UNL     1      24.825   4.256  53.183  1.00  0.00     0.162 HD
BRANCH   9  11
HETATM   11  C8  UNL     1      24.769   2.795  51.331  1.00  0.00     0.334 A 
HETATM   12  N3  UNL     1      24.280   3.321  50.433  1.00  0.00     0.156 N 
HETATM   13  N4  UNL     1      22.749   3.594  50.094  1.00  0.00     0.000 N 
HETATM   14  C10 UNL     1      23.788   3.834  49.465  1.00  0.00     0.308 A 
HETATM   15  C11 UNL     1      23.904   4.048  50.971  1.00  0.00     0.272 A 
HETATM   16  C9  UNL     1      23.218   4.437  48.671  1.00  0.00     0.120 A 
HETATM   17  C15 UNL     1      21.161   3.364  50.535  1.00  0.00    -0.006 A 
HETATM   18  N5  UNL     1      21.955   5.226  49.143  1.00  0.00    -0.399 N 
HETATM   19  C13 UNL     1      22.021   5.673  50.572  1.00  0.00     0.100 C 
HETATM   20  H18 UNL     1      20.986   5.648  48.836  1.00  0.00     0.154 HD
HETATM   21  C12 UNL     1      23.224   5.245  51.337  1.00  0.00     0.019 C 
HETATM   22  C14 UNL     1      20.814   4.758  51.032  1.00  0.00     0.043 C 
HETATM   23  C16 UNL     1      21.181   2.469  51.645  1.00  0.00    -0.016 A 
HETATM   24  C20 UNL     1      20.467   2.835  49.389  1.00  0.00     0.041 A 
HETATM   25  C17 UNL     1      20.669   1.254  51.765  1.00  0.00    -0.003 A 
HETATM   26  C18 UNL     1      19.956   0.653  50.650  1.00  0.00    -0.004 A 
HETATM   27  C19 UNL     1      19.939   1.486  49.626  1.00  0.00    -0.026 A 
ENDBRANCH   9  11
ENDBRANCH   7   9
BRANCH   6  28
HETATM   28  N1  UNL     1      27.546   2.510  53.795  1.00  0.00    -0.397 N 
HETATM   29  H4  UNL     1      27.211   3.509  53.694  1.00  0.00     0.156 HD
HETATM   30  H5  UNL     1      28.573   2.242  53.840  1.00  0.00     0.156 HD
ENDBRANCH   6  28
TORSDOF 4
ENDMDL
MODEL 4
REMARK VINA RESULT:      -8.9      8.237     10.069
REMARK  4 active torsions:
REMARK  status: ('A' for Active; 'I' for Inactive)
REMARK    1  A    between atoms: C6_6  and  N1_7 
REMARK    2  A    between atoms: C7_8  and  N2_9 
REMARK    3  A    between atoms: N2_9  and  C8_10 
REMARK    4  A    between atoms: C10_14  and  C11_15 
ROOT
HETATM    1  C1  UNL     1      26.438   2.910  49.772  1.00  0.00     0.018 C 
HETATM    2  C2  UNL     1      26.715   4.043  49.406  1.00  0.00    -0.078 C 
HETATM    3  C3  UNL     1      27.037   5.354  48.958  1.00  0.00     0.019 A 
HETATM    4  C4  UNL     1      26.183   6.345  49.351  1.00  0.00     0.023 A 
HETATM    5  C5  UNL     1      26.460   7.597  48.965  1.00  0.00     0.033 A 
HETATM    6  C6  UNL     1      27.512   8.032  48.213  1.00  0.00     0.052 A 
HETATM    7  C7  UNL     1      28.351   6.946  47.848  1.00  0.00     0.058 A 
HETATM    8  C21 UNL     1      28.140   5.647  48.195  1.00  0.00     0.052 A 
ENDROOT
BRANCH   7   9
HETATM    9  N2  UNL     1      29.625   6.917  47.151  1.00  0.00    -0.347 N 
HETATM   10  H6  UNL     1      29.816   7.056  46.110  1.00  0.00     0.162 HD
BRANCH   9  11
HETATM   11  C8  UNL     1      30.525   6.627  48.319  1.00  0.00     0.334 A 
HETATM   12  N3  UNL     1      31.647   6.854  48.440  1.00  0.00     0.156 N 
HETATM   13  N4  UNL     1      32.924   6.163  47.789  1.00  0.00     0.000 N 
HETATM   14  C10 UNL     1      32.813   7.079  48.615  1.00  0.00     0.308 A 
HETATM   15  C11 UNL     1      31.770   7.110  47.503  1.00  0.00     0.272 A 
HETATM   16  C9  UNL     1      33.940   7.301  48.583  1.00  0.00     0.120 A 
HETATM   17  C15 UNL     1      33.506   4.941  46.821  1.00  0.00    -0.006 A 
HETATM   18  N5  UNL     1      34.677   7.063  47.226  1.00  0.00    -0.399 N 
HETATM   19  C13 UNL     1      33.803   7.253  46.023  1.00  0.00     0.100 C 
HETATM   20  H18 UNL     1      35.641   6.831  46.750  1.00  0.00     0.154 HD
HETATM   21  C12 UNL     1      32.373   7.563  46.294  1.00  0.00     0.019 C 
HETATM   22  C14 UNL     1      33.886   5.736  45.582  1.00  0.00     0.043 C 
HETATM   23  C16 UNL     1      32.390   4.110  46.513  1.00  0.00    -0.016 A 
HETATM   24  C20 UNL     1      34.538   4.260  47.561  1.00  0.00     0.041 A 
HETATM   25  C17 UNL     1      32.173   2.837  46.806  1.00  0.00    -0.003 A 
HETATM   26  C18 UNL     1      33.167   2.084  47.551  1.00  0.00    -0.004 A 
HETATM   27  C19 UNL     1      34.199   2.858  47.832  1.00  0.00    -0.026 A 
ENDBRANCH   9  11
ENDBRANCH   7   9
BRANCH   6  28
HETATM   28  N1  UNL     1      27.970   9.266  47.700  1.00  0.00    -0.397 N 
HETATM   29  H4  UNL     1      27.368  10.101  47.948  1.00  0.00     0.156 HD
HETATM   30  H5  UNL     1      28.852   9.338  47.112  1.00  0.00     0.156 HD
ENDBRANCH   6  28
TORSDOF 4
ENDMDL
MODEL 5
REMARK VINA RESULT:      -8.5      3.352      6.267
REMARK  4 active torsions:
REMARK  status: ('A' for Active; 'I' for Inactive)
REMARK    1  A    between atoms: C6_6  and  N1_7 
REMARK    2  A    between atoms: C7_8  and  N2_9 
REMARK    3  A    between atoms: N2_9  and  C8_10 
REMARK    4  A    between atoms: C10_14  and  C11_15 
ROOT
HETATM    1  C1  UNL     1      21.966  -1.431  54.942  1.00  0.00     0.018 C 
HETATM    2  C2  UNL     1      21.004  -1.177  54.233  1.00  0.00    -0.078 C 
HETATM    3  C3  UNL     1      19.897  -0.887  53.388  1.00  0.00     0.019 A 
HETATM    4  C4  UNL     1      18.753  -1.589  53.642  1.00  0.00     0.023 A 
HETATM    5  C5  UNL     1      17.681  -1.333  52.881  1.00  0.00     0.033 A 
HETATM    6  C6  UNL     1      17.572  -0.438  51.857  1.00  0.00     0.052 A 
HETATM    7  C7  UNL     1      18.798   0.249  51.657  1.00  0.00     0.058 A 
HETATM    8  C21 UNL     1      19.931   0.047  52.383  1.00  0.00     0.052 A 
ENDROOT
BRANCH   7   9
HETATM    9  N2  UNL     1      19.143   1.348  50.773  1.00  0.00    -0.347 N 
HETATM   10  H6  UNL     1      19.091   1.384  49.707  1.00  0.00     0.162 HD
BRANCH   9  11
HETATM   11  C8  UNL     1      19.585   2.349  51.802  1.00  0.00     0.334 A 
HETATM   12  N3  UNL     1      20.185   3.320  51.655  1.00  0.00     0.156 N 
HETATM   13  N4  UNL     1      21.728   3.552  51.340  1.00  0.00     0.000 N 
HETATM   14  C10 UNL     1      20.800   4.345  51.548  1.00  0.00     0.308 A 
HETATM   15  C11 UNL     1      20.407   3.126  50.720  1.00  0.00     0.272 A 
HETATM   16  C9  UNL     1      21.456   5.248  51.275  1.00  0.00     0.120 A 
HETATM   17  C15 UNL     1      23.226   2.860  51.125  1.00  0.00    -0.006 A 
HETATM   18  N5  UNL     1      22.556   5.030  50.187  1.00  0.00    -0.399 N 
HETATM   19  C13 UNL     1      22.208   3.977  49.179  1.00  0.00     0.100 C 
HETATM   20  H18 UNL     1      23.531   5.371  49.807  1.00  0.00     0.154 HD
HETATM   21  C12 UNL     1      20.923   3.258  49.400  1.00  0.00     0.019 C 
HETATM   22  C14 UNL     1      23.378   3.008  49.620  1.00  0.00     0.043 C 
HETATM   23  C16 UNL     1      23.076   1.478  51.441  1.00  0.00    -0.016 A 
HETATM   24  C20 UNL     1      24.147   3.548  51.993  1.00  0.00     0.041 A 
HETATM   25  C17 UNL     1      23.646   0.759  52.396  1.00  0.00    -0.003 A 
HETATM   26  C18 UNL     1      24.585   1.384  53.313  1.00  0.00    -0.004 A 
HETATM   27  C19 UNL     1      24.721   2.663  53.014  1.00  0.00    -0.026 A 
ENDBRANCH   9  11
ENDBRANCH   7   9
BRANCH   6  28
HETATM   28  N1  UNL     1      16.570  -0.033  50.947  1.00  0.00    -0.397 N 
HETATM   29  H4  UNL     1      16.600   0.991  50.681  1.00  0.00     0.156 HD
HETATM   30  H5  UNL     1      15.847  -0.713  50.566  1.00  0.00     0.156 HD
ENDBRANCH   6  28
TORSDOF 4
ENDMDL
MODEL 6
REMARK VINA RESULT:      -8.5      2.604      6.158
REMARK  4 active torsions:
REMARK  status: ('A' for Active; 'I' for Inactive)
REMARK    1  A    between atoms: C6_6  and  N1_7 
REMARK    2  A    between atoms: C7_8  and  N2_9 
REMARK    3  A    between atoms: N2_9  and  C8_10 
REMARK    4  A    between atoms: C10_14  and  C11_15 
ROOT
HETATM    1  C1  UNL     1      26.813   3.971  49.470  1.00  0.00     0.018 C 
HETATM    2  C2  UNL     1      26.607   3.187  50.385  1.00  0.00    -0.078 C 
HETATM    3  C3  UNL     1      26.360   2.259  51.434  1.00  0.00     0.019 A 
HETATM    4  C4  UNL     1      27.409   2.020  52.277  1.00  0.00     0.023 A 
HETATM    5  C5  UNL     1      27.213   1.165  53.289  1.00  0.00     0.033 A 
HETATM    6  C6  UNL     1      26.075   0.482  53.605  1.00  0.00     0.052 A 
HETATM    7  C7  UNL     1      25.036   0.785  52.686  1.00  0.00     0.058 A 
HETATM    8  C21 UNL     1      25.153   1.638  51.631  1.00  0.00     0.052 A 
ENDROOT
BRANCH   7   9
HETATM    9  N2  UNL     1      23.638   0.395  52.664  1.00  0.00    -0.347 N 
HETATM   10  H6  UNL     1      23.222  -0.580  52.530  1.00  0.00     0.162 HD
BRANCH   9  11
HETATM   11  C8  UNL     1      23.013   1.746  52.867  1.00  0.00     0.334 A 
HETATM   12  N3  UNL     1      21.924   2.073  52.687  1.00  0.00     0.156 N 
HETATM   13  N4  UNL     1      21.130   2.345  51.336  1.00  0.00     0.000 N 
HETATM   14  C10 UNL     1      20.799   2.457  52.523  1.00  0.00     0.308 A 
HETATM   15  C11 UNL     1      21.675   1.244  52.230  1.00  0.00     0.272 A 
HETATM   16  C9  UNL     1      19.705   2.669  52.242  1.00  0.00     0.120 A 
HETATM   17  C15 UNL     1      21.194   2.439  49.676  1.00  0.00    -0.006 A 
HETATM   18  N5  UNL     1      19.150   1.975  50.958  1.00  0.00    -0.399 N 
HETATM   19  C13 UNL     1      19.799   0.659  50.654  1.00  0.00     0.100 C 
HETATM   20  H18 UNL     1      18.410   2.036  50.146  1.00  0.00     0.154 HD
HETATM   21  C12 UNL     1      20.905   0.249  51.562  1.00  0.00     0.019 C 
HETATM   22  C14 UNL     1      20.453   1.164  49.305  1.00  0.00     0.043 C 
HETATM   23  C16 UNL     1      22.567   2.294  49.321  1.00  0.00    -0.016 A 
HETATM   24  C20 UNL     1      20.636   3.710  49.293  1.00  0.00     0.041 A 
HETATM   25  C17 UNL     1      23.380   3.143  48.710  1.00  0.00    -0.003 A 
HETATM   26  C18 UNL     1      22.889   4.447  48.295  1.00  0.00    -0.004 A 
HETATM   27  C19 UNL     1      21.617   4.574  48.624  1.00  0.00    -0.026 A 
ENDBRANCH   9  11
ENDBRANCH   7   9
BRANCH   6  28
HETATM   28  N1  UNL     1      25.672  -0.447  54.591  1.00  0.00    -0.397 N 
HETATM   29  H4  UNL     1      25.126  -1.275  54.223  1.00  0.00     0.156 HD
HETATM   30  H5  UNL     1      25.906  -0.312  55.619  1.00  0.00     0.156 HD
ENDBRANCH   6  28
TORSDOF 4
ENDMDL
MODEL 7
REMARK VINA RESULT:      -8.3      3.150      5.573
REMARK  4 active torsions:
REMARK  status: ('A' for Active; 'I' for Inactive)
REMARK    1  A    between atoms: C6_6  and  N1_7 
REMARK    2  A    between atoms: C7_8  and  N2_9 
REMARK    3  A    between atoms: N2_9  and  C8_10 
REMARK    4  A    between atoms: C10_14  and  C11_15 
ROOT
HETATM    1  C1  UNL     1      27.876   5.001  48.498  1.00  0.00     0.018 C 
HETATM    2  C2  UNL     1      26.797   5.509  48.766  1.00  0.00    -0.078 C 
HETATM    3  C3  UNL     1      25.552   6.112  49.097  1.00  0.00     0.019 A 
HETATM    4  C4  UNL     1      24.948   6.818  48.095  1.00  0.00     0.023 A 
HETATM    5  C5  UNL     1      23.765   7.387  48.360  1.00  0.00     0.033 A 
HETATM    6  C6  UNL     1      23.057   7.354  49.526  1.00  0.00     0.052 A 
HETATM    7  C7  UNL     1      23.749   6.602  50.512  1.00  0.00     0.058 A 
HETATM    8  C21 UNL     1      24.954   5.996  50.326  1.00  0.00     0.052 A 
ENDROOT
BRANCH   7   9
HETATM    9  N2  UNL     1      23.362   6.202  51.853  1.00  0.00    -0.347 N 
HETATM   10  H6  UNL     1      23.911   6.309  52.763  1.00  0.00     0.162 HD
BRANCH   9  11
HETATM   11  C8  UNL     1      22.017   5.609  51.542  1.00  0.00     0.334 A 
HETATM   12  N3  UNL     1      21.568   4.610  51.896  1.00  0.00     0.156 N 
HETATM   13  N4  UNL     1      21.890   3.113  51.461  1.00  0.00     0.000 N 
HETATM   14  C10 UNL     1      21.057   3.582  52.247  1.00  0.00     0.308 A 
HETATM   15  C11 UNL     1      22.410   4.285  52.278  1.00  0.00     0.272 A 
HETATM   16  C9  UNL     1      20.754   2.537  52.616  1.00  0.00     0.120 A 
HETATM   17  C15 UNL     1      22.752   2.109  50.452  1.00  0.00    -0.006 A 
HETATM   18  N5  UNL     1      21.865   1.439  52.643  1.00  0.00    -0.399 N 
HETATM   19  C13 UNL     1      23.245   1.981  52.863  1.00  0.00     0.100 C 
HETATM   20  H18 UNL     1      22.069   0.359  52.598  1.00  0.00     0.154 HD
HETATM   21  C12 UNL     1      23.360   3.463  52.950  1.00  0.00     0.019 C 
HETATM   22  C14 UNL     1      23.767   1.545  51.435  1.00  0.00     0.043 C 
HETATM   23  C16 UNL     1      23.428   2.959  49.527  1.00  0.00    -0.016 A 
HETATM   24  C20 UNL     1      21.812   1.216  49.826  1.00  0.00     0.041 A 
HETATM   25  C17 UNL     1      23.312   3.041  48.211  1.00  0.00    -0.003 A 
HETATM   26  C18 UNL     1      22.382   2.173  47.508  1.00  0.00    -0.004 A 
HETATM   27  C19 UNL     1      21.761   1.388  48.368  1.00  0.00    -0.026 A 
ENDBRANCH   9  11
ENDBRANCH   7   9
BRANCH   6  28
HETATM   28  N1  UNL     1      21.835   7.878  50.004  1.00  0.00    -0.397 N 
HETATM   29  H4  UNL     1      21.910   8.420  50.910  1.00  0.00     0.156 HD
HETATM   30  H5  UNL     1      20.919   7.733  49.485  1.00  0.00     0.156 HD
ENDBRANCH   6  28
TORSDOF 4
ENDMDL
MODEL 8
REMARK VINA RESULT:      -8.2      4.097      5.904
REMARK  4 active torsions:
REMARK  status: ('A' for Active; 'I' for Inactive)
REMARK    1  A    between atoms: C6_6  and  N1_7 
REMARK    2  A    between atoms: C7_8  and  N2_9 
REMARK    3  A    between atoms: N2_9  and  C8_10 
REMARK    4  A    between atoms: C10_14  and  C11_15 
ROOT
HETATM    1  C1  UNL     1      23.608   9.129  46.320  1.00  0.00     0.018 C 
HETATM    2  C2  UNL     1      24.580   8.553  46.785  1.00  0.00    -0.078 C 
HETATM    3  C3  UNL     1      25.701   7.861  47.323  1.00  0.00     0.019 A 
HETATM    4  C4  UNL     1      26.897   8.094  46.707  1.00  0.00     0.023 A 
HETATM    5  C5  UNL     1      27.981   7.476  47.194  1.00  0.00     0.033 A 
HETATM    6  C6  UNL     1      28.056   6.622  48.255  1.00  0.00     0.052 A 
HETATM    7  C7  UNL     1      26.776   6.433  48.839  1.00  0.00     0.058 A 
HETATM    8  C21 UNL     1      25.627   7.020  48.405  1.00  0.00     0.052 A 
ENDROOT
BRANCH   7   9
HETATM    9  N2  UNL     1      26.368   5.711  50.031  1.00  0.00    -0.347 N 
HETATM   10  H6  UNL     1      26.368   6.047  51.044  1.00  0.00     0.162 HD
BRANCH   9  11
HETATM   11  C8  UNL     1      25.983   4.405  49.394  1.00  0.00     0.334 A 
HETATM   12  N3  UNL     1      25.042   3.766  49.567  1.00  0.00     0.156 N 
HETATM   13  N4  UNL     1      24.623   2.841  50.791  1.00  0.00     0.000 N 
HETATM   14  C10 UNL     1      24.072   3.073  49.707  1.00  0.00     0.308 A 
HETATM   15  C11 UNL     1      24.743   4.287  50.341  1.00  0.00     0.272 A 
HETATM   16  C9  UNL     1      23.125   2.501  50.018  1.00  0.00     0.120 A 
HETATM   17  C15 UNL     1      25.059   2.189  52.259  1.00  0.00    -0.006 A 
HETATM   18  N5  UNL     1      22.737   2.530  51.531  1.00  0.00    -0.399 N 
HETATM   19  C13 UNL     1      23.173   3.775  52.243  1.00  0.00     0.100 C 
HETATM   20  H18 UNL     1      22.214   1.998  52.340  1.00  0.00     0.154 HD
HETATM   21  C12 UNL     1      23.959   4.749  51.437  1.00  0.00     0.019 C 
HETATM   22  C14 UNL     1      24.185   3.015  53.191  1.00  0.00     0.043 C 
HETATM   23  C16 UNL     1      26.423   2.549  52.466  1.00  0.00    -0.016 A 
HETATM   24  C20 UNL     1      24.849   0.766  52.179  1.00  0.00     0.041 A 
HETATM   25  C17 UNL     1      27.494   1.780  52.587  1.00  0.00    -0.003 A 
HETATM   26  C18 UNL     1      27.362   0.334  52.515  1.00  0.00    -0.004 A 
HETATM   27  C19 UNL     1      26.097   0.007  52.326  1.00  0.00    -0.026 A 
ENDBRANCH   9  11
ENDBRANCH   7   9
BRANCH   6  28
HETATM   28  N1  UNL     1      29.064   5.876  48.906  1.00  0.00    -0.397 N 
HETATM   29  H4  UNL     1      29.056   5.947  49.962  1.00  0.00     0.156 HD
HETATM   30  H5  UNL     1      29.769   5.292  48.366  1.00  0.00     0.156 HD
ENDBRANCH   6  28
TORSDOF 4
ENDMDL
MODEL 9
REMARK VINA RESULT:      -8.1      3.190      5.692
REMARK  4 active torsions:
REMARK  status: ('A' for Active; 'I' for Inactive)
REMARK    1  A    between atoms: C6_6  and  N1_7 
REMARK    2  A    between atoms: C7_8  and  N2_9 
REMARK    3  A    between atoms: N2_9  and  C8_10 
REMARK    4  A    between atoms: C10_14  and  C11_15 
ROOT
HETATM    1  C1  UNL     1      27.972   5.929  48.208  1.00  0.00     0.018 C 
HETATM    2  C2  UNL     1      26.888   6.120  48.738  1.00  0.00    -0.078 C 
HETATM    3  C3  UNL     1      25.623   6.318  49.359  1.00  0.00     0.019 A 
HETATM    4  C4  UNL     1      25.617   7.143  50.448  1.00  0.00     0.023 A 
HETATM    5  C5  UNL     1      24.443   7.371  51.050  1.00  0.00     0.033 A 
HETATM    6  C6  UNL     1      23.215   6.880  50.714  1.00  0.00     0.052 A 
HETATM    7  C7  UNL     1      23.307   6.036  49.576  1.00  0.00     0.058 A 
HETATM    8  C21 UNL     1      24.458   5.751  48.908  1.00  0.00     0.052 A 
ENDROOT
BRANCH   7   9
HETATM    9  N2  UNL     1      22.278   5.374  48.794  1.00  0.00    -0.347 N 
HETATM   10  H6  UNL     1      21.353   5.773  48.439  1.00  0.00     0.162 HD
BRANCH   9  11
HETATM   11  C8  UNL     1      22.911   4.016  48.672  1.00  0.00     0.334 A 
HETATM   12  N3  UNL     1      22.458   2.985  48.904  1.00  0.00     0.156 N 
HETATM   13  N4  UNL     1      22.139   2.277  50.293  1.00  0.00     0.000 N 
HETATM   14  C10 UNL     1      22.024   1.887  49.124  1.00  0.00     0.308 A 
HETATM   15  C11 UNL     1      21.658   3.353  49.333  1.00  0.00     0.272 A 
HETATM   16  C9  UNL     1      21.479   0.931  49.451  1.00  0.00     0.120 A 
HETATM   17  C15 UNL     1      22.232   2.357  51.953  1.00  0.00    -0.006 A 
HETATM   18  N5  UNL     1      20.576   1.023  50.723  1.00  0.00    -0.399 N 
HETATM   19  C13 UNL     1      19.983   2.382  50.945  1.00  0.00     0.100 C 
HETATM   20  H18 UNL     1      20.136   0.463  51.561  1.00  0.00     0.154 HD
HETATM   21  C12 UNL     1      20.393   3.440  49.982  1.00  0.00     0.019 C 
HETATM   22  C14 UNL     1      20.775   2.631  52.292  1.00  0.00     0.043 C 
HETATM   23  C16 UNL     1      23.002   3.519  52.253  1.00  0.00    -0.016 A 
HETATM   24  C20 UNL     1      22.840   1.135  52.411  1.00  0.00     0.041 A 
HETATM   25  C17 UNL     1      24.167   3.628  52.872  1.00  0.00    -0.003 A 
HETATM   26  C18 UNL     1      24.844   2.437  53.361  1.00  0.00    -0.004 A 
HETATM   27  C19 UNL     1      24.125   1.365  53.082  1.00  0.00    -0.026 A 
ENDBRANCH   9  11
ENDBRANCH   7   9
BRANCH   6  28
HETATM   28  N1  UNL     1      21.895   6.982  51.207  1.00  0.00    -0.397 N 
HETATM   29  H4  UNL     1      21.139   6.910  50.470  1.00  0.00     0.156 HD
HETATM   30  H5  UNL     1      21.690   7.121  52.241  1.00  0.00     0.156 HD
ENDBRANCH   6  28
TORSDOF 4
ENDMDL
