MODEL 1
REMARK VINA RESULT:      -8.3      0.000      0.000
REMARK  7 active torsions:
REMARK  status: ('A' for Active; 'I' for Inactive)
REMARK    1  A    between atoms: O1_2  and  C2_3 
REMARK    2  A    between atoms: C2_3  and  O2_4 
REMARK    3  A    between atoms: O2_4  and  C3_5 
REMARK    4  A    between atoms: C3_5  and  C4_6 
REMARK    5  A    between atoms: C4_6  and  O3_7 
REMARK    6  A    between atoms: O3_7  and  C5_8 
REMARK    7  A    between atoms: C5_8  and  C6_9 
ROOT
HETATM    1  C6  UNL     1      25.436   1.809  53.070  1.00  0.00    -0.054 C 
HETATM    2  C7  UNL     1      24.909   0.613  53.279  1.00  0.00     0.018 C 
HETATM    3  C8  UNL     1      23.632  -0.014  53.595  1.00  0.00    -0.011 A 
HETATM    4  C9  UNL     1      23.720  -0.819  54.656  1.00  0.00     0.013 A 
HETATM    5  C10 UNL     1      22.584  -1.578  55.190  1.00  0.00    -0.003 A 
HETATM    6  C11 UNL     1      21.474  -1.375  54.500  1.00  0.00    -0.021 A 
HETATM    7  C12 UNL     1      21.150  -0.565  53.334  1.00  0.00     0.087 A 
HETATM    8  C13 UNL     1      22.360   0.180  52.903  1.00  0.00     0.049 A 
HETATM    9  N1  UNL     1      22.230   0.975  51.923  1.00  0.00    -0.246 NA
HETATM   10  C14 UNL     1      20.970   1.160  51.249  1.00  0.00     0.227 C 
HETATM   11  N2  UNL     1      21.586   1.031  50.119  1.00  0.00    -0.279 NA
HETATM   12  C15 UNL     1      20.894   1.107  48.846  1.00  0.00     0.177 C 
HETATM   13  C16 UNL     1      21.447   2.086  47.907  1.00  0.00    -0.009 C 
HETATM   14  C17 UNL     1      22.367   3.035  47.648  1.00  0.00    -0.021 C 
HETATM   15  C18 UNL     1      23.177   3.103  48.897  1.00  0.00     0.050 C 
HETATM   16  C19 UNL     1      24.225   3.743  49.440  1.00  0.00     0.159 C 
HETATM   17  O4  UNL     1      24.214   3.096  50.682  1.00  0.00    -0.382 OA
HETATM   18  C20 UNL     1      24.645   3.798  51.821  1.00  0.00     0.172 C 
HETATM   19  C21 UNL     1      24.606   3.050  53.106  1.00  0.00     0.062 C 
ENDROOT
BRANCH   1  20
HETATM   20  C5  UNL     1      26.859   2.115  52.752  1.00  0.00     0.202 C 
BRANCH  20  21
HETATM   21  O3  UNL     1      27.596   2.227  53.900  1.00  0.00    -0.385 OA
BRANCH  21  22
HETATM   22  C4  UNL     1      28.728   1.451  53.906  1.00  0.00     0.194 C 
BRANCH  22  23
HETATM   23  C3  UNL     1      28.722   0.374  54.946  1.00  0.00     0.196 C 
BRANCH  23  24
HETATM   24  O2  UNL     1      28.181  -0.809  54.476  1.00  0.00    -0.365 OA
BRANCH  24  25
HETATM   25  C2  UNL     1      28.814  -1.332  53.378  1.00  0.00     0.337 C 
BRANCH  25  26
HETATM   26  O1  UNL     1      28.187  -2.535  53.036  1.00  0.00    -0.372 OA
HETATM   27  C1  UNL     1      26.980  -2.239  52.440  1.00  0.00     0.204 C 
ENDBRANCH  25  26
ENDBRANCH  24  25
ENDBRANCH  23  24
ENDBRANCH  22  23
ENDBRANCH  21  22
ENDBRANCH  20  21
ENDBRANCH   1  20
TORSDOF 7
ENDMDL
MODEL 2
REMARK VINA RESULT:      -7.6      1.645      1.915
REMARK  7 active torsions:
REMARK  status: ('A' for Active; 'I' for Inactive)
REMARK    1  A    between atoms: O1_2  and  C2_3 
REMARK    2  A    between atoms: C2_3  and  O2_4 
REMARK    3  A    between atoms: O2_4  and  C3_5 
REMARK    4  A    between atoms: C3_5  and  C4_6 
REMARK    5  A    between atoms: C4_6  and  O3_7 
REMARK    6  A    between atoms: O3_7  and  C5_8 
REMARK    7  A    between atoms: C5_8  and  C6_9 
ROOT
HETATM    1  C6  UNL     1      24.910   2.054  52.004  1.00  0.00    -0.054 C 
HETATM    2  C7  UNL     1      24.301   0.923  52.323  1.00  0.00     0.018 C 
HETATM    3  C8  UNL     1      23.192   0.431  53.131  1.00  0.00    -0.011 A 
HETATM    4  C9  UNL     1      23.570  -0.547  53.956  1.00  0.00     0.013 A 
HETATM    5  C10 UNL     1      22.655  -1.224  54.880  1.00  0.00    -0.003 A 
HETATM    6  C11 UNL     1      21.419  -0.756  54.797  1.00  0.00    -0.021 A 
HETATM    7  C12 UNL     1      20.789   0.277  53.988  1.00  0.00     0.087 A 
HETATM    8  C13 UNL     1      21.812   0.912  53.120  1.00  0.00     0.049 A 
HETATM    9  N1  UNL     1      21.430   1.873  52.385  1.00  0.00    -0.246 NA
HETATM   10  C14 UNL     1      20.067   2.340  52.382  1.00  0.00     0.227 C 
HETATM   11  N2  UNL     1      20.090   2.322  51.089  1.00  0.00    -0.279 NA
HETATM   12  C15 UNL     1      18.945   2.708  50.288  1.00  0.00     0.177 C 
HETATM   13  C16 UNL     1      19.216   3.748  49.292  1.00  0.00    -0.009 C 
HETATM   14  C17 UNL     1      20.100   4.593  48.727  1.00  0.00    -0.021 C 
HETATM   15  C18 UNL     1      21.368   4.336  49.467  1.00  0.00     0.050 C 
HETATM   16  C19 UNL     1      22.652   4.725  49.524  1.00  0.00     0.159 C 
HETATM   17  O4  UNL     1      23.054   3.883  50.570  1.00  0.00    -0.382 OA
HETATM   18  C20 UNL     1      24.067   4.316  51.442  1.00  0.00     0.172 C 
HETATM   19  C21 UNL     1      24.443   3.372  52.529  1.00  0.00     0.062 C 
ENDROOT
BRANCH   1  20
HETATM   20  C5  UNL     1      26.083   2.213  51.099  1.00  0.00     0.202 C 
BRANCH  20  21
HETATM   21  O3  UNL     1      27.169   2.672  51.794  1.00  0.00    -0.385 OA
BRANCH  21  22
HETATM   22  C4  UNL     1      27.617   1.800  52.754  1.00  0.00     0.194 C 
BRANCH  22  23
HETATM   23  C3  UNL     1      28.699   2.358  53.625  1.00  0.00     0.196 C 
BRANCH  23  24
HETATM   24  O2  UNL     1      28.887   1.611  54.774  1.00  0.00    -0.365 OA
BRANCH  24  25
HETATM   25  C2  UNL     1      28.690   0.263  54.621  1.00  0.00     0.337 C 
BRANCH  25  26
HETATM   26  O1  UNL     1      29.823  -0.284  54.008  1.00  0.00    -0.372 OA
HETATM   27  C1  UNL     1      29.466  -1.486  53.436  1.00  0.00     0.204 C 
ENDBRANCH  25  26
ENDBRANCH  24  25
ENDBRANCH  23  24
ENDBRANCH  22  23
ENDBRANCH  21  22
ENDBRANCH  20  21
ENDBRANCH   1  20
TORSDOF 7
ENDMDL
MODEL 3
REMARK VINA RESULT:      -7.6      3.156      5.763
REMARK  7 active torsions:
REMARK  status: ('A' for Active; 'I' for Inactive)
REMARK    1  A    between atoms: O1_2  and  C2_3 
REMARK    2  A    between atoms: C2_3  and  O2_4 
REMARK    3  A    between atoms: O2_4  and  C3_5 
REMARK    4  A    between atoms: C3_5  and  C4_6 
REMARK    5  A    between atoms: C4_6  and  O3_7 
REMARK    6  A    between atoms: O3_7  and  C5_8 
REMARK    7  A    between atoms: C5_8  and  C6_9 
ROOT
HETATM    1  C6  UNL     1      20.755   0.867  51.913  1.00  0.00    -0.054 C 
HETATM    2  C7  UNL     1      21.329   0.738  53.098  1.00  0.00     0.018 C 
HETATM    3  C8  UNL     1      22.456   0.069  53.735  1.00  0.00    -0.011 A 
HETATM    4  C9  UNL     1      22.079  -0.640  54.801  1.00  0.00     0.013 A 
HETATM    5  C10 UNL     1      23.011  -1.411  55.630  1.00  0.00    -0.003 A 
HETATM    6  C11 UNL     1      24.260  -1.317  55.202  1.00  0.00    -0.021 A 
HETATM    7  C12 UNL     1      24.892  -0.617  54.093  1.00  0.00     0.087 A 
HETATM    8  C13 UNL     1      23.854   0.098  53.309  1.00  0.00     0.049 A 
HETATM    9  N1  UNL     1      24.239   0.720  52.273  1.00  0.00    -0.246 NA
HETATM   10  C14 UNL     1      25.619   0.741  51.860  1.00  0.00     0.227 C 
HETATM   11  N2  UNL     1      25.526   2.020  51.703  1.00  0.00    -0.279 NA
HETATM   12  C15 UNL     1      26.643   2.830  51.256  1.00  0.00     0.177 C 
HETATM   13  C16 UNL     1      26.366   3.661  50.081  1.00  0.00    -0.009 C 
HETATM   14  C17 UNL     1      25.492   4.056  49.135  1.00  0.00    -0.021 C 
HETATM   15  C18 UNL     1      24.255   3.284  49.442  1.00  0.00     0.050 C 
HETATM   16  C19 UNL     1      22.995   3.099  49.017  1.00  0.00     0.159 C 
HETATM   17  O4  UNL     1      22.612   2.153  49.977  1.00  0.00    -0.382 OA
HETATM   18  C20 UNL     1      21.667   1.173  49.628  1.00  0.00     0.172 C 
HETATM   19  C21 UNL     1      21.308   0.201  50.695  1.00  0.00     0.062 C 
ENDROOT
BRANCH   1  20
HETATM   20  C5  UNL     1      19.544   1.673  51.589  1.00  0.00     0.202 C 
BRANCH  20  21
HETATM   21  O3  UNL     1      19.628   2.917  52.154  1.00  0.00    -0.385 OA
BRANCH  21  22
HETATM   22  C4  UNL     1      19.743   3.932  51.238  1.00  0.00     0.194 C 
BRANCH  22  23
HETATM   23  C3  UNL     1      20.869   4.879  51.516  1.00  0.00     0.196 C 
BRANCH  23  24
HETATM   24  O2  UNL     1      21.856   4.307  52.299  1.00  0.00    -0.365 OA
BRANCH  24  25
HETATM   25  C2  UNL     1      23.040   4.997  52.323  1.00  0.00     0.337 C 
BRANCH  25  26
HETATM   26  O1  UNL     1      23.011   5.964  51.313  1.00  0.00    -0.372 OA
HETATM   27  C1  UNL     1      24.203   6.656  51.343  1.00  0.00     0.204 C 
ENDBRANCH  25  26
ENDBRANCH  24  25
ENDBRANCH  23  24
ENDBRANCH  22  23
ENDBRANCH  21  22
ENDBRANCH  20  21
ENDBRANCH   1  20
TORSDOF 7
ENDMDL
MODEL 4
REMARK VINA RESULT:      -7.1      2.535      5.915
REMARK  7 active torsions:
REMARK  status: ('A' for Active; 'I' for Inactive)
REMARK    1  A    between atoms: O1_2  and  C2_3 
REMARK    2  A    between atoms: C2_3  and  O2_4 
REMARK    3  A    between atoms: O2_4  and  C3_5 
REMARK    4  A    between atoms: C3_5  and  C4_6 
REMARK    5  A    between atoms: C4_6  and  O3_7 
REMARK    6  A    between atoms: O3_7  and  C5_8 
REMARK    7  A    between atoms: C5_8  and  C6_9 
ROOT
HETATM    1  C6  UNL     1      22.474   2.811  51.267  1.00  0.00    -0.054 C 
HETATM    2  C7  UNL     1      21.879   2.301  52.333  1.00  0.00     0.018 C 
HETATM    3  C8  UNL     1      21.689   1.027  53.015  1.00  0.00    -0.011 A 
HETATM    4  C9  UNL     1      20.400   0.766  53.238  1.00  0.00     0.013 A 
HETATM    5  C10 UNL     1      19.926  -0.449  53.909  1.00  0.00    -0.003 A 
HETATM    6  C11 UNL     1      20.919  -1.246  54.267  1.00  0.00    -0.021 A 
HETATM    7  C12 UNL     1      22.367  -1.169  54.136  1.00  0.00     0.087 A 
HETATM    8  C13 UNL     1      22.728   0.079  53.416  1.00  0.00     0.049 A 
HETATM    9  N1  UNL     1      23.958   0.272  53.175  1.00  0.00    -0.246 NA
HETATM   10  C14 UNL     1      24.973  -0.669  53.574  1.00  0.00     0.227 C 
HETATM   11  N2  UNL     1      25.663   0.315  54.049  1.00  0.00    -0.279 NA
HETATM   12  C15 UNL     1      26.953   0.123  54.684  1.00  0.00     0.177 C 
HETATM   13  C16 UNL     1      28.039   0.929  54.119  1.00  0.00    -0.009 C 
HETATM   14  C17 UNL     1      28.441   1.835  53.207  1.00  0.00    -0.021 C 
HETATM   15  C18 UNL     1      27.206   2.139  52.432  1.00  0.00     0.050 C 
HETATM   16  C19 UNL     1      26.759   2.892  51.414  1.00  0.00     0.159 C 
HETATM   17  O4  UNL     1      25.424   2.466  51.441  1.00  0.00    -0.382 OA
HETATM   18  C20 UNL     1      24.696   2.428  50.239  1.00  0.00     0.172 C 
HETATM   19  C21 UNL     1      23.286   1.965  50.341  1.00  0.00     0.062 C 
ENDROOT
BRANCH   1  20
HETATM   20  C5  UNL     1      22.467   4.238  50.837  1.00  0.00     0.202 C 
BRANCH  20  21
HETATM   21  O3  UNL     1      22.729   5.062  51.898  1.00  0.00    -0.385 OA
BRANCH  21  22
HETATM   22  C4  UNL     1      23.799   5.897  51.696  1.00  0.00     0.194 C 
BRANCH  22  23
HETATM   23  C3  UNL     1      24.212   6.020  50.261  1.00  0.00     0.196 C 
BRANCH  23  24
HETATM   24  O2  UNL     1      25.571   5.826  50.088  1.00  0.00    -0.365 OA
BRANCH  24  25
HETATM   25  C2  UNL     1      26.021   6.037  48.811  1.00  0.00     0.337 C 
BRANCH  25  26
HETATM   26  O1  UNL     1      27.099   6.928  48.862  1.00  0.00    -0.372 OA
HETATM   27  C1  UNL     1      28.183   6.329  48.257  1.00  0.00     0.204 C 
ENDBRANCH  25  26
ENDBRANCH  24  25
ENDBRANCH  23  24
ENDBRANCH  22  23
ENDBRANCH  21  22
ENDBRANCH  20  21
ENDBRANCH   1  20
TORSDOF 7
ENDMDL
MODEL 5
REMARK VINA RESULT:      -6.8      3.266      5.308
REMARK  7 active torsions:
REMARK  status: ('A' for Active; 'I' for Inactive)
REMARK    1  A    between atoms: O1_2  and  C2_3 
REMARK    2  A    between atoms: C2_3  and  O2_4 
REMARK    3  A    between atoms: O2_4  and  C3_5 
REMARK    4  A    between atoms: C3_5  and  C4_6 
REMARK    5  A    between atoms: C4_6  and  O3_7 
REMARK    6  A    between atoms: O3_7  and  C5_8 
REMARK    7  A    between atoms: C5_8  and  C6_9 
ROOT
HETATM    1  C6  UNL     1      24.490   3.826  51.115  1.00  0.00    -0.054 C 
HETATM    2  C7  UNL     1      24.935   2.581  51.066  1.00  0.00     0.018 C 
HETATM    3  C8  UNL     1      25.013   1.381  51.890  1.00  0.00    -0.011 A 
HETATM    4  C9  UNL     1      26.259   0.909  51.968  1.00  0.00     0.013 A 
HETATM    5  C10 UNL     1      26.622  -0.290  52.731  1.00  0.00    -0.003 A 
HETATM    6  C11 UNL     1      25.577  -0.845  53.323  1.00  0.00    -0.021 A 
HETATM    7  C12 UNL     1      24.160  -0.518  53.374  1.00  0.00     0.087 A 
HETATM    8  C13 UNL     1      23.916   0.725  52.599  1.00  0.00     0.049 A 
HETATM    9  N1  UNL     1      22.730   1.175  52.586  1.00  0.00    -0.246 NA
HETATM   10  C14 UNL     1      21.655   0.522  53.289  1.00  0.00     0.227 C 
HETATM   11  N2  UNL     1      20.928   0.629  52.226  1.00  0.00    -0.279 NA
HETATM   12  C15 UNL     1      19.565   0.138  52.166  1.00  0.00     0.177 C 
HETATM   13  C16 UNL     1      18.574   1.133  51.746  1.00  0.00    -0.009 C 
HETATM   14  C17 UNL     1      18.308   2.397  51.364  1.00  0.00    -0.021 C 
HETATM   15  C18 UNL     1      19.637   3.069  51.389  1.00  0.00     0.050 C 
HETATM   16  C19 UNL     1      20.223   4.254  51.156  1.00  0.00     0.159 C 
HETATM   17  O4  UNL     1      21.536   3.876  51.468  1.00  0.00    -0.382 OA
HETATM   18  C20 UNL     1      22.410   4.833  52.012  1.00  0.00     0.172 C 
HETATM   19  C21 UNL     1      23.787   4.362  52.319  1.00  0.00     0.062 C 
ENDROOT
BRANCH   1  20
HETATM   20  C5  UNL     1      24.577   4.849  50.035  1.00  0.00     0.202 C 
BRANCH  20  21
HETATM   21  O3  UNL     1      25.599   4.554  49.174  1.00  0.00    -0.385 OA
BRANCH  21  22
HETATM   22  C4  UNL     1      26.438   5.613  48.931  1.00  0.00     0.194 C 
BRANCH  22  23
HETATM   23  C3  UNL     1      27.831   5.213  48.554  1.00  0.00     0.196 C 
BRANCH  23  24
HETATM   24  O2  UNL     1      28.467   6.178  47.795  1.00  0.00    -0.365 OA
BRANCH  24  25
HETATM   25  C2  UNL     1      29.670   6.601  48.296  1.00  0.00     0.337 C 
BRANCH  25  26
HETATM   26  O1  UNL     1      30.346   5.494  48.822  1.00  0.00    -0.372 OA
HETATM   27  C1  UNL     1      31.515   5.938  49.402  1.00  0.00     0.204 C 
ENDBRANCH  25  26
ENDBRANCH  24  25
ENDBRANCH  23  24
ENDBRANCH  22  23
ENDBRANCH  21  22
ENDBRANCH  20  21
ENDBRANCH   1  20
TORSDOF 7
ENDMDL
MODEL 6
REMARK VINA RESULT:      -6.8      3.747      6.952
REMARK  7 active torsions:
REMARK  status: ('A' for Active; 'I' for Inactive)
REMARK    1  A    between atoms: O1_2  and  C2_3 
REMARK    2  A    between atoms: C2_3  and  O2_4 
REMARK    3  A    between atoms: O2_4  and  C3_5 
REMARK    4  A    between atoms: C3_5  and  C4_6 
REMARK    5  A    between atoms: C4_6  and  O3_7 
REMARK    6  A    between atoms: O3_7  and  C5_8 
REMARK    7  A    between atoms: C5_8  and  C6_9 
ROOT
HETATM    1  C6  UNL     1      21.574   0.221  52.701  1.00  0.00    -0.054 C 
HETATM    2  C7  UNL     1      22.794   0.236  53.213  1.00  0.00     0.018 C 
HETATM    3  C8  UNL     1      24.186   0.372  52.802  1.00  0.00    -0.011 A 
HETATM    4  C9  UNL     1      24.941  -0.630  53.255  1.00  0.00     0.013 A 
HETATM    5  C10 UNL     1      26.379  -0.742  52.991  1.00  0.00    -0.003 A 
HETATM    6  C11 UNL     1      26.835   0.262  52.258  1.00  0.00    -0.021 A 
HETATM    7  C12 UNL     1      26.214   1.439  51.669  1.00  0.00     0.087 A 
HETATM    8  C13 UNL     1      24.761   1.430  51.972  1.00  0.00     0.049 A 
HETATM    9  N1  UNL     1      24.063   2.369  51.484  1.00  0.00    -0.246 NA
HETATM   10  C14 UNL     1      24.639   3.407  50.667  1.00  0.00     0.227 C 
HETATM   11  N2  UNL     1      23.999   4.281  51.371  1.00  0.00    -0.279 NA
HETATM   12  C15 UNL     1      24.095   5.706  51.113  1.00  0.00     0.177 C 
HETATM   13  C16 UNL     1      22.809   6.380  50.917  1.00  0.00    -0.009 C 
HETATM   14  C17 UNL     1      21.467   6.294  50.850  1.00  0.00    -0.021 C 
HETATM   15  C18 UNL     1      21.186   4.849  51.082  1.00  0.00     0.050 C 
HETATM   16  C19 UNL     1      20.172   3.974  51.174  1.00  0.00     0.159 C 
HETATM   17  O4  UNL     1      20.939   2.826  51.413  1.00  0.00    -0.382 OA
HETATM   18  C20 UNL     1      20.469   1.585  50.951  1.00  0.00     0.172 C 
HETATM   19  C21 UNL     1      21.334   0.409  51.239  1.00  0.00     0.062 C 
ENDROOT
BRANCH   1  20
HETATM   20  C5  UNL     1      20.295   0.052  53.446  1.00  0.00     0.202 C 
BRANCH  20  21
HETATM   21  O3  UNL     1      20.111  -1.259  53.796  1.00  0.00    -0.385 OA
BRANCH  21  22
HETATM   22  C4  UNL     1      18.818  -1.694  53.643  1.00  0.00     0.194 C 
BRANCH  22  23
HETATM   23  C3  UNL     1      17.990  -0.834  52.738  1.00  0.00     0.196 C 
BRANCH  23  24
HETATM   24  O2  UNL     1      16.723  -1.350  52.538  1.00  0.00    -0.365 OA
BRANCH  24  25
HETATM   25  C2  UNL     1      15.711  -0.428  52.604  1.00  0.00     0.337 C 
BRANCH  25  26
HETATM   26  O1  UNL     1      16.194   0.795  52.125  1.00  0.00    -0.372 OA
HETATM   27  C1  UNL     1      15.197   1.737  52.265  1.00  0.00     0.204 C 
ENDBRANCH  25  26
ENDBRANCH  24  25
ENDBRANCH  23  24
ENDBRANCH  22  23
ENDBRANCH  21  22
ENDBRANCH  20  21
ENDBRANCH   1  20
TORSDOF 7
ENDMDL
MODEL 7
REMARK VINA RESULT:      -6.7      3.671      6.416
REMARK  7 active torsions:
REMARK  status: ('A' for Active; 'I' for Inactive)
REMARK    1  A    between atoms: O1_2  and  C2_3 
REMARK    2  A    between atoms: C2_3  and  O2_4 
REMARK    3  A    between atoms: O2_4  and  C3_5 
REMARK    4  A    between atoms: C3_5  and  C4_6 
REMARK    5  A    between atoms: C4_6  and  O3_7 
REMARK    6  A    between atoms: O3_7  and  C5_8 
REMARK    7  A    between atoms: C5_8  and  C6_9 
ROOT
HETATM    1  C6  UNL     1      23.948   3.125  49.811  1.00  0.00    -0.054 C 
HETATM    2  C7  UNL     1      25.050   3.841  49.966  1.00  0.00     0.018 C 
HETATM    3  C8  UNL     1      25.871   4.813  49.256  1.00  0.00    -0.011 A 
HETATM    4  C9  UNL     1      27.151   4.443  49.202  1.00  0.00     0.013 A 
HETATM    5  C10 UNL     1      28.196   5.237  48.548  1.00  0.00    -0.003 A 
HETATM    6  C11 UNL     1      27.722   6.357  48.024  1.00  0.00    -0.021 A 
HETATM    7  C12 UNL     1      26.397   6.956  47.965  1.00  0.00     0.087 A 
HETATM    8  C13 UNL     1      25.421   6.053  48.626  1.00  0.00     0.049 A 
HETATM    9  N1  UNL     1      24.204   6.411  48.615  1.00  0.00    -0.246 NA
HETATM   10  C14 UNL     1      23.771   7.635  47.991  1.00  0.00     0.227 C 
HETATM   11  N2  UNL     1      23.080   7.901  49.050  1.00  0.00    -0.279 NA
HETATM   12  C15 UNL     1      22.285   9.108  49.175  1.00  0.00     0.177 C 
HETATM   13  C16 UNL     1      20.879   8.882  49.517  1.00  0.00    -0.009 C 
HETATM   14  C17 UNL     1      19.889   8.009  49.786  1.00  0.00    -0.021 C 
HETATM   15  C18 UNL     1      20.546   6.676  49.679  1.00  0.00     0.050 C 
HETATM   16  C19 UNL     1      20.290   5.362  49.793  1.00  0.00     0.159 C 
HETATM   17  O4  UNL     1      21.578   4.896  49.498  1.00  0.00    -0.382 OA
HETATM   18  C20 UNL     1      21.722   3.654  48.856  1.00  0.00     0.172 C 
HETATM   19  C21 UNL     1      23.118   3.222  48.572  1.00  0.00     0.062 C 
ENDROOT
BRANCH   1  20
HETATM   20  C5  UNL     1      23.354   2.173  50.791  1.00  0.00     0.202 C 
BRANCH  20  21
HETATM   21  O3  UNL     1      23.533   2.625  52.071  1.00  0.00    -0.385 OA
BRANCH  21  22
HETATM   22  C4  UNL     1      23.866   1.637  52.963  1.00  0.00     0.194 C 
BRANCH  22  23
HETATM   23  C3  UNL     1      25.341   1.454  53.145  1.00  0.00     0.196 C 
BRANCH  23  24
HETATM   24  O2  UNL     1      25.663   0.182  53.582  1.00  0.00    -0.365 OA
BRANCH  24  25
HETATM   25  C2  UNL     1      26.239   0.131  54.825  1.00  0.00     0.337 C 
BRANCH  25  26
HETATM   26  O1  UNL     1      27.380   0.941  54.818  1.00  0.00    -0.372 OA
HETATM   27  C1  UNL     1      28.490   0.124  54.814  1.00  0.00     0.204 C 
ENDBRANCH  25  26
ENDBRANCH  24  25
ENDBRANCH  23  24
ENDBRANCH  22  23
ENDBRANCH  21  22
ENDBRANCH  20  21
ENDBRANCH   1  20
TORSDOF 7
ENDMDL
MODEL 8
REMARK VINA RESULT:      -6.7      3.327      5.913
REMARK  7 active torsions:
REMARK  status: ('A' for Active; 'I' for Inactive)
REMARK    1  A    between atoms: O1_2  and  C2_3 
REMARK    2  A    between atoms: C2_3  and  O2_4 
REMARK    3  A    between atoms: O2_4  and  C3_5 
REMARK    4  A    between atoms: C3_5  and  C4_6 
REMARK    5  A    between atoms: C4_6  and  O3_7 
REMARK    6  A    between atoms: O3_7  and  C5_8 
REMARK    7  A    between atoms: C5_8  and  C6_9 
ROOT
HETATM    1  C6  UNL     1      24.444   3.851  51.159  1.00  0.00    -0.054 C 
HETATM    2  C7  UNL     1      24.930   2.623  51.081  1.00  0.00     0.018 C 
HETATM    3  C8  UNL     1      25.066   1.413  51.883  1.00  0.00    -0.011 A 
HETATM    4  C9  UNL     1      26.328   0.982  51.927  1.00  0.00     0.013 A 
HETATM    5  C10 UNL     1      26.748  -0.215  52.662  1.00  0.00    -0.003 A 
HETATM    6  C11 UNL     1      25.735  -0.815  53.267  1.00  0.00    -0.021 A 
HETATM    7  C12 UNL     1      24.309  -0.536  53.353  1.00  0.00     0.087 A 
HETATM    8  C13 UNL     1      24.007   0.710  52.604  1.00  0.00     0.049 A 
HETATM    9  N1  UNL     1      22.807   1.119  52.624  1.00  0.00    -0.246 NA
HETATM   10  C14 UNL     1      21.770   0.419  53.340  1.00  0.00     0.227 C 
HETATM   11  N2  UNL     1      21.017   0.519  52.294  1.00  0.00    -0.279 NA
HETATM   12  C15 UNL     1      19.670  -0.017  52.255  1.00  0.00     0.177 C 
HETATM   13  C16 UNL     1      18.637   0.950  51.872  1.00  0.00    -0.009 C 
HETATM   14  C17 UNL     1      18.321   2.210  51.517  1.00  0.00    -0.021 C 
HETATM   15  C18 UNL     1      19.627   2.926  51.524  1.00  0.00     0.050 C 
HETATM   16  C19 UNL     1      20.168   4.134  51.299  1.00  0.00     0.159 C 
HETATM   17  O4  UNL     1      21.499   3.796  51.576  1.00  0.00    -0.382 OA
HETATM   18  C20 UNL     1      22.352   4.773  52.117  1.00  0.00     0.172 C 
HETATM   19  C21 UNL     1      23.751   4.344  52.387  1.00  0.00     0.062 C 
ENDROOT
BRANCH   1  20
HETATM   20  C5  UNL     1      24.473   4.893  50.094  1.00  0.00     0.202 C 
BRANCH  20  21
HETATM   21  O3  UNL     1      25.674   5.551  50.097  1.00  0.00    -0.385 OA
BRANCH  21  22
HETATM   22  C4  UNL     1      26.447   5.291  48.994  1.00  0.00     0.194 C 
BRANCH  22  23
HETATM   23  C3  UNL     1      27.237   6.469  48.513  1.00  0.00     0.196 C 
BRANCH  23  24
HETATM   24  O2  UNL     1      27.103   7.566  49.344  1.00  0.00    -0.365 OA
BRANCH  24  25
HETATM   25  C2  UNL     1      27.530   8.751  48.803  1.00  0.00     0.337 C 
BRANCH  25  26
HETATM   26  O1  UNL     1      28.290   9.428  49.763  1.00  0.00    -0.372 OA
HETATM   27  C1  UNL     1      29.606   9.426  49.353  1.00  0.00     0.204 C 
ENDBRANCH  25  26
ENDBRANCH  24  25
ENDBRANCH  23  24
ENDBRANCH  22  23
ENDBRANCH  21  22
ENDBRANCH  20  21
ENDBRANCH   1  20
TORSDOF 7
ENDMDL
MODEL 9
REMARK VINA RESULT:      -6.7      1.691      2.583
REMARK  7 active torsions:
REMARK  status: ('A' for Active; 'I' for Inactive)
REMARK    1  A    between atoms: O1_2  and  C2_3 
REMARK    2  A    between atoms: C2_3  and  O2_4 
REMARK    3  A    between atoms: O2_4  and  C3_5 
REMARK    4  A    between atoms: C3_5  and  C4_6 
REMARK    5  A    between atoms: C4_6  and  O3_7 
REMARK    6  A    between atoms: O3_7  and  C5_8 
REMARK    7  A    between atoms: C5_8  and  C6_9 
ROOT
HETATM    1  C6  UNL     1      23.405   1.568  52.292  1.00  0.00    -0.054 C 
HETATM    2  C7  UNL     1      22.505   0.604  52.188  1.00  0.00     0.018 C 
HETATM    3  C8  UNL     1      21.060   0.410  52.174  1.00  0.00    -0.011 A 
HETATM    4  C9  UNL     1      20.669  -0.501  53.067  1.00  0.00     0.013 A 
HETATM    5  C10 UNL     1      19.269  -0.892  53.262  1.00  0.00    -0.003 A 
HETATM    6  C11 UNL     1      18.448  -0.242  52.453  1.00  0.00    -0.021 A 
HETATM    7  C12 UNL     1      18.643   0.767  51.423  1.00  0.00     0.087 A 
HETATM    8  C13 UNL     1      20.086   1.107  51.336  1.00  0.00     0.049 A 
HETATM    9  N1  UNL     1      20.417   2.014  50.514  1.00  0.00    -0.246 NA
HETATM   10  C14 UNL     1      19.449   2.695  49.693  1.00  0.00     0.227 C 
HETATM   11  N2  UNL     1      20.219   2.506  48.672  1.00  0.00    -0.279 NA
HETATM   12  C15 UNL     1      19.870   2.968  47.342  1.00  0.00     0.177 C 
HETATM   13  C16 UNL     1      20.883   3.811  46.702  1.00  0.00    -0.009 C 
HETATM   14  C17 UNL     1      22.083   4.418  46.774  1.00  0.00    -0.021 C 
HETATM   15  C18 UNL     1      22.591   4.054  48.126  1.00  0.00     0.050 C 
HETATM   16  C19 UNL     1      23.645   4.230  48.939  1.00  0.00     0.159 C 
HETATM   17  O4  UNL     1      23.172   3.476  50.022  1.00  0.00    -0.382 OA
HETATM   18  C20 UNL     1      23.548   3.846  51.325  1.00  0.00     0.172 C 
HETATM   19  C21 UNL     1      23.009   3.002  52.426  1.00  0.00     0.062 C 
ENDROOT
BRANCH   1  20
HETATM   20  C5  UNL     1      24.887   1.413  52.268  1.00  0.00     0.202 C 
BRANCH  20  21
HETATM   21  O3  UNL     1      25.411   1.602  53.518  1.00  0.00    -0.385 OA
BRANCH  21  22
HETATM   22  C4  UNL     1      25.630   0.435  54.206  1.00  0.00     0.194 C 
BRANCH  22  23
HETATM   23  C3  UNL     1      26.197  -0.669  53.366  1.00  0.00     0.196 C 
BRANCH  23  24
HETATM   24  O2  UNL     1      27.515  -0.944  53.679  1.00  0.00    -0.365 OA
BRANCH  24  25
HETATM   25  C2  UNL     1      28.070  -0.105  54.611  1.00  0.00     0.337 C 
BRANCH  25  26
HETATM   26  O1  UNL     1      29.460  -0.118  54.447  1.00  0.00    -0.372 OA
HETATM   27  C1  UNL     1      29.774  -1.061  53.492  1.00  0.00     0.204 C 
ENDBRANCH  25  26
ENDBRANCH  24  25
ENDBRANCH  23  24
ENDBRANCH  22  23
ENDBRANCH  21  22
ENDBRANCH  20  21
ENDBRANCH   1  20
TORSDOF 7
ENDMDL
