MODEL 1
REMARK VINA RESULT:      -7.4      0.000      0.000
REMARK  6 active torsions:
REMARK  status: ('A' for Active; 'I' for Inactive)
REMARK    1  A    between atoms: N1_1  and  C1_2 
REMARK    2  A    between atoms: N2_3  and  C2_4 
REMARK    3  A    between atoms: C2_4  and  C3_5 
REMARK    4  A    between atoms: C4_6  and  N3_7 
REMARK    5  A    between atoms: N3_7  and  C5_8 
REMARK    6  A    between atoms: C13_17  and  N4_18 
ROOT
HETATM    1  C3  UNL     1      22.727   0.929  53.042  1.00  0.00     0.033 A 
HETATM    2  C4  UNL     1      23.809   0.232  53.321  1.00  0.00     0.044 A 
HETATM    3  C11 UNL     1      23.785  -0.856  54.280  1.00  0.00     0.028 A 
HETATM    4  C12 UNL     1      22.700  -1.219  54.932  1.00  0.00     0.018 A 
HETATM    5  C13 UNL     1      21.388  -0.543  54.744  1.00  0.00     0.314 A 
HETATM    6  C14 UNL     1      21.512   0.576  53.758  1.00  0.00     0.196 A 
HETATM    7  O1  UNL     1      20.378   1.116  53.695  1.00  0.00    -0.290 OA
ENDROOT
BRANCH   2   8
HETATM    8  N3  UNL     1      24.984   0.597  52.631  1.00  0.00    -0.356 N 
HETATM    9  H6  UNL     1      25.065   0.935  51.648  1.00  0.00     0.166 HD
BRANCH   8  10
HETATM   10  C5  UNL     1      26.339   0.641  52.955  1.00  0.00     0.033 A 
HETATM   11  C6  UNL     1      26.738   1.954  53.164  1.00  0.00     0.029 A 
HETATM   12  C7  UNL     1      28.057   2.280  53.496  1.00  0.00     0.004 A 
HETATM   13  C8  UNL     1      28.969   1.225  53.611  1.00  0.00     0.019 A 
HETATM   14  C9  UNL     1      28.607  -0.094  53.410  1.00  0.00     0.013 A 
HETATM   15 BR1  UNL     1      29.818  -1.531  53.556  1.00  0.00    -0.051 Br
HETATM   16  C10 UNL     1      27.289  -0.336  53.086  1.00  0.00     0.048 A 
ENDBRANCH   8  10
ENDBRANCH   2   8
BRANCH   1  17
HETATM   17  C2  UNL     1      22.444   2.060  52.130  1.00  0.00     0.149 C 
BRANCH  17  18
HETATM   18  N2  UNL     1      23.340   3.176  52.390  1.00  0.00    -0.411 NA
HETATM   19  C1  UNL     1      22.954   4.402  52.393  1.00  0.00     0.554 C 
BRANCH  19  20
HETATM   20  N1  UNL     1      23.803   5.522  52.643  1.00  0.00     0.107 NA
HETATM   21  H1  UNL     1      24.748   5.350  53.057  1.00  0.00     0.315 HD
HETATM   22  H2  UNL     1      24.746   5.269  53.063  1.00  0.00     0.315 HD
ENDBRANCH  19  20
ENDBRANCH  17  18
ENDBRANCH   1  17
BRANCH   5  23
HETATM   23  N4  UNL     1      20.375  -1.434  54.270  1.00  0.00     0.094 N 
HETATM   24  H14 UNL     1      20.365  -2.369  54.771  1.00  0.00     0.314 HD
HETATM   25  H15 UNL     1      19.425  -1.015  54.251  1.00  0.00     0.314 HD
ENDBRANCH   5  23
TORSDOF 6
ENDMDL
MODEL 2
REMARK VINA RESULT:      -7.0      3.355      5.741
REMARK  6 active torsions:
REMARK  status: ('A' for Active; 'I' for Inactive)
REMARK    1  A    between atoms: N1_1  and  C1_2 
REMARK    2  A    between atoms: N2_3  and  C2_4 
REMARK    3  A    between atoms: C2_4  and  C3_5 
REMARK    4  A    between atoms: C4_6  and  N3_7 
REMARK    5  A    between atoms: N3_7  and  C5_8 
REMARK    6  A    between atoms: C13_17  and  N4_18 
ROOT
HETATM    1  C3  UNL     1      25.900   1.487  53.244  1.00  0.00     0.033 A 
HETATM    2  C4  UNL     1      25.496   0.351  52.716  1.00  0.00     0.044 A 
HETATM    3  C11 UNL     1      26.387  -0.786  52.586  1.00  0.00     0.028 A 
HETATM    4  C12 UNL     1      27.645  -0.765  52.977  1.00  0.00     0.018 A 
HETATM    5  C13 UNL     1      28.272   0.435  53.595  1.00  0.00     0.314 A 
HETATM    6  C14 UNL     1      27.289   1.561  53.668  1.00  0.00     0.196 A 
HETATM    7  O1  UNL     1      27.911   2.539  54.155  1.00  0.00    -0.290 OA
ENDROOT
BRANCH   2   8
HETATM    8  N3  UNL     1      24.150   0.299  52.295  1.00  0.00    -0.356 N 
HETATM    9  H6  UNL     1      23.763   0.587  51.370  1.00  0.00     0.166 HD
BRANCH   8  10
HETATM   10  C5  UNL     1      22.953  -0.107  52.880  1.00  0.00     0.033 A 
HETATM   11  C6  UNL     1      23.203  -0.728  54.097  1.00  0.00     0.029 A 
HETATM   12  C7  UNL     1      22.170  -1.240  54.890  1.00  0.00     0.004 A 
HETATM   13  C8  UNL     1      20.864  -1.102  54.409  1.00  0.00     0.019 A 
HETATM   14  C9  UNL     1      20.578  -0.489  53.202  1.00  0.00     0.013 A 
HETATM   15 BR1  UNL     1      18.827  -0.296  52.532  1.00  0.00    -0.051 Br
HETATM   16  C10 UNL     1      21.648  -0.011  52.477  1.00  0.00     0.048 A 
ENDBRANCH   8  10
ENDBRANCH   2   8
BRANCH   1  17
HETATM   17  C2  UNL     1      25.240   2.786  53.511  1.00  0.00     0.149 C 
BRANCH  17  18
HETATM   18  N2  UNL     1      24.470   3.224  52.358  1.00  0.00    -0.411 NA
HETATM   19  C1  UNL     1      23.344   3.837  52.456  1.00  0.00     0.554 C 
BRANCH  19  20
HETATM   20  N1  UNL     1      22.560   4.281  51.350  1.00  0.00     0.107 NA
HETATM   21  H1  UNL     1      21.952   5.123  51.475  1.00  0.00     0.315 HD
HETATM   22  H2  UNL     1      21.969   5.142  51.553  1.00  0.00     0.315 HD
ENDBRANCH  19  20
ENDBRANCH  17  18
ENDBRANCH   1  17
BRANCH   5  23
HETATM   23  N4  UNL     1      28.750   0.184  54.919  1.00  0.00     0.094 N 
HETATM   24  H14 UNL     1      28.396   0.880  55.636  1.00  0.00     0.314 HD
HETATM   25  H15 UNL     1      28.596  -0.791  55.241  1.00  0.00     0.314 HD
ENDBRANCH   5  23
TORSDOF 6
ENDMDL
MODEL 3
REMARK VINA RESULT:      -7.0      3.359      4.586
REMARK  6 active torsions:
REMARK  status: ('A' for Active; 'I' for Inactive)
REMARK    1  A    between atoms: N1_1  and  C1_2 
REMARK    2  A    between atoms: N2_3  and  C2_4 
REMARK    3  A    between atoms: C2_4  and  C3_5 
REMARK    4  A    between atoms: C4_6  and  N3_7 
REMARK    5  A    between atoms: N3_7  and  C5_8 
REMARK    6  A    between atoms: C13_17  and  N4_18 
ROOT
HETATM    1  C3  UNL     1      24.356   0.178  53.479  1.00  0.00     0.033 A 
HETATM    2  C4  UNL     1      23.992   0.814  52.385  1.00  0.00     0.044 A 
HETATM    3  C11 UNL     1      22.616   0.809  51.926  1.00  0.00     0.028 A 
HETATM    4  C12 UNL     1      21.647   0.179  52.557  1.00  0.00     0.018 A 
HETATM    5  C13 UNL     1      21.875  -0.592  53.809  1.00  0.00     0.314 A 
HETATM    6  C14 UNL     1      23.320  -0.552  54.194  1.00  0.00     0.196 A 
HETATM    7  O1  UNL     1      23.428  -1.260  55.227  1.00  0.00    -0.290 OA
ENDROOT
BRANCH   2   8
HETATM    8  N3  UNL     1      25.011   1.503  51.694  1.00  0.00    -0.356 N 
HETATM    9  H6  UNL     1      25.970   1.160  51.468  1.00  0.00     0.166 HD
BRANCH   8  10
HETATM   10  C5  UNL     1      25.121   2.764  51.111  1.00  0.00     0.033 A 
HETATM   11  C6  UNL     1      26.203   2.796  50.242  1.00  0.00     0.029 A 
HETATM   12  C7  UNL     1      26.544   3.951  49.530  1.00  0.00     0.004 A 
HETATM   13  C8  UNL     1      25.747   5.083  49.726  1.00  0.00     0.019 A 
HETATM   14  C9  UNL     1      24.661   5.088  50.583  1.00  0.00     0.013 A 
HETATM   15 BR1  UNL     1      23.575   6.602  50.866  1.00  0.00    -0.051 Br
HETATM   16  C10 UNL     1      24.389   3.913  51.250  1.00  0.00     0.048 A 
ENDBRANCH   8  10
ENDBRANCH   2   8
BRANCH   1  17
HETATM   17  C2  UNL     1      25.646   0.009  54.187  1.00  0.00     0.149 C 
BRANCH  17  18
HETATM   18  N2  UNL     1      26.342   1.280  54.308  1.00  0.00    -0.411 NA
HETATM   19  C1  UNL     1      27.558   1.455  53.930  1.00  0.00     0.554 C 
BRANCH  19  20
HETATM   20  N1  UNL     1      28.274   2.684  54.033  1.00  0.00     0.107 NA
HETATM   21  H1  UNL     1      28.576   3.162  53.153  1.00  0.00     0.315 HD
HETATM   22  H2  UNL     1      28.547   3.110  53.097  1.00  0.00     0.315 HD
ENDBRANCH  19  20
ENDBRANCH  17  18
ENDBRANCH   1  17
BRANCH   5  23
HETATM   23  N4  UNL     1      21.113  -0.088  54.910  1.00  0.00     0.094 N 
HETATM   24  H14 UNL     1      20.870   0.941  54.820  1.00  0.00     0.314 HD
HETATM   25  H15 UNL     1      20.269  -0.650  55.126  1.00  0.00     0.314 HD
ENDBRANCH   5  23
TORSDOF 6
ENDMDL
MODEL 4
REMARK VINA RESULT:      -7.0      3.562      6.120
REMARK  6 active torsions:
REMARK  status: ('A' for Active; 'I' for Inactive)
REMARK    1  A    between atoms: N1_1  and  C1_2 
REMARK    2  A    between atoms: N2_3  and  C2_4 
REMARK    3  A    between atoms: C2_4  and  C3_5 
REMARK    4  A    between atoms: C4_6  and  N3_7 
REMARK    5  A    between atoms: N3_7  and  C5_8 
REMARK    6  A    between atoms: C13_17  and  N4_18 
ROOT
HETATM    1  C3  UNL     1      26.725   0.495  53.334  1.00  0.00     0.033 A 
HETATM    2  C4  UNL     1      26.736   1.811  53.281  1.00  0.00     0.044 A 
HETATM    3  C11 UNL     1      27.925   2.574  53.611  1.00  0.00     0.028 A 
HETATM    4  C12 UNL     1      29.059   2.018  53.983  1.00  0.00     0.018 A 
HETATM    5  C13 UNL     1      29.229   0.545  54.099  1.00  0.00     0.314 A 
HETATM    6  C14 UNL     1      27.951  -0.159  53.764  1.00  0.00     0.196 A 
HETATM    7  O1  UNL     1      28.171  -1.385  53.931  1.00  0.00    -0.290 OA
ENDROOT
BRANCH   2   8
HETATM    8  N3  UNL     1      25.535   2.432  52.879  1.00  0.00    -0.356 N 
HETATM    9  H6  UNL     1      24.870   2.973  53.473  1.00  0.00     0.166 HD
BRANCH   8  10
HETATM   10  C5  UNL     1      24.847   2.549  51.674  1.00  0.00     0.033 A 
HETATM   11  C6  UNL     1      25.532   3.396  50.813  1.00  0.00     0.029 A 
HETATM   12  C7  UNL     1      25.052   3.693  49.533  1.00  0.00     0.004 A 
HETATM   13  C8  UNL     1      23.845   3.101  49.147  1.00  0.00     0.019 A 
HETATM   14  C9  UNL     1      23.135   2.253  49.978  1.00  0.00     0.013 A 
HETATM   15 BR1  UNL     1      21.506   1.446  49.482  1.00  0.00    -0.051 Br
HETATM   16  C10 UNL     1      23.672   2.008  51.224  1.00  0.00     0.048 A 
ENDBRANCH   8  10
ENDBRANCH   2   8
BRANCH   1  17
HETATM   17  C2  UNL     1      25.697  -0.533  53.057  1.00  0.00     0.149 C 
BRANCH  17  18
HETATM   18  N2  UNL     1      24.590  -0.428  53.994  1.00  0.00    -0.411 NA
HETATM   19  C1  UNL     1      23.376  -0.716  53.685  1.00  0.00     0.554 C 
BRANCH  19  20
HETATM   20  N1  UNL     1      22.265  -0.624  54.575  1.00  0.00     0.107 NA
HETATM   21  H1  UNL     1      22.145   0.250  55.136  1.00  0.00     0.315 HD
HETATM   22  H2  UNL     1      22.209   0.293  55.110  1.00  0.00     0.315 HD
ENDBRANCH  19  20
ENDBRANCH  17  18
ENDBRANCH   1  17
BRANCH   5  23
HETATM   23  N4  UNL     1      30.248   0.040  53.232  1.00  0.00     0.094 N 
HETATM   24  H14 UNL     1      30.592  -0.927  53.501  1.00  0.00     0.314 HD
HETATM   25  H15 UNL     1      29.996   0.077  52.226  1.00  0.00     0.314 HD
ENDBRANCH   5  23
TORSDOF 6
ENDMDL
MODEL 5
REMARK VINA RESULT:      -6.9      3.314      4.477
REMARK  6 active torsions:
REMARK  status: ('A' for Active; 'I' for Inactive)
REMARK    1  A    between atoms: N1_1  and  C1_2 
REMARK    2  A    between atoms: N2_3  and  C2_4 
REMARK    3  A    between atoms: C2_4  and  C3_5 
REMARK    4  A    between atoms: C4_6  and  N3_7 
REMARK    5  A    between atoms: N3_7  and  C5_8 
REMARK    6  A    between atoms: C13_17  and  N4_18 
ROOT
HETATM    1  C3  UNL     1      24.985   3.667  50.757  1.00  0.00     0.033 A 
HETATM    2  C4  UNL     1      24.946   2.887  51.817  1.00  0.00     0.044 A 
HETATM    3  C11 UNL     1      24.215   3.264  53.012  1.00  0.00     0.028 A 
HETATM    4  C12 UNL     1      23.550   4.396  53.123  1.00  0.00     0.018 A 
HETATM    5  C13 UNL     1      23.486   5.399  52.025  1.00  0.00     0.314 A 
HETATM    6  C14 UNL     1      24.284   4.937  50.846  1.00  0.00     0.196 A 
HETATM    7  O1  UNL     1      24.212   5.857  49.992  1.00  0.00    -0.290 OA
ENDROOT
BRANCH   2   8
HETATM    8  N3  UNL     1      25.645   1.665  51.722  1.00  0.00    -0.356 N 
HETATM    9  H6  UNL     1      25.423   0.852  51.106  1.00  0.00     0.166 HD
BRANCH   8  10
HETATM   10  C5  UNL     1      26.772   1.128  52.341  1.00  0.00     0.033 A 
HETATM   11  C6  UNL     1      27.531   2.141  52.912  1.00  0.00     0.029 A 
HETATM   12  C7  UNL     1      28.724   1.874  53.592  1.00  0.00     0.004 A 
HETATM   13  C8  UNL     1      29.129   0.538  53.677  1.00  0.00     0.019 A 
HETATM   14  C9  UNL     1      28.399  -0.496  53.120  1.00  0.00     0.013 A 
HETATM   15 BR1  UNL     1      28.927  -2.303  53.217  1.00  0.00    -0.051 Br
HETATM   16  C10 UNL     1      27.235  -0.154  52.466  1.00  0.00     0.048 A 
ENDBRANCH   8  10
ENDBRANCH   2   8
BRANCH   1  17
HETATM   17  C2  UNL     1      25.623   3.555  49.425  1.00  0.00     0.149 C 
BRANCH  17  18
HETATM   18  N2  UNL     1      27.029   3.918  49.490  1.00  0.00    -0.411 NA
HETATM   19  C1  UNL     1      27.545   4.864  48.789  1.00  0.00     0.554 C 
BRANCH  19  20
HETATM   20  N1  UNL     1      28.919   5.248  48.825  1.00  0.00     0.107 NA
HETATM   21  H1  UNL     1      29.512   4.911  49.618  1.00  0.00     0.315 HD
HETATM   22  H2  UNL     1      29.457   4.867  49.660  1.00  0.00     0.315 HD
ENDBRANCH  19  20
ENDBRANCH  17  18
ENDBRANCH   1  17
BRANCH   5  23
HETATM   23  N4  UNL     1      22.148   5.641  51.581  1.00  0.00     0.094 N 
HETATM   24  H14 UNL     1      22.066   5.765  50.531  1.00  0.00     0.314 HD
HETATM   25  H15 UNL     1      21.460   4.944  51.926  1.00  0.00     0.314 HD
ENDBRANCH   5  23
TORSDOF 6
ENDMDL
MODEL 6
REMARK VINA RESULT:      -6.6      3.401      5.885
REMARK  6 active torsions:
REMARK  status: ('A' for Active; 'I' for Inactive)
REMARK    1  A    between atoms: N1_1  and  C1_2 
REMARK    2  A    between atoms: N2_3  and  C2_4 
REMARK    3  A    between atoms: C2_4  and  C3_5 
REMARK    4  A    between atoms: C4_6  and  N3_7 
REMARK    5  A    between atoms: N3_7  and  C5_8 
REMARK    6  A    between atoms: C13_17  and  N4_18 
ROOT
HETATM    1  C3  UNL     1      23.786   4.962  51.117  1.00  0.00     0.033 A 
HETATM    2  C4  UNL     1      24.336   4.008  50.396  1.00  0.00     0.044 A 
HETATM    3  C11 UNL     1      25.363   4.295  49.412  1.00  0.00     0.028 A 
HETATM    4  C12 UNL     1      25.811   5.510  49.172  1.00  0.00     0.018 A 
HETATM    5  C13 UNL     1      25.304   6.709  49.892  1.00  0.00     0.314 A 
HETATM    6  C14 UNL     1      24.235   6.322  50.866  1.00  0.00     0.196 A 
HETATM    7  O1  UNL     1      23.835   7.391  51.391  1.00  0.00    -0.290 OA
ENDROOT
BRANCH   2   8
HETATM    8  N3  UNL     1      23.878   2.696  50.639  1.00  0.00    -0.356 N 
HETATM    9  H6  UNL     1      23.175   2.156  50.088  1.00  0.00     0.166 HD
BRANCH   8  10
HETATM   10  C5  UNL     1      24.152   1.722  51.597  1.00  0.00     0.033 A 
HETATM   11  C6  UNL     1      25.521   1.502  51.677  1.00  0.00     0.029 A 
HETATM   12  C7  UNL     1      26.067   0.564  52.560  1.00  0.00     0.004 A 
HETATM   13  C8  UNL     1      25.176  -0.151  53.367  1.00  0.00     0.019 A 
HETATM   14  C9  UNL     1      23.808   0.042  53.315  1.00  0.00     0.013 A 
HETATM   15 BR1  UNL     1      22.589  -0.913  54.389  1.00  0.00    -0.051 Br
HETATM   16  C10 UNL     1      23.345   0.983  52.420  1.00  0.00     0.048 A 
ENDBRANCH   8  10
ENDBRANCH   2   8
BRANCH   1  17
HETATM   17  C2  UNL     1      22.749   4.980  52.174  1.00  0.00     0.149 C 
BRANCH  17  18
HETATM   18  N2  UNL     1      21.493   4.438  51.679  1.00  0.00    -0.411 NA
HETATM   19  C1  UNL     1      20.726   3.684  52.384  1.00  0.00     0.554 C 
BRANCH  19  20
HETATM   20  N1  UNL     1      19.489   3.134  51.934  1.00  0.00     0.107 NA
HETATM   21  H1  UNL     1      18.990   3.604  51.144  1.00  0.00     0.315 HD
HETATM   22  H2  UNL     1      19.042   3.666  51.129  1.00  0.00     0.315 HD
ENDBRANCH  19  20
ENDBRANCH  17  18
ENDBRANCH   1  17
BRANCH   5  23
HETATM   23  N4  UNL     1      26.331   7.390  50.616  1.00  0.00     0.094 N 
HETATM   24  H14 UNL     1      27.301   7.250  50.209  1.00  0.00     0.314 HD
HETATM   25  H15 UNL     1      26.137   8.398  50.769  1.00  0.00     0.314 HD
ENDBRANCH   5  23
TORSDOF 6
ENDMDL
MODEL 7
REMARK VINA RESULT:      -6.6      2.940      4.455
REMARK  6 active torsions:
REMARK  status: ('A' for Active; 'I' for Inactive)
REMARK    1  A    between atoms: N1_1  and  C1_2 
REMARK    2  A    between atoms: N2_3  and  C2_4 
REMARK    3  A    between atoms: C2_4  and  C3_5 
REMARK    4  A    between atoms: C4_6  and  N3_7 
REMARK    5  A    between atoms: N3_7  and  C5_8 
REMARK    6  A    between atoms: C13_17  and  N4_18 
ROOT
HETATM    1  C3  UNL     1      23.780   0.295  53.060  1.00  0.00     0.033 A 
HETATM    2  C4  UNL     1      23.297   0.960  52.031  1.00  0.00     0.044 A 
HETATM    3  C11 UNL     1      21.875   0.989  51.746  1.00  0.00     0.028 A 
HETATM    4  C12 UNL     1      20.979   0.363  52.480  1.00  0.00     0.018 A 
HETATM    5  C13 UNL     1      21.344  -0.437  53.681  1.00  0.00     0.314 A 
HETATM    6  C14 UNL     1      22.826  -0.430  53.884  1.00  0.00     0.196 A 
HETATM    7  O1  UNL     1      23.047  -1.161  54.883  1.00  0.00    -0.290 OA
ENDROOT
BRANCH   2   8
HETATM    8  N3  UNL     1      24.236   1.645  51.232  1.00  0.00    -0.356 N 
HETATM    9  H6  UNL     1      24.990   1.231  50.641  1.00  0.00     0.166 HD
BRANCH   8  10
HETATM   10  C5  UNL     1      24.494   2.985  50.952  1.00  0.00     0.033 A 
HETATM   11  C6  UNL     1      23.649   3.799  51.694  1.00  0.00     0.029 A 
HETATM   12  C7  UNL     1      23.695   5.194  51.594  1.00  0.00     0.004 A 
HETATM   13  C8  UNL     1      24.630   5.744  50.712  1.00  0.00     0.019 A 
HETATM   14  C9  UNL     1      25.487   4.964  49.957  1.00  0.00     0.013 A 
HETATM   15 BR1  UNL     1      26.752   5.682  48.759  1.00  0.00    -0.051 Br
HETATM   16  C10 UNL     1      25.382   3.598  50.109  1.00  0.00     0.048 A 
ENDBRANCH   8  10
ENDBRANCH   2   8
BRANCH   1  17
HETATM   17  C2  UNL     1      25.144   0.089  53.599  1.00  0.00     0.149 C 
BRANCH  17  18
HETATM   18  N2  UNL     1      25.803   1.362  53.844  1.00  0.00    -0.411 NA
HETATM   19  C1  UNL     1      27.080   1.511  53.811  1.00  0.00     0.554 C 
BRANCH  19  20
HETATM   20  N1  UNL     1      27.762   2.741  54.046  1.00  0.00     0.107 NA
HETATM   21  H1  UNL     1      27.809   3.443  53.272  1.00  0.00     0.315 HD
HETATM   22  H2  UNL     1      27.768   3.403  53.214  1.00  0.00     0.315 HD
ENDBRANCH  19  20
ENDBRANCH  17  18
ENDBRANCH   1  17
BRANCH   5  23
HETATM   23  N4  UNL     1      20.734   0.058  54.876  1.00  0.00     0.094 N 
HETATM   24  H14 UNL     1      20.517  -0.700  55.586  1.00  0.00     0.314 HD
HETATM   25  H15 UNL     1      21.255   0.840  55.317  1.00  0.00     0.314 HD
ENDBRANCH   5  23
TORSDOF 6
ENDMDL
MODEL 8
REMARK VINA RESULT:      -6.6      3.350      5.841
REMARK  6 active torsions:
REMARK  status: ('A' for Active; 'I' for Inactive)
REMARK    1  A    between atoms: N1_1  and  C1_2 
REMARK    2  A    between atoms: N2_3  and  C2_4 
REMARK    3  A    between atoms: C2_4  and  C3_5 
REMARK    4  A    between atoms: C4_6  and  N3_7 
REMARK    5  A    between atoms: N3_7  and  C5_8 
REMARK    6  A    between atoms: C13_17  and  N4_18 
ROOT
HETATM    1  C3  UNL     1      24.993   0.190  53.420  1.00  0.00     0.033 A 
HETATM    2  C4  UNL     1      25.309   1.145  52.571  1.00  0.00     0.044 A 
HETATM    3  C11 UNL     1      26.571   1.854  52.662  1.00  0.00     0.028 A 
HETATM    4  C12 UNL     1      27.476   1.601  53.585  1.00  0.00     0.018 A 
HETATM    5  C13 UNL     1      27.288   0.555  54.626  1.00  0.00     0.314 A 
HETATM    6  C14 UNL     1      25.954  -0.106  54.470  1.00  0.00     0.196 A 
HETATM    7  O1  UNL     1      25.861  -0.935  55.410  1.00  0.00    -0.290 OA
ENDROOT
BRANCH   2   8
HETATM    8  N3  UNL     1      24.359   1.432  51.568  1.00  0.00    -0.356 N 
HETATM    9  H6  UNL     1      23.936   0.766  50.885  1.00  0.00     0.166 HD
BRANCH   8  10
HETATM   10  C5  UNL     1      23.695   2.581  51.146  1.00  0.00     0.033 A 
HETATM   11  C6  UNL     1      23.092   3.208  52.227  1.00  0.00     0.029 A 
HETATM   12  C7  UNL     1      22.349   4.385  52.077  1.00  0.00     0.004 A 
HETATM   13  C8  UNL     1      22.236   4.912  50.787  1.00  0.00     0.019 A 
HETATM   14  C9  UNL     1      22.824   4.314  49.687  1.00  0.00     0.013 A 
HETATM   15 BR1  UNL     1      22.681   5.003  47.938  1.00  0.00    -0.051 Br
HETATM   16  C10 UNL     1      23.538   3.158  49.914  1.00  0.00     0.048 A 
ENDBRANCH   8  10
ENDBRANCH   2   8
BRANCH   1  17
HETATM   17  C2  UNL     1      23.816  -0.696  53.575  1.00  0.00     0.149 C 
BRANCH  17  18
HETATM   18  N2  UNL     1      22.649   0.060  54.001  1.00  0.00    -0.411 NA
HETATM   19  C1  UNL     1      21.547  -0.493  54.364  1.00  0.00     0.554 C 
BRANCH  19  20
HETATM   20  N1  UNL     1      20.382   0.214  54.787  1.00  0.00     0.107 NA
HETATM   21  H1  UNL     1      19.875  -0.122  55.638  1.00  0.00     0.315 HD
HETATM   22  H2  UNL     1      19.921  -0.186  55.658  1.00  0.00     0.315 HD
ENDBRANCH  19  20
ENDBRANCH  17  18
ENDBRANCH   1  17
BRANCH   5  23
HETATM   23  N4  UNL     1      28.291  -0.462  54.571  1.00  0.00     0.094 N 
HETATM   24  H14 UNL     1      27.978  -1.388  54.984  1.00  0.00     0.314 HD
HETATM   25  H15 UNL     1      28.697  -0.598  53.625  1.00  0.00     0.314 HD
ENDBRANCH   5  23
TORSDOF 6
ENDMDL
MODEL 9
REMARK VINA RESULT:      -6.5      2.406      4.795
REMARK  6 active torsions:
REMARK  status: ('A' for Active; 'I' for Inactive)
REMARK    1  A    between atoms: N1_1  and  C1_2 
REMARK    2  A    between atoms: N2_3  and  C2_4 
REMARK    3  A    between atoms: C2_4  and  C3_5 
REMARK    4  A    between atoms: C4_6  and  N3_7 
REMARK    5  A    between atoms: N3_7  and  C5_8 
REMARK    6  A    between atoms: C13_17  and  N4_18 
ROOT
HETATM    1  C3  UNL     1      24.565   3.579  51.650  1.00  0.00     0.033 A 
HETATM    2  C4  UNL     1      25.594   2.985  51.081  1.00  0.00     0.044 A 
HETATM    3  C11 UNL     1      26.388   3.649  50.065  1.00  0.00     0.028 A 
HETATM    4  C12 UNL     1      26.142   4.873  49.643  1.00  0.00     0.018 A 
HETATM    5  C13 UNL     1      25.020   5.693  50.174  1.00  0.00     0.314 A 
HETATM    6  C14 UNL     1      24.244   4.922  51.196  1.00  0.00     0.196 A 
HETATM    7  O1  UNL     1      23.297   5.667  51.554  1.00  0.00    -0.290 OA
ENDROOT
BRANCH   2   8
HETATM    8  N3  UNL     1      25.883   1.676  51.520  1.00  0.00    -0.356 N 
HETATM    9  H6  UNL     1      25.319   0.813  51.360  1.00  0.00     0.166 HD
BRANCH   8  10
HETATM   10  C5  UNL     1      26.914   1.092  52.253  1.00  0.00     0.033 A 
HETATM   11  C6  UNL     1      27.610   2.065  52.957  1.00  0.00     0.029 A 
HETATM   12  C7  UNL     1      28.703   1.746  53.771  1.00  0.00     0.004 A 
HETATM   13  C8  UNL     1      29.073   0.400  53.850  1.00  0.00     0.019 A 
HETATM   14  C9  UNL     1      28.403  -0.596  53.163  1.00  0.00     0.013 A 
HETATM   15 BR1  UNL     1      28.885  -2.416  53.251  1.00  0.00    -0.051 Br
HETATM   16  C10 UNL     1      27.336  -0.204  52.382  1.00  0.00     0.048 A 
ENDBRANCH   8  10
ENDBRANCH   2   8
BRANCH   1  17
HETATM   17  C2  UNL     1      23.596   3.173  52.693  1.00  0.00     0.149 C 
BRANCH  17  18
HETATM   18  N2  UNL     1      22.911   1.947  52.317  1.00  0.00    -0.411 NA
HETATM   19  C1  UNL     1      22.735   0.962  53.125  1.00  0.00     0.554 C 
BRANCH  19  20
HETATM   20  N1  UNL     1      22.070  -0.255  52.793  1.00  0.00     0.107 NA
HETATM   21  H1  UNL     1      21.687  -0.843  53.569  1.00  0.00     0.315 HD
HETATM   22  H2  UNL     1      21.708  -0.798  53.634  1.00  0.00     0.315 HD
ENDBRANCH  19  20
ENDBRANCH  17  18
ENDBRANCH   1  17
BRANCH   5  23
HETATM   23  N4  UNL     1      25.468   6.905  50.787  1.00  0.00     0.094 N 
HETATM   24  H14 UNL     1      25.980   6.752  51.703  1.00  0.00     0.314 HD
HETATM   25  H15 UNL     1      26.019   7.515  50.152  1.00  0.00     0.314 HD
ENDBRANCH   5  23
TORSDOF 6
ENDMDL
