MODEL 1
REMARK VINA RESULT:      -7.9      0.000      0.000
REMARK  4 active torsions:
REMARK  status: ('A' for Active; 'I' for Inactive)
REMARK    1  A    between atoms: C6_6  and  O1_7 
REMARK    2  A    between atoms: O1_7  and  C7_8 
REMARK    3  A    between atoms: C7_8  and  C8_9 
REMARK    4  A    between atoms: C8_9  and  N1_10 
ROOT
HETATM    1  C1  UNL     1      18.322   2.104  50.521  1.00  0.00     0.063 C 
HETATM    2  C2  UNL     1      19.413   1.710  51.112  1.00  0.00     0.024 C 
HETATM    3  C3  UNL     1      20.576   2.555  51.330  1.00  0.00     0.008 C 
HETATM    4  C4  UNL     1      21.742   3.153  51.625  1.00  0.00     0.047 C 
HETATM    5  C5  UNL     1      23.014   2.755  52.270  1.00  0.00     0.020 C 
HETATM    6  C6  UNL     1      23.953   1.956  52.896  1.00  0.00     0.075 C 
HETATM    7  P1  UNL     1      23.442   0.275  53.160  1.00  0.00     0.001 P 
HETATM    8  C12 UNL     1      24.066  -0.731  54.474  1.00  0.00     0.035 C 
HETATM    9  C13 UNL     1      23.262  -1.431  55.276  1.00  0.00     0.120 C 
HETATM   10  N3  UNL     1      21.834  -1.484  55.233  1.00  0.00    -0.244 NA
HETATM   11  C14 UNL     1      21.167  -0.829  54.395  1.00  0.00     0.149 C 
HETATM   12  N4  UNL     1      19.821  -0.604  54.017  1.00  0.00    -0.174 N 
HETATM   13  C15 UNL     1      19.678  -0.132  52.690  1.00  0.00     0.702 C 
HETATM   14  N5  UNL     1      20.887  -0.108  52.295  1.00  0.00    -0.089 NA
HETATM   15  C16 UNL     1      21.669   0.220  53.420  1.00  0.00     0.235 C 
HETATM   16  N6  UNL     1      19.128   0.369  51.482  1.00  0.00    -0.194 N 
HETATM   17  H15 UNL     1      18.883  -0.720  54.458  1.00  0.00     0.185 HD
HETATM   18  H17 UNL     1      18.650  -0.497  51.261  1.00  0.00     0.184 HD
ENDROOT
BRANCH   6  19
HETATM   19  O1  UNL     1      25.134   2.594  53.207  1.00  0.00    -0.349 OA
BRANCH  19  20
HETATM   20  C7  UNL     1      26.231   2.053  53.871  1.00  0.00     0.196 C 
BRANCH  20  21
HETATM   21  C8  UNL     1      27.427   1.852  52.956  1.00  0.00     0.156 C 
BRANCH  21  22
HETATM   22  N1  UNL     1      28.123   0.611  53.241  1.00  0.00    -0.348 N 
HETATM   23  C9  UNL     1      29.390   0.518  53.660  1.00  0.00     0.111 A 
HETATM   24  C10 UNL     1      29.654  -0.832  53.808  1.00  0.00     0.135 A 
HETATM   25  N2  UNL     1      28.551  -1.517  53.478  1.00  0.00    -0.255 NA
HETATM   26  C11 UNL     1      27.600  -0.622  53.125  1.00  0.00     0.209 A 
ENDBRANCH  21  22
ENDBRANCH  20  21
ENDBRANCH  19  20
ENDBRANCH   6  19
TORSDOF 4
ENDMDL
MODEL 2
REMARK VINA RESULT:      -7.8      3.842      5.747
REMARK  4 active torsions:
REMARK  status: ('A' for Active; 'I' for Inactive)
REMARK    1  A    between atoms: C6_6  and  O1_7 
REMARK    2  A    between atoms: O1_7  and  C7_8 
REMARK    3  A    between atoms: C7_8  and  C8_9 
REMARK    4  A    between atoms: C8_9  and  N1_10 
ROOT
HETATM    1  C1  UNL     1      21.324  -0.553  54.175  1.00  0.00     0.063 C 
HETATM    2  C2  UNL     1      22.549  -0.299  53.815  1.00  0.00     0.024 C 
HETATM    3  C3  UNL     1      22.933   0.789  52.931  1.00  0.00     0.008 C 
HETATM    4  C4  UNL     1      23.495   1.717  52.140  1.00  0.00     0.047 C 
HETATM    5  C5  UNL     1      24.866   2.041  51.680  1.00  0.00     0.020 C 
HETATM    6  C6  UNL     1      26.237   1.945  51.531  1.00  0.00     0.075 C 
HETATM    7  P1  UNL     1      26.986   0.584  52.394  1.00  0.00     0.001 P 
HETATM    8  C12 UNL     1      28.662   0.602  52.958  1.00  0.00     0.035 C 
HETATM    9  C13 UNL     1      28.996   0.252  54.201  1.00  0.00     0.120 C 
HETATM   10  N3  UNL     1      28.115  -0.164  55.247  1.00  0.00    -0.244 NA
HETATM   11  C14 UNL     1      26.872  -0.230  55.085  1.00  0.00     0.149 C 
HETATM   12  N4  UNL     1      25.700  -0.573  55.804  1.00  0.00    -0.174 N 
HETATM   13  C15 UNL     1      24.608  -0.915  54.972  1.00  0.00     0.702 C 
HETATM   14  N5  UNL     1      25.123  -0.806  53.813  1.00  0.00    -0.089 NA
HETATM   15  C16 UNL     1      26.062   0.241  53.891  1.00  0.00     0.235 C 
HETATM   16  N6  UNL     1      23.313  -1.271  54.514  1.00  0.00    -0.194 N 
HETATM   17  H15 UNL     1      25.430  -0.667  56.806  1.00  0.00     0.185 HD
HETATM   18  H17 UNL     1      23.364  -2.211  54.890  1.00  0.00     0.184 HD
ENDROOT
BRANCH   6  19
HETATM   19  O1  UNL     1      26.796   2.918  50.731  1.00  0.00    -0.349 OA
BRANCH  19  20
HETATM   20  C7  UNL     1      26.321   3.372  49.504  1.00  0.00     0.196 C 
BRANCH  20  21
HETATM   21  C8  UNL     1      25.997   4.856  49.516  1.00  0.00     0.156 C 
BRANCH  21  22
HETATM   22  N1  UNL     1      26.991   5.632  48.800  1.00  0.00    -0.348 N 
HETATM   23  C9  UNL     1      26.838   6.899  48.399  1.00  0.00     0.111 A 
HETATM   24  C10 UNL     1      28.014   7.252  47.760  1.00  0.00     0.135 A 
HETATM   25  N2  UNL     1      28.843   6.199  47.790  1.00  0.00    -0.255 NA
HETATM   26  C11 UNL     1      28.208   5.194  48.434  1.00  0.00     0.209 A 
ENDBRANCH  21  22
ENDBRANCH  20  21
ENDBRANCH  19  20
ENDBRANCH   6  19
TORSDOF 4
ENDMDL
MODEL 3
REMARK VINA RESULT:      -7.8      1.804      3.646
REMARK  4 active torsions:
REMARK  status: ('A' for Active; 'I' for Inactive)
REMARK    1  A    between atoms: C6_6  and  O1_7 
REMARK    2  A    between atoms: O1_7  and  C7_8 
REMARK    3  A    between atoms: C7_8  and  C8_9 
REMARK    4  A    between atoms: C8_9  and  N1_10 
ROOT
HETATM    1  C1  UNL     1      17.876  -1.528  53.422  1.00  0.00     0.063 C 
HETATM    2  C2  UNL     1      18.953  -0.845  53.161  1.00  0.00     0.024 C 
HETATM    3  C3  UNL     1      20.263  -1.138  53.720  1.00  0.00     0.008 C 
HETATM    4  C4  UNL     1      21.542  -1.231  54.120  1.00  0.00     0.047 C 
HETATM    5  C5  UNL     1      22.795  -0.480  53.877  1.00  0.00     0.020 C 
HETATM    6  C6  UNL     1      23.647   0.486  53.376  1.00  0.00     0.075 C 
HETATM    7  P1  UNL     1      22.873   1.688  52.321  1.00  0.00     0.001 P 
HETATM    8  C12 UNL     1      23.736   2.552  51.042  1.00  0.00     0.035 C 
HETATM    9  C13 UNL     1      23.256   2.650  49.801  1.00  0.00     0.120 C 
HETATM   10  N3  UNL     1      22.035   2.097  49.303  1.00  0.00    -0.244 NA
HETATM   11  C14 UNL     1      21.265   1.420  50.027  1.00  0.00     0.149 C 
HETATM   12  N4  UNL     1      20.030   0.730  49.949  1.00  0.00    -0.174 N 
HETATM   13  C15 UNL     1      19.409   0.543  51.207  1.00  0.00     0.702 C 
HETATM   14  N5  UNL     1      20.229   1.123  51.988  1.00  0.00    -0.089 NA
HETATM   15  C16 UNL     1      21.511   0.924  51.439  1.00  0.00     0.235 C 
HETATM   16  N6  UNL     1      18.514   0.131  52.228  1.00  0.00    -0.194 N 
HETATM   17  H15 UNL     1      19.431   0.338  49.192  1.00  0.00     0.185 HD
HETATM   18  H17 UNL     1      17.765   0.736  51.910  1.00  0.00     0.184 HD
ENDROOT
BRANCH   6  19
HETATM   19  O1  UNL     1      24.958   0.362  53.783  1.00  0.00    -0.349 OA
BRANCH  19  20
HETATM   20  C7  UNL     1      25.720  -0.802  53.813  1.00  0.00     0.196 C 
BRANCH  20  21
HETATM   21  C8  UNL     1      27.031  -0.662  53.059  1.00  0.00     0.156 C 
BRANCH  21  22
HETATM   22  N1  UNL     1      27.814   0.461  53.539  1.00  0.00    -0.348 N 
HETATM   23  C9  UNL     1      27.907   1.650  52.933  1.00  0.00     0.111 A 
HETATM   24  C10 UNL     1      28.746   2.423  53.717  1.00  0.00     0.135 A 
HETATM   25  N2  UNL     1      29.136   1.690  54.768  1.00  0.00    -0.255 NA
HETATM   26  C11 UNL     1      28.559   0.472  54.658  1.00  0.00     0.209 A 
ENDBRANCH  21  22
ENDBRANCH  20  21
ENDBRANCH  19  20
ENDBRANCH   6  19
TORSDOF 4
ENDMDL
MODEL 4
REMARK VINA RESULT:      -7.8      3.106      5.743
REMARK  4 active torsions:
REMARK  status: ('A' for Active; 'I' for Inactive)
REMARK    1  A    between atoms: C6_6  and  O1_7 
REMARK    2  A    between atoms: O1_7  and  C7_8 
REMARK    3  A    between atoms: C7_8  and  C8_9 
REMARK    4  A    between atoms: C8_9  and  N1_10 
ROOT
HETATM    1  C1  UNL     1      21.415  -0.515  53.968  1.00  0.00     0.063 C 
HETATM    2  C2  UNL     1      22.646  -0.231  53.651  1.00  0.00     0.024 C 
HETATM    3  C3  UNL     1      23.037   0.894  52.818  1.00  0.00     0.008 C 
HETATM    4  C4  UNL     1      23.608   1.858  52.078  1.00  0.00     0.047 C 
HETATM    5  C5  UNL     1      24.986   2.217  51.668  1.00  0.00     0.020 C 
HETATM    6  C6  UNL     1      26.361   2.145  51.553  1.00  0.00     0.075 C 
HETATM    7  P1  UNL     1      27.106   0.763  52.386  1.00  0.00     0.001 P 
HETATM    8  C12 UNL     1      28.766   0.782  52.997  1.00  0.00     0.035 C 
HETATM    9  C13 UNL     1      29.071   0.391  54.235  1.00  0.00     0.120 C 
HETATM   10  N3  UNL     1      28.168  -0.074  55.241  1.00  0.00    -0.244 NA
HETATM   11  C14 UNL     1      26.931  -0.151  55.042  1.00  0.00     0.149 C 
HETATM   12  N4  UNL     1      25.745  -0.536  55.715  1.00  0.00    -0.174 N 
HETATM   13  C15 UNL     1      24.681  -0.862  54.841  1.00  0.00     0.702 C 
HETATM   14  N5  UNL     1      25.225  -0.703  53.702  1.00  0.00    -0.089 NA
HETATM   15  C16 UNL     1      26.147   0.353  53.844  1.00  0.00     0.235 C 
HETATM   16  N6  UNL     1      23.404  -1.218  54.335  1.00  0.00    -0.194 N 
HETATM   17  H15 UNL     1      25.449  -0.671  56.705  1.00  0.00     0.185 HD
HETATM   18  H17 UNL     1      23.459  -2.171  54.678  1.00  0.00     0.184 HD
ENDROOT
BRANCH   6  19
HETATM   19  O1  UNL     1      26.928   3.154  50.806  1.00  0.00    -0.349 OA
BRANCH  19  20
HETATM   20  C7  UNL     1      26.615   3.505  49.496  1.00  0.00     0.196 C 
BRANCH  20  21
HETATM   21  C8  UNL     1      26.164   4.951  49.370  1.00  0.00     0.156 C 
BRANCH  21  22
HETATM   22  N1  UNL     1      24.758   5.108  49.689  1.00  0.00    -0.348 N 
HETATM   23  C9  UNL     1      23.745   4.593  48.984  1.00  0.00     0.111 A 
HETATM   24  C10 UNL     1      22.583   4.981  49.628  1.00  0.00     0.135 A 
HETATM   25  N2  UNL     1      22.918   5.715  50.697  1.00  0.00    -0.255 NA
HETATM   26  C11 UNL     1      24.268   5.795  50.736  1.00  0.00     0.209 A 
ENDBRANCH  21  22
ENDBRANCH  20  21
ENDBRANCH  19  20
ENDBRANCH   6  19
TORSDOF 4
ENDMDL
MODEL 5
REMARK VINA RESULT:      -7.6      3.773      5.902
REMARK  4 active torsions:
REMARK  status: ('A' for Active; 'I' for Inactive)
REMARK    1  A    between atoms: C6_6  and  O1_7 
REMARK    2  A    between atoms: O1_7  and  C7_8 
REMARK    3  A    between atoms: C7_8  and  C8_9 
REMARK    4  A    between atoms: C8_9  and  N1_10 
ROOT
HETATM    1  C1  UNL     1      27.548  -1.265  53.118  1.00  0.00     0.063 C 
HETATM    2  C2  UNL     1      26.627  -0.363  52.935  1.00  0.00     0.024 C 
HETATM    3  C3  UNL     1      26.713   0.707  51.954  1.00  0.00     0.008 C 
HETATM    4  C4  UNL     1      26.594   1.758  51.127  1.00  0.00     0.047 C 
HETATM    5  C5  UNL     1      25.590   2.821  50.888  1.00  0.00     0.020 C 
HETATM    6  C6  UNL     1      24.436   3.566  51.036  1.00  0.00     0.075 C 
HETATM    7  P1  UNL     1      23.344   3.002  52.319  1.00  0.00     0.001 P 
HETATM    8  C12 UNL     1      21.595   3.266  52.287  1.00  0.00     0.035 C 
HETATM    9  C13 UNL     1      20.724   2.282  52.516  1.00  0.00     0.120 C 
HETATM   10  N3  UNL     1      21.024   0.913  52.798  1.00  0.00    -0.244 NA
HETATM   11  C14 UNL     1      22.203   0.485  52.848  1.00  0.00     0.149 C 
HETATM   12  N4  UNL     1      22.911  -0.719  53.084  1.00  0.00    -0.174 N 
HETATM   13  C15 UNL     1      24.254  -0.515  53.481  1.00  0.00     0.702 C 
HETATM   14  N5  UNL     1      24.325   0.755  53.506  1.00  0.00    -0.089 NA
HETATM   15  C16 UNL     1      23.478   1.222  52.481  1.00  0.00     0.235 C 
HETATM   16  N6  UNL     1      25.606  -0.735  53.849  1.00  0.00    -0.194 N 
HETATM   17  H15 UNL     1      22.694  -1.738  53.068  1.00  0.00     0.185 HD
HETATM   18  H17 UNL     1      25.367  -1.142  54.747  1.00  0.00     0.184 HD
ENDROOT
BRANCH   6  19
HETATM   19  O1  UNL     1      24.324   4.629  50.165  1.00  0.00    -0.349 OA
BRANCH  19  20
HETATM   20  C7  UNL     1      25.095   5.787  50.152  1.00  0.00     0.196 C 
BRANCH  20  21
HETATM   21  C8  UNL     1      25.533   6.182  48.752  1.00  0.00     0.156 C 
BRANCH  21  22
HETATM   22  N1  UNL     1      26.957   5.988  48.555  1.00  0.00    -0.348 N 
HETATM   23  C9  UNL     1      27.830   6.951  48.240  1.00  0.00     0.111 A 
HETATM   24  C10 UNL     1      29.068   6.340  48.147  1.00  0.00     0.135 A 
HETATM   25  N2  UNL     1      28.916   5.035  48.406  1.00  0.00    -0.255 NA
HETATM   26  C11 UNL     1      27.606   4.815  48.659  1.00  0.00     0.209 A 
ENDBRANCH  21  22
ENDBRANCH  20  21
ENDBRANCH  19  20
ENDBRANCH   6  19
TORSDOF 4
ENDMDL
MODEL 6
REMARK VINA RESULT:      -7.5      3.475      5.381
REMARK  4 active torsions:
REMARK  status: ('A' for Active; 'I' for Inactive)
REMARK    1  A    between atoms: C6_6  and  O1_7 
REMARK    2  A    between atoms: O1_7  and  C7_8 
REMARK    3  A    between atoms: C7_8  and  C8_9 
REMARK    4  A    between atoms: C8_9  and  N1_10 
ROOT
HETATM    1  C1  UNL     1      27.336   5.470  48.594  1.00  0.00     0.063 C 
HETATM    2  C2  UNL     1      26.385   4.795  49.173  1.00  0.00     0.024 C 
HETATM    3  C3  UNL     1      26.606   3.643  50.031  1.00  0.00     0.008 C 
HETATM    4  C4  UNL     1      26.587   2.572  50.841  1.00  0.00     0.047 C 
HETATM    5  C5  UNL     1      25.547   1.755  51.508  1.00  0.00     0.020 C 
HETATM    6  C6  UNL     1      24.292   1.320  51.890  1.00  0.00     0.075 C 
HETATM    7  P1  UNL     1      22.941   2.249  51.207  1.00  0.00     0.001 P 
HETATM    8  C12 UNL     1      21.369   2.401  52.003  1.00  0.00     0.035 C 
HETATM    9  C13 UNL     1      20.766   3.579  52.166  1.00  0.00     0.120 C 
HETATM   10  N3  UNL     1      21.254   4.861  51.763  1.00  0.00    -0.244 NA
HETATM   11  C14 UNL     1      22.366   5.004  51.197  1.00  0.00     0.149 C 
HETATM   12  N4  UNL     1      23.186   6.025  50.659  1.00  0.00    -0.174 N 
HETATM   13  C15 UNL     1      24.131   5.553  49.718  1.00  0.00     0.702 C 
HETATM   14  N5  UNL     1      23.858   4.311  49.681  1.00  0.00    -0.089 NA
HETATM   15  C16 UNL     1      23.441   3.956  50.979  1.00  0.00     0.235 C 
HETATM   16  N6  UNL     1      25.204   5.486  48.792  1.00  0.00    -0.194 N 
HETATM   17  H15 UNL     1      23.264   7.060  50.756  1.00  0.00     0.185 HD
HETATM   18  H17 UNL     1      24.718   6.025  48.084  1.00  0.00     0.184 HD
ENDROOT
BRANCH   6  19
HETATM   19  O1  UNL     1      24.295   0.231  52.736  1.00  0.00    -0.349 OA
BRANCH  19  20
HETATM   20  C7  UNL     1      25.148   0.008  53.813  1.00  0.00     0.196 C 
BRANCH  20  21
HETATM   21  C8  UNL     1      26.219  -1.025  53.506  1.00  0.00     0.156 C 
BRANCH  21  22
HETATM   22  N1  UNL     1      27.555  -0.489  53.689  1.00  0.00    -0.348 N 
HETATM   23  C9  UNL     1      28.685  -1.083  53.289  1.00  0.00     0.111 A 
HETATM   24  C10 UNL     1      29.719  -0.241  53.657  1.00  0.00     0.135 A 
HETATM   25  N2  UNL     1      29.196   0.832  54.265  1.00  0.00    -0.255 NA
HETATM   26  C11 UNL     1      27.852   0.679  54.286  1.00  0.00     0.209 A 
ENDBRANCH  21  22
ENDBRANCH  20  21
ENDBRANCH  19  20
ENDBRANCH   6  19
TORSDOF 4
ENDMDL
MODEL 7
REMARK VINA RESULT:      -7.5      2.015      6.923
REMARK  4 active torsions:
REMARK  status: ('A' for Active; 'I' for Inactive)
REMARK    1  A    between atoms: C6_6  and  O1_7 
REMARK    2  A    between atoms: O1_7  and  C7_8 
REMARK    3  A    between atoms: C7_8  and  C8_9 
REMARK    4  A    between atoms: C8_9  and  N1_10 
ROOT
HETATM    1  C1  UNL     1      29.341   1.117  53.950  1.00  0.00     0.063 C 
HETATM    2  C2  UNL     1      28.071   1.234  53.685  1.00  0.00     0.024 C 
HETATM    3  C3  UNL     1      27.541   1.803  52.457  1.00  0.00     0.008 C 
HETATM    4  C4  UNL     1      26.851   2.290  51.413  1.00  0.00     0.047 C 
HETATM    5  C5  UNL     1      25.421   2.467  51.066  1.00  0.00     0.020 C 
HETATM    6  C6  UNL     1      24.046   2.433  51.194  1.00  0.00     0.075 C 
HETATM    7  P1  UNL     1      23.457   1.777  52.736  1.00  0.00     0.001 P 
HETATM    8  C12 UNL     1      21.886   0.984  52.915  1.00  0.00     0.035 C 
HETATM    9  C13 UNL     1      21.750  -0.192  53.529  1.00  0.00     0.120 C 
HETATM   10  N3  UNL     1      22.787  -0.988  54.109  1.00  0.00    -0.244 NA
HETATM   11  C14 UNL     1      23.991  -0.636  54.082  1.00  0.00     0.149 C 
HETATM   12  N4  UNL     1      25.263  -1.088  54.511  1.00  0.00    -0.174 N 
HETATM   13  C15 UNL     1      26.222  -0.053  54.622  1.00  0.00     0.702 C 
HETATM   14  N5  UNL     1      25.536   0.969  54.301  1.00  0.00    -0.089 NA
HETATM   15  C16 UNL     1      24.603   0.536  53.337  1.00  0.00     0.235 C 
HETATM   16  N6  UNL     1      27.438   0.653  54.815  1.00  0.00    -0.194 N 
HETATM   17  H15 UNL     1      25.684  -1.998  54.797  1.00  0.00     0.185 HD
HETATM   18  H17 UNL     1      27.459   0.480  55.814  1.00  0.00     0.184 HD
ENDROOT
BRANCH   6  19
HETATM   19  O1  UNL     1      23.356   2.919  50.104  1.00  0.00    -0.349 OA
BRANCH  19  20
HETATM   20  C7  UNL     1      22.398   2.248  49.350  1.00  0.00     0.196 C 
BRANCH  20  21
HETATM   21  C8  UNL     1      21.148   3.080  49.120  1.00  0.00     0.156 C 
BRANCH  21  22
HETATM   22  N1  UNL     1      20.231   3.001  50.241  1.00  0.00    -0.348 N 
HETATM   23  C9  UNL     1      19.321   2.038  50.427  1.00  0.00     0.111 A 
HETATM   24  C10 UNL     1      18.665   2.343  51.607  1.00  0.00     0.135 A 
HETATM   25  N2  UNL     1      19.189   3.472  52.102  1.00  0.00    -0.255 NA
HETATM   26  C11 UNL     1      20.160   3.882  51.255  1.00  0.00     0.209 A 
ENDBRANCH  21  22
ENDBRANCH  20  21
ENDBRANCH  19  20
ENDBRANCH   6  19
TORSDOF 4
ENDMDL
MODEL 8
REMARK VINA RESULT:      -7.4      3.199      6.460
REMARK  4 active torsions:
REMARK  status: ('A' for Active; 'I' for Inactive)
REMARK    1  A    between atoms: C6_6  and  O1_7 
REMARK    2  A    between atoms: O1_7  and  C7_8 
REMARK    3  A    between atoms: C7_8  and  C8_9 
REMARK    4  A    between atoms: C8_9  and  N1_10 
ROOT
HETATM    1  C1  UNL     1      29.346   1.531  53.936  1.00  0.00     0.063 C 
HETATM    2  C2  UNL     1      28.068   1.533  53.687  1.00  0.00     0.024 C 
HETATM    3  C3  UNL     1      27.477   2.019  52.450  1.00  0.00     0.008 C 
HETATM    4  C4  UNL     1      26.735   2.414  51.403  1.00  0.00     0.047 C 
HETATM    5  C5  UNL     1      25.291   2.461  51.073  1.00  0.00     0.020 C 
HETATM    6  C6  UNL     1      23.925   2.315  51.222  1.00  0.00     0.075 C 
HETATM    7  P1  UNL     1      23.413   1.660  52.792  1.00  0.00     0.001 P 
HETATM    8  C12 UNL     1      21.916   0.744  53.017  1.00  0.00     0.035 C 
HETATM    9  C13 UNL     1      21.887  -0.420  53.667  1.00  0.00     0.120 C 
HETATM   10  N3  UNL     1      22.994  -1.108  54.255  1.00  0.00    -0.244 NA
HETATM   11  C14 UNL     1      24.165  -0.658  54.200  1.00  0.00     0.149 C 
HETATM   12  N4  UNL     1      25.476  -0.989  54.622  1.00  0.00    -0.174 N 
HETATM   13  C15 UNL     1      26.345   0.125  54.688  1.00  0.00     0.702 C 
HETATM   14  N5  UNL     1      25.572   1.076  54.348  1.00  0.00    -0.089 NA
HETATM   15  C16 UNL     1      24.667   0.538  53.412  1.00  0.00     0.235 C 
HETATM   16  N6  UNL     1      27.500   0.936  54.843  1.00  0.00    -0.194 N 
HETATM   17  H15 UNL     1      25.975  -1.851  54.929  1.00  0.00     0.185 HD
HETATM   18  H17 UNL     1      27.548   0.796  55.846  1.00  0.00     0.184 HD
ENDROOT
BRANCH   6  19
HETATM   19  O1  UNL     1      23.183   2.709  50.129  1.00  0.00    -0.349 OA
BRANCH  19  20
HETATM   20  C7  UNL     1      23.668   3.178  48.911  1.00  0.00     0.196 C 
BRANCH  20  21
HETATM   21  C8  UNL     1      23.234   4.604  48.620  1.00  0.00     0.156 C 
BRANCH  21  22
HETATM   22  N1  UNL     1      23.895   5.559  49.490  1.00  0.00    -0.348 N 
HETATM   23  C9  UNL     1      23.296   6.267  50.454  1.00  0.00     0.111 A 
HETATM   24  C10 UNL     1      24.280   7.048  51.034  1.00  0.00     0.135 A 
HETATM   25  N2  UNL     1      25.441   6.795  50.415  1.00  0.00    -0.255 NA
HETATM   26  C11 UNL     1      25.203   5.871  49.455  1.00  0.00     0.209 A 
ENDBRANCH  21  22
ENDBRANCH  20  21
ENDBRANCH  19  20
ENDBRANCH   6  19
TORSDOF 4
ENDMDL
MODEL 9
REMARK VINA RESULT:      -7.3      2.531      5.881
REMARK  4 active torsions:
REMARK  status: ('A' for Active; 'I' for Inactive)
REMARK    1  A    between atoms: C6_6  and  O1_7 
REMARK    2  A    between atoms: O1_7  and  C7_8 
REMARK    3  A    between atoms: C7_8  and  C8_9 
REMARK    4  A    between atoms: C8_9  and  N1_10 
ROOT
HETATM    1  C1  UNL     1      21.298  -1.264  54.596  1.00  0.00     0.063 C 
HETATM    2  C2  UNL     1      22.360  -0.678  54.123  1.00  0.00     0.024 C 
HETATM    3  C3  UNL     1      22.340   0.564  53.367  1.00  0.00     0.008 C 
HETATM    4  C4  UNL     1      22.544   1.685  52.657  1.00  0.00     0.047 C 
HETATM    5  C5  UNL     1      23.713   2.386  52.077  1.00  0.00     0.020 C 
HETATM    6  C6  UNL     1      25.028   2.647  51.740  1.00  0.00     0.075 C 
HETATM    7  P1  UNL     1      26.194   1.424  52.289  1.00  0.00     0.001 P 
HETATM    8  C12 UNL     1      27.891   1.789  52.630  1.00  0.00     0.035 C 
HETATM    9  C13 UNL     1      28.491   1.395  53.754  1.00  0.00     0.120 C 
HETATM   10  N3  UNL     1      27.905   0.660  54.832  1.00  0.00    -0.244 NA
HETATM   11  C14 UNL     1      26.700   0.309  54.823  1.00  0.00     0.149 C 
HETATM   12  N4  UNL     1      25.767  -0.390  55.627  1.00  0.00    -0.174 N 
HETATM   13  C15 UNL     1      24.662  -0.895  54.902  1.00  0.00     0.702 C 
HETATM   14  N5  UNL     1      24.947  -0.533  53.716  1.00  0.00    -0.089 NA
HETATM   15  C16 UNL     1      25.624   0.698  53.826  1.00  0.00     0.235 C 
HETATM   16  N6  UNL     1      23.426  -1.505  54.566  1.00  0.00    -0.194 N 
HETATM   17  H15 UNL     1      25.690  -0.661  56.631  1.00  0.00     0.185 HD
HETATM   18  H17 UNL     1      23.748  -2.440  54.790  1.00  0.00     0.184 HD
ENDROOT
BRANCH   6  19
HETATM   19  O1  UNL     1      25.217   3.812  51.028  1.00  0.00    -0.349 OA
BRANCH  19  20
HETATM   20  C7  UNL     1      24.233   4.678  50.560  1.00  0.00     0.196 C 
BRANCH  20  21
HETATM   21  C8  UNL     1      23.904   4.452  49.094  1.00  0.00     0.156 C 
BRANCH  21  22
HETATM   22  N1  UNL     1      22.748   3.593  48.926  1.00  0.00    -0.348 N 
HETATM   23  C9  UNL     1      22.728   2.456  48.220  1.00  0.00     0.111 A 
HETATM   24  C10 UNL     1      21.441   1.958  48.318  1.00  0.00     0.135 A 
HETATM   25  N2  UNL     1      20.719   2.797  49.073  1.00  0.00    -0.255 NA
HETATM   26  C11 UNL     1      21.529   3.812  49.450  1.00  0.00     0.209 A 
ENDBRANCH  21  22
ENDBRANCH  20  21
ENDBRANCH  19  20
ENDBRANCH   6  19
TORSDOF 4
ENDMDL
