MODEL 1
REMARK VINA RESULT:      -7.7      0.000      0.000
REMARK  5 active torsions:
REMARK  status: ('A' for Active; 'I' for Inactive)
REMARK    1  A    between atoms: S1_2  and  C2_4 
REMARK    2  A    between atoms: C5_7  and  N1_8 
REMARK    3  A    between atoms: N1_8  and  C6_9 
REMARK    4  A    between atoms: C11_14  and  C12_15 
REMARK    5  A    between atoms: C12_15  and  C13_16 
ROOT
HETATM    1  C2  UNL     1      25.880   0.049  54.186  1.00  0.00     0.123 A 
HETATM    2  C3  UNL     1      24.775   0.270  53.374  1.00  0.00     0.059 A 
HETATM    3  C4  UNL     1      23.592  -0.317  53.764  1.00  0.00     0.043 A 
HETATM    4  C5  UNL     1      22.513  -0.084  52.943  1.00  0.00     0.142 A 
HETATM    5  N2  UNL     1      21.336  -0.639  53.288  1.00  0.00    -0.224 NA
HETATM    6  C14 UNL     1      21.175  -1.396  54.376  1.00  0.00     0.236 A 
HETATM    7  N3  UNL     1      22.226  -1.624  55.177  1.00  0.00    -0.240 NA
HETATM    8  C15 UNL     1      23.441  -1.102  54.900  1.00  0.00     0.089 A 
HETATM    9  C16 UNL     1      24.582  -1.281  55.664  1.00  0.00     0.150 A 
HETATM   10  N4  UNL     1      25.743  -0.715  55.295  1.00  0.00    -0.249 NA
ENDROOT
BRANCH   4  11
HETATM   11  N1  UNL     1      22.480   0.686  51.752  1.00  0.00    -0.339 N 
HETATM   12  H5  UNL     1      22.700   0.406  50.770  1.00  0.00     0.167 HD
BRANCH  11  13
HETATM   13  C6  UNL     1      22.128   2.042  51.657  1.00  0.00     0.048 A 
HETATM   14  C7  UNL     1      20.879   2.475  51.927  1.00  0.00     0.008 A 
HETATM   15  C8  UNL     1      20.408   3.869  51.858  1.00  0.00     0.056 A 
HETATM   16  C9  UNL     1      21.454   4.841  51.446  1.00  0.00    -0.021 A 
HETATM   17  C10 UNL     1      22.732   4.524  51.153  1.00  0.00     0.018 A 
HETATM   18  C11 UNL     1      22.996   3.124  51.277  1.00  0.00     0.036 A 
BRANCH  18  19
HETATM   19  C12 UNL     1      24.247   2.765  50.989  1.00  0.00    -0.107 C 
BRANCH  19  20
HETATM   20  C13 UNL     1      25.565   2.764  50.812  1.00  0.00     0.112 C 
HETATM   21 BR1  UNL     1      26.332   3.924  49.571  1.00  0.00    -0.055 Br
ENDBRANCH  19  20
ENDBRANCH  18  19
ENDBRANCH  11  13
ENDBRANCH   4  11
BRANCH   1  22
HETATM   22  S1  UNL     1      27.449   0.767  53.759  1.00  0.00     0.064 S 
HETATM   23  C1  UNL     1      28.791   0.001  54.693  1.00  0.00     0.134 C 
HETATM   24  O1  UNL     1      27.387   2.235  54.228  1.00  0.00    -0.252 OA
ENDBRANCH   1  22
TORSDOF 5
ENDMDL
MODEL 2
REMARK VINA RESULT:      -7.6      2.826      4.421
REMARK  5 active torsions:
REMARK  status: ('A' for Active; 'I' for Inactive)
REMARK    1  A    between atoms: S1_2  and  C2_4 
REMARK    2  A    between atoms: C5_7  and  N1_8 
REMARK    3  A    between atoms: N1_8  and  C6_9 
REMARK    4  A    between atoms: C11_14  and  C12_15 
REMARK    5  A    between atoms: C12_15  and  C13_16 
ROOT
HETATM    1  C2  UNL     1      24.341  -0.359  53.874  1.00  0.00     0.123 A 
HETATM    2  C3  UNL     1      24.816   0.549  52.936  1.00  0.00     0.059 A 
HETATM    3  C4  UNL     1      26.075   1.061  53.152  1.00  0.00     0.043 A 
HETATM    4  C5  UNL     1      26.523   1.958  52.209  1.00  0.00     0.142 A 
HETATM    5  N2  UNL     1      27.751   2.482  52.382  1.00  0.00    -0.224 NA
HETATM    6  C14 UNL     1      28.540   2.174  53.414  1.00  0.00     0.236 A 
HETATM    7  N3  UNL     1      28.105   1.299  54.333  1.00  0.00    -0.240 NA
HETATM    8  C15 UNL     1      26.884   0.729  54.231  1.00  0.00     0.089 A 
HETATM    9  C16 UNL     1      26.350  -0.181  55.127  1.00  0.00     0.150 A 
HETATM   10  N4  UNL     1      25.122  -0.688  54.929  1.00  0.00    -0.249 NA
ENDROOT
BRANCH   4  11
HETATM   11  N1  UNL     1      25.841   2.412  51.052  1.00  0.00    -0.339 N 
HETATM   12  H5  UNL     1      25.732   1.954  50.119  1.00  0.00     0.167 HD
BRANCH  11  13
HETATM   13  C6  UNL     1      25.145   3.626  50.928  1.00  0.00     0.048 A 
HETATM   14  C7  UNL     1      24.019   3.875  51.628  1.00  0.00     0.008 A 
HETATM   15  C8  UNL     1      23.216   5.109  51.572  1.00  0.00     0.056 A 
HETATM   16  C9  UNL     1      23.749   6.135  50.639  1.00  0.00    -0.021 A 
HETATM   17  C10 UNL     1      24.863   5.996  49.890  1.00  0.00     0.018 A 
HETATM   18  C11 UNL     1      25.503   4.732  50.082  1.00  0.00     0.036 A 
BRANCH  18  19
HETATM   19  C12 UNL     1      26.605   4.549  49.355  1.00  0.00    -0.107 C 
BRANCH  19  20
HETATM   20  C13 UNL     1      27.669   4.742  48.583  1.00  0.00     0.112 C 
HETATM   21 BR1  UNL     1      28.237   6.477  48.206  1.00  0.00    -0.055 Br
ENDBRANCH  19  20
ENDBRANCH  18  19
ENDBRANCH  11  13
ENDBRANCH   4  11
BRANCH   1  22
HETATM   22  S1  UNL     1      22.724  -1.070  53.676  1.00  0.00     0.064 S 
HETATM   23  C1  UNL     1      21.515   0.184  53.200  1.00  0.00     0.134 C 
HETATM   24  O1  UNL     1      22.301  -1.561  55.075  1.00  0.00    -0.252 OA
ENDBRANCH   1  22
TORSDOF 5
ENDMDL
MODEL 3
REMARK VINA RESULT:      -7.6      3.003      4.898
REMARK  5 active torsions:
REMARK  status: ('A' for Active; 'I' for Inactive)
REMARK    1  A    between atoms: S1_2  and  C2_4 
REMARK    2  A    between atoms: C5_7  and  N1_8 
REMARK    3  A    between atoms: N1_8  and  C6_9 
REMARK    4  A    between atoms: C11_14  and  C12_15 
REMARK    5  A    between atoms: C12_15  and  C13_16 
ROOT
HETATM    1  C2  UNL     1      24.360  -0.331  53.795  1.00  0.00     0.123 A 
HETATM    2  C3  UNL     1      24.918   0.481  52.817  1.00  0.00     0.059 A 
HETATM    3  C4  UNL     1      26.153   1.024  53.092  1.00  0.00     0.043 A 
HETATM    4  C5  UNL     1      26.685   1.825  52.108  1.00  0.00     0.142 A 
HETATM    5  N2  UNL     1      27.893   2.375  52.336  1.00  0.00    -0.224 NA
HETATM    6  C14 UNL     1      28.584   2.179  53.461  1.00  0.00     0.236 A 
HETATM    7  N3  UNL     1      28.068   1.398  54.422  1.00  0.00    -0.240 NA
HETATM    8  C15 UNL     1      26.861   0.810  54.268  1.00  0.00     0.089 A 
HETATM    9  C16 UNL     1      26.247  -0.010  55.200  1.00  0.00     0.150 A 
HETATM   10  N4  UNL     1      25.042  -0.545  54.944  1.00  0.00    -0.249 NA
ENDROOT
BRANCH   4  11
HETATM   11  N1  UNL     1      26.111   2.153  50.853  1.00  0.00    -0.339 N 
HETATM   12  H5  UNL     1      25.687   1.530  50.130  1.00  0.00     0.167 HD
BRANCH  11  13
HETATM   13  C6  UNL     1      25.996   3.444  50.312  1.00  0.00     0.048 A 
HETATM   14  C7  UNL     1      26.884   3.924  49.417  1.00  0.00     0.008 A 
HETATM   15  C8  UNL     1      26.855   5.257  48.792  1.00  0.00     0.056 A 
HETATM   16  C9  UNL     1      25.717   6.105  49.230  1.00  0.00    -0.021 A 
HETATM   17  C10 UNL     1      24.770   5.733  50.117  1.00  0.00     0.018 A 
HETATM   18  C11 UNL     1      24.970   4.406  50.612  1.00  0.00     0.036 A 
BRANCH  18  19
HETATM   19  C12 UNL     1      24.060   3.999  51.497  1.00  0.00    -0.107 C 
BRANCH  19  20
HETATM   20  C13 UNL     1      22.984   3.916  52.273  1.00  0.00     0.112 C 
HETATM   21 BR1  UNL     1      21.316   4.402  51.597  1.00  0.00    -0.055 Br
ENDBRANCH  19  20
ENDBRANCH  18  19
ENDBRANCH  11  13
ENDBRANCH   4  11
BRANCH   1  22
HETATM   22  S1  UNL     1      22.767  -1.073  53.526  1.00  0.00     0.064 S 
HETATM   23  C1  UNL     1      21.621   0.103  52.774  1.00  0.00     0.134 C 
HETATM   24  O1  UNL     1      22.201  -1.385  54.925  1.00  0.00    -0.252 OA
ENDBRANCH   1  22
TORSDOF 5
ENDMDL
MODEL 4
REMARK VINA RESULT:      -7.4      2.646      5.330
REMARK  5 active torsions:
REMARK  status: ('A' for Active; 'I' for Inactive)
REMARK    1  A    between atoms: S1_2  and  C2_4 
REMARK    2  A    between atoms: C5_7  and  N1_8 
REMARK    3  A    between atoms: N1_8  and  C6_9 
REMARK    4  A    between atoms: C11_14  and  C12_15 
REMARK    5  A    between atoms: C12_15  and  C13_16 
ROOT
HETATM    1  C2  UNL     1      21.824   0.986  51.857  1.00  0.00     0.123 A 
HETATM    2  C3  UNL     1      23.095   0.541  52.199  1.00  0.00     0.059 A 
HETATM    3  C4  UNL     1      23.213  -0.139  53.391  1.00  0.00     0.043 A 
HETATM    4  C5  UNL     1      24.481  -0.570  53.708  1.00  0.00     0.142 A 
HETATM    5  N2  UNL     1      24.640  -1.240  54.864  1.00  0.00    -0.224 NA
HETATM    6  C14 UNL     1      23.636  -1.499  55.704  1.00  0.00     0.236 A 
HETATM    7  N3  UNL     1      22.399  -1.080  55.397  1.00  0.00    -0.240 NA
HETATM    8  C15 UNL     1      22.157  -0.402  54.254  1.00  0.00     0.089 A 
HETATM    9  C16 UNL     1      20.919   0.070  53.851  1.00  0.00     0.150 A 
HETATM   10  N4  UNL     1      20.789   0.735  52.691  1.00  0.00    -0.249 NA
ENDROOT
BRANCH   4  11
HETATM   11  N1  UNL     1      25.669  -0.395  52.954  1.00  0.00    -0.339 N 
HETATM   12  H5  UNL     1      25.920  -0.760  52.009  1.00  0.00     0.167 HD
BRANCH  11  13
HETATM   13  C6  UNL     1      26.797   0.342  53.353  1.00  0.00     0.048 A 
HETATM   14  C7  UNL     1      27.631  -0.099  54.317  1.00  0.00     0.008 A 
HETATM   15  C8  UNL     1      28.835   0.593  54.808  1.00  0.00     0.056 A 
HETATM   16  C9  UNL     1      29.101   1.892  54.139  1.00  0.00    -0.021 A 
HETATM   17  C10 UNL     1      28.338   2.431  53.166  1.00  0.00     0.018 A 
HETATM   18  C11 UNL     1      27.216   1.613  52.826  1.00  0.00     0.036 A 
BRANCH  18  19
HETATM   19  C12 UNL     1      26.431   2.111  51.872  1.00  0.00    -0.107 C 
BRANCH  19  20
HETATM   20  C13 UNL     1      25.741   2.935  51.090  1.00  0.00     0.112 C 
HETATM   21 BR1  UNL     1      26.560   3.697  49.598  1.00  0.00    -0.055 Br
ENDBRANCH  19  20
ENDBRANCH  18  19
ENDBRANCH  11  13
ENDBRANCH   4  11
BRANCH   1  22
HETATM   22  S1  UNL     1      21.579   1.874  50.337  1.00  0.00     0.064 S 
HETATM   23  C1  UNL     1      20.017   2.779  50.357  1.00  0.00     0.134 C 
HETATM   24  O1  UNL     1      21.437   0.803  49.236  1.00  0.00    -0.252 OA
ENDBRANCH   1  22
TORSDOF 5
ENDMDL
MODEL 5
REMARK VINA RESULT:      -7.4      1.826      2.395
REMARK  5 active torsions:
REMARK  status: ('A' for Active; 'I' for Inactive)
REMARK    1  A    between atoms: S1_2  and  C2_4 
REMARK    2  A    between atoms: C5_7  and  N1_8 
REMARK    3  A    between atoms: N1_8  and  C6_9 
REMARK    4  A    between atoms: C11_14  and  C12_15 
REMARK    5  A    between atoms: C12_15  and  C13_16 
ROOT
HETATM    1  C2  UNL     1      27.235   0.664  53.609  1.00  0.00     0.123 A 
HETATM    2  C3  UNL     1      26.322   1.660  53.288  1.00  0.00     0.059 A 
HETATM    3  C4  UNL     1      24.998   1.289  53.222  1.00  0.00     0.043 A 
HETATM    4  C5  UNL     1      24.113   2.293  52.902  1.00  0.00     0.142 A 
HETATM    5  N2  UNL     1      22.808   1.974  52.828  1.00  0.00    -0.224 NA
HETATM    6  C14 UNL     1      22.343   0.742  53.047  1.00  0.00     0.236 A 
HETATM    7  N3  UNL     1      23.203  -0.239  53.359  1.00  0.00    -0.240 NA
HETATM    8  C15 UNL     1      24.530   0.002  53.454  1.00  0.00     0.089 A 
HETATM    9  C16 UNL     1      25.493  -0.941  53.769  1.00  0.00     0.150 A 
HETATM   10  N4  UNL     1      26.789  -0.593  53.836  1.00  0.00    -0.249 NA
ENDROOT
BRANCH   4  11
HETATM   11  N1  UNL     1      24.408   3.655  52.634  1.00  0.00    -0.339 N 
HETATM   12  H5  UNL     1      25.098   4.290  53.091  1.00  0.00     0.167 HD
BRANCH  11  13
HETATM   13  C6  UNL     1      23.795   4.452  51.653  1.00  0.00     0.048 A 
HETATM   14  C7  UNL     1      22.665   5.145  51.902  1.00  0.00     0.008 A 
HETATM   15  C8  UNL     1      21.945   6.007  50.948  1.00  0.00     0.056 A 
HETATM   16  C9  UNL     1      22.574   6.077  49.604  1.00  0.00    -0.021 A 
HETATM   17  C10 UNL     1      23.701   5.430  49.242  1.00  0.00     0.018 A 
HETATM   18  C11 UNL     1      24.251   4.645  50.303  1.00  0.00     0.036 A 
BRANCH  18  19
HETATM   19  C12 UNL     1      25.363   3.982  49.987  1.00  0.00    -0.107 C 
BRANCH  19  20
HETATM   20  C13 UNL     1      26.567   3.658  49.525  1.00  0.00     0.112 C 
HETATM   21 BR1  UNL     1      27.617   4.953  48.689  1.00  0.00    -0.055 Br
ENDBRANCH  19  20
ENDBRANCH  18  19
ENDBRANCH  11  13
ENDBRANCH   4  11
BRANCH   1  22
HETATM   22  S1  UNL     1      28.967   1.052  53.715  1.00  0.00     0.064 S 
HETATM   23  C1  UNL     1      29.975  -0.444  53.634  1.00  0.00     0.134 C 
HETATM   24  O1  UNL     1      29.186   1.639  55.124  1.00  0.00    -0.252 OA
ENDBRANCH   1  22
TORSDOF 5
ENDMDL
MODEL 6
REMARK VINA RESULT:      -7.2      2.114      2.728
REMARK  5 active torsions:
REMARK  status: ('A' for Active; 'I' for Inactive)
REMARK    1  A    between atoms: S1_2  and  C2_4 
REMARK    2  A    between atoms: C5_7  and  N1_8 
REMARK    3  A    between atoms: N1_8  and  C6_9 
REMARK    4  A    between atoms: C11_14  and  C12_15 
REMARK    5  A    between atoms: C12_15  and  C13_16 
ROOT
HETATM    1  C2  UNL     1      25.958  -0.134  54.196  1.00  0.00     0.123 A 
HETATM    2  C3  UNL     1      24.868   0.212  53.408  1.00  0.00     0.059 A 
HETATM    3  C4  UNL     1      23.641  -0.274  53.799  1.00  0.00     0.043 A 
HETATM    4  C5  UNL     1      22.577   0.082  53.003  1.00  0.00     0.142 A 
HETATM    5  N2  UNL     1      21.358  -0.372  53.351  1.00  0.00    -0.224 NA
HETATM    6  C14 UNL     1      21.142  -1.141  54.420  1.00  0.00     0.236 A 
HETATM    7  N3  UNL     1      22.178  -1.489  55.198  1.00  0.00    -0.240 NA
HETATM    8  C15 UNL     1      23.433  -1.074  54.916  1.00  0.00     0.089 A 
HETATM    9  C16 UNL     1      24.562  -1.380  55.656  1.00  0.00     0.150 A 
HETATM   10  N4  UNL     1      25.765  -0.913  55.285  1.00  0.00    -0.249 NA
ENDROOT
BRANCH   4  11
HETATM   11  N1  UNL     1      22.600   0.885  51.834  1.00  0.00    -0.339 N 
HETATM   12  H5  UNL     1      22.822   0.623  50.848  1.00  0.00     0.167 HD
BRANCH  11  13
HETATM   13  C6  UNL     1      22.316   2.259  51.773  1.00  0.00     0.048 A 
HETATM   14  C7  UNL     1      23.231   3.192  52.107  1.00  0.00     0.008 A 
HETATM   15  C8  UNL     1      23.035   4.652  52.078  1.00  0.00     0.056 A 
HETATM   16  C9  UNL     1      21.682   5.072  51.632  1.00  0.00    -0.021 A 
HETATM   17  C10 UNL     1      20.690   4.230  51.275  1.00  0.00     0.018 A 
HETATM   18  C11 UNL     1      21.071   2.855  51.369  1.00  0.00     0.036 A 
BRANCH  18  19
HETATM   19  C12 UNL     1      20.117   1.988  51.031  1.00  0.00    -0.107 C 
BRANCH  19  20
HETATM   20  C13 UNL     1      19.344   1.140  50.360  1.00  0.00     0.112 C 
HETATM   21 BR1  UNL     1      18.205  -0.007  51.288  1.00  0.00    -0.055 Br
ENDBRANCH  19  20
ENDBRANCH  18  19
ENDBRANCH  11  13
ENDBRANCH   4  11
BRANCH   1  22
HETATM   22  S1  UNL     1      27.582   0.448  53.764  1.00  0.00     0.064 S 
HETATM   23  C1  UNL     1      28.685  -0.929  53.379  1.00  0.00     0.134 C 
HETATM   24  O1  UNL     1      28.150   1.107  55.037  1.00  0.00    -0.252 OA
ENDBRANCH   1  22
TORSDOF 5
ENDMDL
MODEL 7
REMARK VINA RESULT:      -7.1      2.973      4.314
REMARK  5 active torsions:
REMARK  status: ('A' for Active; 'I' for Inactive)
REMARK    1  A    between atoms: S1_2  and  C2_4 
REMARK    2  A    between atoms: C5_7  and  N1_8 
REMARK    3  A    between atoms: N1_8  and  C6_9 
REMARK    4  A    between atoms: C11_14  and  C12_15 
REMARK    5  A    between atoms: C12_15  and  C13_16 
ROOT
HETATM    1  C2  UNL     1      23.517  -0.396  53.691  1.00  0.00     0.123 A 
HETATM    2  C3  UNL     1      23.517   0.739  52.891  1.00  0.00     0.059 A 
HETATM    3  C4  UNL     1      24.747   1.243  52.530  1.00  0.00     0.043 A 
HETATM    4  C5  UNL     1      24.720   2.367  51.737  1.00  0.00     0.142 A 
HETATM    5  N2  UNL     1      25.902   2.892  51.360  1.00  0.00    -0.224 NA
HETATM    6  C14 UNL     1      27.079   2.376  51.719  1.00  0.00     0.236 A 
HETATM    7  N3  UNL     1      27.107   1.280  52.492  1.00  0.00    -0.240 NA
HETATM    8  C15 UNL     1      25.964   0.693  52.911  1.00  0.00     0.089 A 
HETATM    9  C16 UNL     1      25.891  -0.436  53.708  1.00  0.00     0.150 A 
HETATM   10  N4  UNL     1      24.698  -0.938  54.068  1.00  0.00    -0.249 NA
ENDROOT
BRANCH   4  11
HETATM   11  N1  UNL     1      23.581   3.060  51.253  1.00  0.00    -0.339 N 
HETATM   12  H5  UNL     1      22.990   3.781  51.722  1.00  0.00     0.167 HD
BRANCH  11  13
HETATM   13  C6  UNL     1      22.997   2.902  49.985  1.00  0.00     0.048 A 
HETATM   14  C7  UNL     1      22.255   1.820  49.673  1.00  0.00     0.008 A 
HETATM   15  C8  UNL     1      21.601   1.558  48.379  1.00  0.00     0.056 A 
HETATM   16  C9  UNL     1      21.819   2.622  47.365  1.00  0.00    -0.021 A 
HETATM   17  C10 UNL     1      22.541   3.744  47.565  1.00  0.00     0.018 A 
HETATM   18  C11 UNL     1      23.095   3.818  48.881  1.00  0.00     0.036 A 
BRANCH  18  19
HETATM   19  C12 UNL     1      23.822   4.909  49.119  1.00  0.00    -0.107 C 
BRANCH  19  20
HETATM   20  C13 UNL     1      24.679   5.920  49.009  1.00  0.00     0.112 C 
HETATM   21 BR1  UNL     1      26.506   5.573  48.872  1.00  0.00    -0.055 Br
ENDBRANCH  19  20
ENDBRANCH  18  19
ENDBRANCH  11  13
ENDBRANCH   4  11
BRANCH   1  22
HETATM   22  S1  UNL     1      21.975  -1.114  54.207  1.00  0.00     0.064 S 
HETATM   23  C1  UNL     1      20.777   0.163  54.647  1.00  0.00     0.134 C 
HETATM   24  O1  UNL     1      22.278  -1.882  55.509  1.00  0.00    -0.252 OA
ENDBRANCH   1  22
TORSDOF 5
ENDMDL
MODEL 8
REMARK VINA RESULT:      -6.9      3.049      4.366
REMARK  5 active torsions:
REMARK  status: ('A' for Active; 'I' for Inactive)
REMARK    1  A    between atoms: S1_2  and  C2_4 
REMARK    2  A    between atoms: C5_7  and  N1_8 
REMARK    3  A    between atoms: N1_8  and  C6_9 
REMARK    4  A    between atoms: C11_14  and  C12_15 
REMARK    5  A    between atoms: C12_15  and  C13_16 
ROOT
HETATM    1  C2  UNL     1      21.177  -0.607  53.855  1.00  0.00     0.123 A 
HETATM    2  C3  UNL     1      22.139   0.047  53.096  1.00  0.00     0.059 A 
HETATM    3  C4  UNL     1      23.449  -0.106  53.491  1.00  0.00     0.043 A 
HETATM    4  C5  UNL     1      24.383   0.551  52.723  1.00  0.00     0.142 A 
HETATM    5  N2  UNL     1      25.677   0.428  53.073  1.00  0.00    -0.224 NA
HETATM    6  C14 UNL     1      26.085  -0.294  54.119  1.00  0.00     0.236 A 
HETATM    7  N3  UNL     1      25.176  -0.935  54.869  1.00  0.00    -0.240 NA
HETATM    8  C15 UNL     1      23.858  -0.861  54.582  1.00  0.00     0.089 A 
HETATM    9  C16 UNL     1      22.849  -1.486  55.294  1.00  0.00     0.150 A 
HETATM   10  N4  UNL     1      21.566  -1.345  54.921  1.00  0.00    -0.249 NA
ENDROOT
BRANCH   4  11
HETATM   11  N1  UNL     1      24.151   1.361  51.582  1.00  0.00    -0.339 N 
HETATM   12  H5  UNL     1      24.255   1.132  50.568  1.00  0.00     0.167 HD
BRANCH  11  13
HETATM   13  C6  UNL     1      23.716   2.697  51.594  1.00  0.00     0.048 A 
HETATM   14  C7  UNL     1      23.878   3.489  52.674  1.00  0.00     0.008 A 
HETATM   15  C8  UNL     1      23.460   4.897  52.790  1.00  0.00     0.056 A 
HETATM   16  C9  UNL     1      22.804   5.435  51.571  1.00  0.00    -0.021 A 
HETATM   17  C10 UNL     1      22.589   4.738  50.436  1.00  0.00     0.018 A 
HETATM   18  C11 UNL     1      23.065   3.392  50.517  1.00  0.00     0.036 A 
BRANCH  18  19
HETATM   19  C12 UNL     1      22.866   2.664  49.418  1.00  0.00    -0.107 C 
BRANCH  19  20
HETATM   20  C13 UNL     1      22.689   2.280  48.158  1.00  0.00     0.112 C 
HETATM   21 BR1  UNL     1      21.736   3.370  46.983  1.00  0.00    -0.055 Br
ENDBRANCH  19  20
ENDBRANCH  18  19
ENDBRANCH  11  13
ENDBRANCH   4  11
BRANCH   1  22
HETATM   22  S1  UNL     1      19.459  -0.465  53.420  1.00  0.00     0.064 S 
HETATM   23  C1  UNL     1      18.604  -2.042  53.623  1.00  0.00     0.134 C 
HETATM   24  O1  UNL     1      19.428  -0.154  51.910  1.00  0.00    -0.252 OA
ENDBRANCH   1  22
TORSDOF 5
ENDMDL
MODEL 9
REMARK VINA RESULT:      -6.8      3.301      4.734
REMARK  5 active torsions:
REMARK  status: ('A' for Active; 'I' for Inactive)
REMARK    1  A    between atoms: S1_2  and  C2_4 
REMARK    2  A    between atoms: C5_7  and  N1_8 
REMARK    3  A    between atoms: N1_8  and  C6_9 
REMARK    4  A    between atoms: C11_14  and  C12_15 
REMARK    5  A    between atoms: C12_15  and  C13_16 
ROOT
HETATM    1  C2  UNL     1      23.447  -0.237  53.440  1.00  0.00     0.123 A 
HETATM    2  C3  UNL     1      23.372   0.917  52.670  1.00  0.00     0.059 A 
HETATM    3  C4  UNL     1      24.563   1.442  52.222  1.00  0.00     0.043 A 
HETATM    4  C5  UNL     1      24.462   2.585  51.462  1.00  0.00     0.142 A 
HETATM    5  N2  UNL     1      25.603   3.131  51.002  1.00  0.00    -0.224 NA
HETATM    6  C14 UNL     1      26.811   2.618  51.250  1.00  0.00     0.236 A 
HETATM    7  N3  UNL     1      26.911   1.504  51.991  1.00  0.00    -0.240 NA
HETATM    8  C15 UNL     1      25.812   0.896  52.488  1.00  0.00     0.089 A 
HETATM    9  C16 UNL     1      25.815  -0.253  53.261  1.00  0.00     0.150 A 
HETATM   10  N4  UNL     1      24.660  -0.776  53.705  1.00  0.00    -0.249 NA
ENDROOT
BRANCH   4  11
HETATM   11  N1  UNL     1      23.281   3.277  51.091  1.00  0.00    -0.339 N 
HETATM   12  H5  UNL     1      22.422   3.478  51.649  1.00  0.00     0.167 HD
BRANCH  11  13
HETATM   13  C6  UNL     1      23.025   3.856  49.837  1.00  0.00     0.048 A 
HETATM   14  C7  UNL     1      23.357   5.135  49.562  1.00  0.00     0.008 A 
HETATM   15  C8  UNL     1      23.134   5.835  48.285  1.00  0.00     0.056 A 
HETATM   16  C9  UNL     1      22.477   5.002  47.245  1.00  0.00    -0.021 A 
HETATM   17  C10 UNL     1      22.101   3.717  47.408  1.00  0.00     0.018 A 
HETATM   18  C11 UNL     1      22.401   3.214  48.712  1.00  0.00     0.036 A 
BRANCH  18  19
HETATM   19  C12 UNL     1      22.040   1.948  48.918  1.00  0.00    -0.107 C 
BRANCH  19  20
HETATM   20  C13 UNL     1      21.338   0.847  49.170  1.00  0.00     0.112 C 
HETATM   21 BR1  UNL     1      20.206   0.789  50.650  1.00  0.00    -0.055 Br
ENDBRANCH  19  20
ENDBRANCH  18  19
ENDBRANCH  11  13
ENDBRANCH   4  11
BRANCH   1  22
HETATM   22  S1  UNL     1      21.959  -0.983  54.063  1.00  0.00     0.064 S 
HETATM   23  C1  UNL     1      20.729   0.270  54.481  1.00  0.00     0.134 C 
HETATM   24  O1  UNL     1      22.347  -1.661  55.392  1.00  0.00    -0.252 OA
ENDBRANCH   1  22
TORSDOF 5
ENDMDL
