MODEL 1
REMARK VINA RESULT:      -7.0      0.000      0.000
REMARK  11 active torsions:
REMARK  status: ('A' for Active; 'I' for Inactive)
REMARK    1  A    between atoms: C2_2  and  C3_3 
REMARK    2  A    between atoms: C3_3  and  C4_4 
REMARK    3  A    between atoms: C4_4  and  N1_5 
REMARK    4  A    between atoms: N1_5  and  C5_6 
REMARK    5  A    between atoms: N1_5  and  S1_15 
REMARK    6  A    between atoms: C5_6  and  C6_7 
REMARK    7  A    between atoms: C6_7  and  N2_8 
REMARK    8  A    between atoms: N2_8  and  C7_9 
REMARK    9  A    between atoms: S1_15  and  C13_16 
REMARK   10  A    between atoms: C13_16  and  C14_17 
REMARK   11  A    between atoms: C18_23  and  O1_24 
ROOT
HETATM    1  N1  UNL     1      27.410   1.466  54.421  1.00  0.00    -0.257 NA
ENDROOT
BRANCH   1   2
HETATM    2  C4  UNL     1      28.236   0.310  54.666  1.00  0.00     0.103 C 
BRANCH   2   3
HETATM    3  C3  UNL     1      29.418   0.334  53.726  1.00  0.00     0.015 C 
BRANCH   3   4
HETATM    4  C2  UNL     1      30.092  -1.007  53.616  1.00  0.00    -0.003 C 
HETATM    5  C1  UNL     1      29.090  -2.075  53.231  1.00  0.00     0.005 C 
ENDBRANCH   3   4
ENDBRANCH   2   3
ENDBRANCH   1   2
BRANCH   1   6
HETATM    6  C5  UNL     1      26.004   1.137  54.355  1.00  0.00     0.122 C 
BRANCH   6   7
HETATM    7  C6  UNL     1      25.720  -0.322  54.477  1.00  0.00     0.135 C 
BRANCH   7   8
HETATM    8  N2  UNL     1      24.673  -0.670  53.548  1.00  0.00    -0.389 N 
HETATM    9  H14 UNL     1      25.012  -1.036  52.604  1.00  0.00     0.159 HD
BRANCH   8  10
HETATM   10  C7  UNL     1      23.264  -0.636  53.595  1.00  0.00     0.027 A 
HETATM   11  C8  UNL     1      22.506  -1.163  54.650  1.00  0.00     0.029 A 
HETATM   12  C9  UNL     1      21.137  -1.068  54.620  1.00  0.00     0.002 A 
HETATM   13  C10 UNL     1      20.428  -0.477  53.599  1.00  0.00     0.000 A 
HETATM   14  C11 UNL     1      21.157   0.038  52.567  1.00  0.00     0.002 A 
HETATM   15  C12 UNL     1      22.536  -0.040  52.569  1.00  0.00     0.029 A 
ENDBRANCH   8  10
ENDBRANCH   7   8
ENDBRANCH   6   7
ENDBRANCH   1   6
BRANCH   1  16
HETATM   16  S1  UNL     1      27.875   2.136  52.862  1.00  0.00    -0.076 SA
BRANCH  16  17
HETATM   17  C13 UNL     1      26.637   1.685  51.617  1.00  0.00     0.153 C 
BRANCH  17  18
HETATM   18  C14 UNL     1      26.335   2.900  50.805  1.00  0.00     0.079 A 
HETATM   19  N3  UNL     1      27.116   3.431  49.848  1.00  0.00    -0.262 NA
HETATM   20  C15 UNL     1      26.739   4.538  49.171  1.00  0.00     0.119 A 
HETATM   21  C16 UNL     1      25.554   5.216  49.382  1.00  0.00     0.046 A 
HETATM   22  C17 UNL     1      24.731   4.698  50.356  1.00  0.00     0.070 A 
HETATM   23 CL1  UNL     1      23.203   5.453  50.727  1.00  0.00    -0.081 Cl
HETATM   24  C18 UNL     1      25.134   3.551  51.049  1.00  0.00     0.113 A 
BRANCH  24  25
HETATM   25  O1  UNL     1      24.273   3.075  52.012  1.00  0.00    -0.357 OA
HETATM   26  H24 UNL     1      23.379   3.502  52.203  1.00  0.00     0.217 HD
ENDBRANCH  24  25
ENDBRANCH  17  18
ENDBRANCH  16  17
ENDBRANCH   1  16
TORSDOF 11
ENDMDL
MODEL 2
REMARK VINA RESULT:      -6.9      2.511      6.905
REMARK  11 active torsions:
REMARK  status: ('A' for Active; 'I' for Inactive)
REMARK    1  A    between atoms: C2_2  and  C3_3 
REMARK    2  A    between atoms: C3_3  and  C4_4 
REMARK    3  A    between atoms: C4_4  and  N1_5 
REMARK    4  A    between atoms: N1_5  and  C5_6 
REMARK    5  A    between atoms: N1_5  and  S1_15 
REMARK    6  A    between atoms: C5_6  and  C6_7 
REMARK    7  A    between atoms: C6_7  and  N2_8 
REMARK    8  A    between atoms: N2_8  and  C7_9 
REMARK    9  A    between atoms: S1_15  and  C13_16 
REMARK   10  A    between atoms: C13_16  and  C14_17 
REMARK   11  A    between atoms: C18_23  and  O1_24 
ROOT
HETATM    1  N1  UNL     1      23.953   1.823  53.096  1.00  0.00    -0.257 NA
ENDROOT
BRANCH   1   2
HETATM    2  C4  UNL     1      22.574   1.553  52.775  1.00  0.00     0.103 C 
BRANCH   2   3
HETATM    3  C3  UNL     1      22.290   0.086  52.993  1.00  0.00     0.015 C 
BRANCH   3   4
HETATM    4  C2  UNL     1      21.659  -0.185  54.331  1.00  0.00    -0.003 C 
HETATM    5  C1  UNL     1      20.971  -1.535  54.331  1.00  0.00     0.005 C 
ENDBRANCH   3   4
ENDBRANCH   2   3
ENDBRANCH   1   2
BRANCH   1   6
HETATM    6  C5  UNL     1      24.421   3.067  52.525  1.00  0.00     0.122 C 
BRANCH   6   7
HETATM    7  C6  UNL     1      23.492   3.654  51.516  1.00  0.00     0.135 C 
BRANCH   7   8
HETATM    8  N2  UNL     1      24.137   3.634  50.227  1.00  0.00    -0.389 N 
HETATM    9  H14 UNL     1      23.771   2.894  49.550  1.00  0.00     0.159 HD
BRANCH   8  10
HETATM   10  C7  UNL     1      25.173   4.385  49.633  1.00  0.00     0.027 A 
HETATM   11  C8  UNL     1      25.027   5.713  49.206  1.00  0.00     0.029 A 
HETATM   12  C9  UNL     1      26.097   6.373  48.654  1.00  0.00     0.002 A 
HETATM   13  C10 UNL     1      27.343   5.813  48.483  1.00  0.00     0.000 A 
HETATM   14  C11 UNL     1      27.494   4.521  48.895  1.00  0.00     0.002 A 
HETATM   15  C12 UNL     1      26.437   3.830  49.454  1.00  0.00     0.029 A 
ENDBRANCH   8  10
ENDBRANCH   7   8
ENDBRANCH   6   7
ENDBRANCH   1   6
BRANCH   1  16
HETATM   16  S1  UNL     1      24.926   0.525  52.414  1.00  0.00    -0.076 SA
BRANCH  16  17
HETATM   17  C13 UNL     1      25.539  -0.536  53.749  1.00  0.00     0.153 C 
BRANCH  17  18
HETATM   18  C14 UNL     1      27.030  -0.528  53.698  1.00  0.00     0.079 A 
HETATM   19  N3  UNL     1      27.818  -1.533  53.278  1.00  0.00    -0.262 NA
HETATM   20  C15 UNL     1      29.163  -1.413  53.272  1.00  0.00     0.119 A 
HETATM   21  C16 UNL     1      29.848  -0.285  53.679  1.00  0.00     0.046 A 
HETATM   22  C17 UNL     1      29.071   0.765  54.116  1.00  0.00     0.070 A 
HETATM   23 CL1  UNL     1      29.803   2.251  54.659  1.00  0.00    -0.081 Cl
HETATM   24  C18 UNL     1      27.678   0.626  54.117  1.00  0.00     0.113 A 
BRANCH  24  25
HETATM   25  O1  UNL     1      26.949   1.705  54.562  1.00  0.00    -0.357 OA
HETATM   26  H24 UNL     1      26.107   1.607  55.109  1.00  0.00     0.217 HD
ENDBRANCH  24  25
ENDBRANCH  17  18
ENDBRANCH  16  17
ENDBRANCH   1  16
TORSDOF 11
ENDMDL
MODEL 3
REMARK VINA RESULT:      -6.8      2.605      6.605
REMARK  11 active torsions:
REMARK  status: ('A' for Active; 'I' for Inactive)
REMARK    1  A    between atoms: C2_2  and  C3_3 
REMARK    2  A    between atoms: C3_3  and  C4_4 
REMARK    3  A    between atoms: C4_4  and  N1_5 
REMARK    4  A    between atoms: N1_5  and  C5_6 
REMARK    5  A    between atoms: N1_5  and  S1_15 
REMARK    6  A    between atoms: C5_6  and  C6_7 
REMARK    7  A    between atoms: C6_7  and  N2_8 
REMARK    8  A    between atoms: N2_8  and  C7_9 
REMARK    9  A    between atoms: S1_15  and  C13_16 
REMARK   10  A    between atoms: C13_16  and  C14_17 
REMARK   11  A    between atoms: C18_23  and  O1_24 
ROOT
HETATM    1  N1  UNL     1      24.279   3.726  51.701  1.00  0.00    -0.257 NA
ENDROOT
BRANCH   1   2
HETATM    2  C4  UNL     1      24.351   4.158  50.327  1.00  0.00     0.103 C 
BRANCH   2   3
HETATM    3  C3  UNL     1      25.748   3.926  49.804  1.00  0.00     0.015 C 
BRANCH   3   4
HETATM    4  C2  UNL     1      26.313   5.138  49.115  1.00  0.00    -0.003 C 
HETATM    5  C1  UNL     1      27.719   4.863  48.624  1.00  0.00     0.005 C 
ENDBRANCH   3   4
ENDBRANCH   2   3
ENDBRANCH   1   2
BRANCH   1   6
HETATM    6  C5  UNL     1      25.278   2.730  52.019  1.00  0.00     0.122 C 
BRANCH   6   7
HETATM    7  C6  UNL     1      25.488   2.533  53.483  1.00  0.00     0.135 C 
BRANCH   7   8
HETATM    8  N2  UNL     1      26.888   2.278  53.720  1.00  0.00    -0.389 N 
HETATM    9  H14 UNL     1      27.447   3.119  54.068  1.00  0.00     0.159 HD
BRANCH   8  10
HETATM   10  C7  UNL     1      27.717   1.145  53.593  1.00  0.00     0.027 A 
HETATM   11  C8  UNL     1      29.099   1.160  53.827  1.00  0.00     0.029 A 
HETATM   12  C9  UNL     1      29.826   0.002  53.697  1.00  0.00     0.002 A 
HETATM   13  C10 UNL     1      29.284  -1.212  53.343  1.00  0.00     0.000 A 
HETATM   14  C11 UNL     1      27.938  -1.237  53.113  1.00  0.00     0.002 A 
HETATM   15  C12 UNL     1      27.180  -0.089  53.236  1.00  0.00     0.029 A 
ENDBRANCH   8  10
ENDBRANCH   7   8
ENDBRANCH   6   7
ENDBRANCH   1   6
BRANCH   1  16
HETATM   16  S1  UNL     1      22.699   2.994  51.950  1.00  0.00    -0.076 SA
BRANCH  16  17
HETATM   17  C13 UNL     1      22.722   1.285  51.347  1.00  0.00     0.153 C 
BRANCH  17  18
HETATM   18  C14 UNL     1      22.274   0.397  52.460  1.00  0.00     0.079 A 
HETATM   19  N3  UNL     1      23.044  -0.088  53.449  1.00  0.00    -0.262 NA
HETATM   20  C15 UNL     1      22.529  -0.885  54.411  1.00  0.00     0.119 A 
HETATM   21  C16 UNL     1      21.205  -1.271  54.477  1.00  0.00     0.046 A 
HETATM   22  C17 UNL     1      20.388  -0.792  53.478  1.00  0.00     0.070 A 
HETATM   23 CL1  UNL     1      18.693  -1.200  53.438  1.00  0.00    -0.081 Cl
HETATM   24  C18 UNL     1      20.936   0.032  52.488  1.00  0.00     0.113 A 
BRANCH  24  25
HETATM   25  O1  UNL     1      20.075   0.484  51.513  1.00  0.00    -0.357 OA
HETATM   26  H24 UNL     1      19.478   1.287  51.642  1.00  0.00     0.217 HD
ENDBRANCH  24  25
ENDBRANCH  17  18
ENDBRANCH  16  17
ENDBRANCH   1  16
TORSDOF 11
ENDMDL
MODEL 4
REMARK VINA RESULT:      -6.8      2.705      5.524
REMARK  11 active torsions:
REMARK  status: ('A' for Active; 'I' for Inactive)
REMARK    1  A    between atoms: C2_2  and  C3_3 
REMARK    2  A    between atoms: C3_3  and  C4_4 
REMARK    3  A    between atoms: C4_4  and  N1_5 
REMARK    4  A    between atoms: N1_5  and  C5_6 
REMARK    5  A    between atoms: N1_5  and  S1_15 
REMARK    6  A    between atoms: C5_6  and  C6_7 
REMARK    7  A    between atoms: C6_7  and  N2_8 
REMARK    8  A    between atoms: N2_8  and  C7_9 
REMARK    9  A    between atoms: S1_15  and  C13_16 
REMARK   10  A    between atoms: C13_16  and  C14_17 
REMARK   11  A    between atoms: C18_23  and  O1_24 
ROOT
HETATM    1  N1  UNL     1      24.918   2.939  50.398  1.00  0.00    -0.257 NA
ENDROOT
BRANCH   1   2
HETATM    2  C4  UNL     1      25.232   3.782  49.271  1.00  0.00     0.103 C 
BRANCH   2   3
HETATM    3  C3  UNL     1      25.367   5.211  49.741  1.00  0.00     0.015 C 
BRANCH   3   4
HETATM    4  C2  UNL     1      26.461   5.952  49.022  1.00  0.00    -0.003 C 
HETATM    5  C1  UNL     1      27.562   4.999  48.605  1.00  0.00     0.005 C 
ENDBRANCH   3   4
ENDBRANCH   2   3
ENDBRANCH   1   2
BRANCH   1   6
HETATM    6  C5  UNL     1      24.029   3.583  51.339  1.00  0.00     0.122 C 
BRANCH   6   7
HETATM    7  C6  UNL     1      22.615   3.114  51.250  1.00  0.00     0.135 C 
BRANCH   7   8
HETATM    8  N2  UNL     1      22.582   1.694  51.503  1.00  0.00    -0.389 N 
HETATM    9  H14 UNL     1      22.937   1.085  50.701  1.00  0.00     0.159 HD
BRANCH   8  10
HETATM   10  C7  UNL     1      22.175   0.898  52.593  1.00  0.00     0.027 A 
HETATM   11  C8  UNL     1      20.983   1.099  53.304  1.00  0.00     0.029 A 
HETATM   12  C9  UNL     1      20.659   0.261  54.343  1.00  0.00     0.002 A 
HETATM   13  C10 UNL     1      21.439  -0.795  54.753  1.00  0.00     0.000 A 
HETATM   14  C11 UNL     1      22.602  -0.999  54.067  1.00  0.00     0.002 A 
HETATM   15  C12 UNL     1      22.956  -0.174  53.017  1.00  0.00     0.029 A 
ENDBRANCH   8  10
ENDBRANCH   7   8
ENDBRANCH   6   7
ENDBRANCH   1   6
BRANCH   1  16
HETATM   16  S1  UNL     1      26.422   2.588  51.240  1.00  0.00    -0.076 SA
BRANCH  16  17
HETATM   17  C13 UNL     1      26.054   1.807  52.833  1.00  0.00     0.153 C 
BRANCH  17  18
HETATM   18  C14 UNL     1      27.295   1.131  53.313  1.00  0.00     0.079 A 
HETATM   19  N3  UNL     1      28.278   1.692  54.038  1.00  0.00    -0.262 NA
HETATM   20  C15 UNL     1      29.360   0.981  54.421  1.00  0.00     0.119 A 
HETATM   21  C16 UNL     1      29.564  -0.352  54.121  1.00  0.00     0.046 A 
HETATM   22  C17 UNL     1      28.576  -0.959  53.379  1.00  0.00     0.070 A 
HETATM   23 CL1  UNL     1      28.702  -2.638  52.928  1.00  0.00    -0.081 Cl
HETATM   24  C18 UNL     1      27.461  -0.209  52.989  1.00  0.00     0.113 A 
BRANCH  24  25
HETATM   25  O1  UNL     1      26.503  -0.864  52.249  1.00  0.00    -0.357 OA
HETATM   26  H24 UNL     1      25.525  -0.863  52.499  1.00  0.00     0.217 HD
ENDBRANCH  24  25
ENDBRANCH  17  18
ENDBRANCH  16  17
ENDBRANCH   1  16
TORSDOF 11
ENDMDL
MODEL 5
REMARK VINA RESULT:      -6.7      3.147      7.509
REMARK  11 active torsions:
REMARK  status: ('A' for Active; 'I' for Inactive)
REMARK    1  A    between atoms: C2_2  and  C3_3 
REMARK    2  A    between atoms: C3_3  and  C4_4 
REMARK    3  A    between atoms: C4_4  and  N1_5 
REMARK    4  A    between atoms: N1_5  and  C5_6 
REMARK    5  A    between atoms: N1_5  and  S1_15 
REMARK    6  A    between atoms: C5_6  and  C6_7 
REMARK    7  A    between atoms: C6_7  and  N2_8 
REMARK    8  A    between atoms: N2_8  and  C7_9 
REMARK    9  A    between atoms: S1_15  and  C13_16 
REMARK   10  A    between atoms: C13_16  and  C14_17 
REMARK   11  A    between atoms: C18_23  and  O1_24 
ROOT
HETATM    1  N1  UNL     1      23.558   2.796  52.105  1.00  0.00    -0.257 NA
ENDROOT
BRANCH   1   2
HETATM    2  C4  UNL     1      22.291   2.619  51.442  1.00  0.00     0.103 C 
BRANCH   2   3
HETATM    3  C3  UNL     1      22.244   1.245  50.817  1.00  0.00     0.015 C 
BRANCH   3   4
HETATM    4  C2  UNL     1      21.716   1.272  49.408  1.00  0.00    -0.003 C 
HETATM    5  C1  UNL     1      22.465   2.296  48.580  1.00  0.00     0.005 C 
ENDBRANCH   3   4
ENDBRANCH   2   3
ENDBRANCH   1   2
BRANCH   1   6
HETATM    6  C5  UNL     1      24.380   3.801  51.466  1.00  0.00     0.122 C 
BRANCH   6   7
HETATM    7  C6  UNL     1      25.597   3.251  50.801  1.00  0.00     0.135 C 
BRANCH   7   8
HETATM    8  N2  UNL     1      25.717   3.844  49.492  1.00  0.00    -0.389 N 
HETATM    9  H14 UNL     1      25.117   3.391  48.734  1.00  0.00     0.159 HD
BRANCH   8  10
HETATM   10  C7  UNL     1      26.466   4.915  48.963  1.00  0.00     0.027 A 
HETATM   11  C8  UNL     1      25.933   6.184  48.698  1.00  0.00     0.029 A 
HETATM   12  C9  UNL     1      26.743   7.174  48.199  1.00  0.00     0.002 A 
HETATM   13  C10 UNL     1      28.082   7.010  47.929  1.00  0.00     0.000 A 
HETATM   14  C11 UNL     1      28.611   5.778  48.183  1.00  0.00     0.002 A 
HETATM   15  C12 UNL     1      27.822   4.762  48.686  1.00  0.00     0.029 A 
ENDBRANCH   8  10
ENDBRANCH   7   8
ENDBRANCH   6   7
ENDBRANCH   1   6
BRANCH   1  16
HETATM   16  S1  UNL     1      24.425   1.268  52.023  1.00  0.00    -0.076 SA
BRANCH  16  17
HETATM   17  C13 UNL     1      25.008   0.814  53.678  1.00  0.00     0.153 C 
BRANCH  17  18
HETATM   18  C14 UNL     1      26.495   0.942  53.694  1.00  0.00     0.079 A 
HETATM   19  N3  UNL     1      27.193   2.084  53.816  1.00  0.00    -0.262 NA
HETATM   20  C15 UNL     1      28.544   2.082  53.822  1.00  0.00     0.119 A 
HETATM   21  C16 UNL     1      29.323   0.947  53.708  1.00  0.00     0.046 A 
HETATM   22  C17 UNL     1      28.639  -0.241  53.582  1.00  0.00     0.070 A 
HETATM   23 CL1  UNL     1      29.495  -1.753  53.431  1.00  0.00    -0.081 Cl
HETATM   24  C18 UNL     1      27.239  -0.223  53.577  1.00  0.00     0.113 A 
BRANCH  24  25
HETATM   25  O1  UNL     1      26.605  -1.439  53.449  1.00  0.00    -0.357 OA
HETATM   26  H24 UNL     1      27.084  -2.319  53.568  1.00  0.00     0.217 HD
ENDBRANCH  24  25
ENDBRANCH  17  18
ENDBRANCH  16  17
ENDBRANCH   1  16
TORSDOF 11
ENDMDL
MODEL 6
REMARK VINA RESULT:      -6.7      2.889      7.368
REMARK  11 active torsions:
REMARK  status: ('A' for Active; 'I' for Inactive)
REMARK    1  A    between atoms: C2_2  and  C3_3 
REMARK    2  A    between atoms: C3_3  and  C4_4 
REMARK    3  A    between atoms: C4_4  and  N1_5 
REMARK    4  A    between atoms: N1_5  and  C5_6 
REMARK    5  A    between atoms: N1_5  and  S1_15 
REMARK    6  A    between atoms: C5_6  and  C6_7 
REMARK    7  A    between atoms: C6_7  and  N2_8 
REMARK    8  A    between atoms: N2_8  and  C7_9 
REMARK    9  A    between atoms: S1_15  and  C13_16 
REMARK   10  A    between atoms: C13_16  and  C14_17 
REMARK   11  A    between atoms: C18_23  and  O1_24 
ROOT
HETATM    1  N1  UNL     1      23.256   2.367  51.885  1.00  0.00    -0.257 NA
ENDROOT
BRANCH   1   2
HETATM    2  C4  UNL     1      22.598   1.094  52.044  1.00  0.00     0.103 C 
BRANCH   2   3
HETATM    3  C3  UNL     1      21.381   1.269  52.920  1.00  0.00     0.015 C 
BRANCH   3   4
HETATM    4  C2  UNL     1      20.908  -0.030  53.514  1.00  0.00    -0.003 C 
HETATM    5  C1  UNL     1      21.752  -0.401  54.716  1.00  0.00     0.005 C 
ENDBRANCH   3   4
ENDBRANCH   2   3
ENDBRANCH   1   2
BRANCH   1   6
HETATM    6  C5  UNL     1      23.917   2.492  50.605  1.00  0.00     0.122 C 
BRANCH   6   7
HETATM    7  C6  UNL     1      25.249   3.161  50.676  1.00  0.00     0.135 C 
BRANCH   7   8
HETATM    8  N2  UNL     1      25.240   4.304  49.797  1.00  0.00    -0.389 N 
HETATM    9  H14 UNL     1      24.270   4.675  49.549  1.00  0.00     0.159 HD
BRANCH   8  10
HETATM   10  C7  UNL     1      26.243   5.068  49.167  1.00  0.00     0.027 A 
HETATM   11  C8  UNL     1      27.549   4.608  48.941  1.00  0.00     0.029 A 
HETATM   12  C9  UNL     1      28.456   5.416  48.302  1.00  0.00     0.002 A 
HETATM   13  C10 UNL     1      28.174   6.685  47.851  1.00  0.00     0.000 A 
HETATM   14  C11 UNL     1      26.906   7.142  48.066  1.00  0.00     0.002 A 
HETATM   15  C12 UNL     1      25.970   6.353  48.705  1.00  0.00     0.029 A 
ENDBRANCH   8  10
ENDBRANCH   7   8
ENDBRANCH   6   7
ENDBRANCH   1   6
BRANCH   1  16
HETATM   16  S1  UNL     1      24.487   2.494  53.135  1.00  0.00    -0.076 SA
BRANCH  16  17
HETATM   17  C13 UNL     1      25.107   0.840  53.542  1.00  0.00     0.153 C 
BRANCH  17  18
HETATM   18  C14 UNL     1      26.597   0.909  53.610  1.00  0.00     0.079 A 
HETATM   19  N3  UNL     1      27.335   2.023  53.757  1.00  0.00    -0.262 NA
HETATM   20  C15 UNL     1      28.684   1.967  53.810  1.00  0.00     0.119 A 
HETATM   21  C16 UNL     1      29.421   0.802  53.723  1.00  0.00     0.046 A 
HETATM   22  C17 UNL     1      28.695  -0.358  53.572  1.00  0.00     0.070 A 
HETATM   23 CL1  UNL     1      29.496  -1.902  53.449  1.00  0.00    -0.081 Cl
HETATM   24  C18 UNL     1      27.298  -0.285  53.518  1.00  0.00     0.113 A 
BRANCH  24  25
HETATM   25  O1  UNL     1      26.622  -1.474  53.367  1.00  0.00    -0.357 OA
HETATM   26  H24 UNL     1      26.891  -2.172  52.690  1.00  0.00     0.217 HD
ENDBRANCH  24  25
ENDBRANCH  17  18
ENDBRANCH  16  17
ENDBRANCH   1  16
TORSDOF 11
ENDMDL
MODEL 7
REMARK VINA RESULT:      -6.6      2.467      4.791
REMARK  11 active torsions:
REMARK  status: ('A' for Active; 'I' for Inactive)
REMARK    1  A    between atoms: C2_2  and  C3_3 
REMARK    2  A    between atoms: C3_3  and  C4_4 
REMARK    3  A    between atoms: C4_4  and  N1_5 
REMARK    4  A    between atoms: N1_5  and  C5_6 
REMARK    5  A    between atoms: N1_5  and  S1_15 
REMARK    6  A    between atoms: C5_6  and  C6_7 
REMARK    7  A    between atoms: C6_7  and  N2_8 
REMARK    8  A    between atoms: N2_8  and  C7_9 
REMARK    9  A    between atoms: S1_15  and  C13_16 
REMARK   10  A    between atoms: C13_16  and  C14_17 
REMARK   11  A    between atoms: C18_23  and  O1_24 
ROOT
HETATM    1  N1  UNL     1      23.556   2.106  52.875  1.00  0.00    -0.257 NA
ENDROOT
BRANCH   1   2
HETATM    2  C4  UNL     1      24.783   2.852  52.757  1.00  0.00     0.103 C 
BRANCH   2   3
HETATM    3  C3  UNL     1      25.683   2.175  51.749  1.00  0.00     0.015 C 
BRANCH   3   4
HETATM    4  C2  UNL     1      26.393   3.160  50.860  1.00  0.00    -0.003 C 
HETATM    5  C1  UNL     1      25.637   3.342  49.561  1.00  0.00     0.005 C 
ENDBRANCH   3   4
ENDBRANCH   2   3
ENDBRANCH   1   2
BRANCH   1   6
HETATM    6  C5  UNL     1      23.659   0.778  52.311  1.00  0.00     0.122 C 
BRANCH   6   7
HETATM    7  C6  UNL     1      23.292  -0.311  53.261  1.00  0.00     0.135 C 
BRANCH   7   8
HETATM    8  N2  UNL     1      24.397  -0.532  54.162  1.00  0.00    -0.389 N 
HETATM    9  H14 UNL     1      24.120  -0.732  55.173  1.00  0.00     0.159 HD
BRANCH   8  10
HETATM   10  C7  UNL     1      25.799  -0.543  54.015  1.00  0.00     0.027 A 
HETATM   11  C8  UNL     1      26.473  -1.259  53.015  1.00  0.00     0.029 A 
HETATM   12  C9  UNL     1      27.842  -1.196  52.937  1.00  0.00     0.002 A 
HETATM   13  C10 UNL     1      28.630  -0.461  53.793  1.00  0.00     0.000 A 
HETATM   14  C11 UNL     1      27.983   0.239  54.770  1.00  0.00     0.002 A 
HETATM   15  C12 UNL     1      26.606   0.197  54.875  1.00  0.00     0.029 A 
ENDBRANCH   8  10
ENDBRANCH   7   8
ENDBRANCH   6   7
ENDBRANCH   1   6
BRANCH   1  16
HETATM   16  S1  UNL     1      22.314   2.971  51.978  1.00  0.00    -0.076 SA
BRANCH  16  17
HETATM   17  C13 UNL     1      22.478   4.750  52.282  1.00  0.00     0.153 C 
BRANCH  17  18
HETATM   18  C14 UNL     1      22.931   5.395  51.015  1.00  0.00     0.079 A 
HETATM   19  N3  UNL     1      22.435   5.170  49.786  1.00  0.00    -0.262 NA
HETATM   20  C15 UNL     1      22.923   5.816  48.704  1.00  0.00     0.119 A 
HETATM   21  C16 UNL     1      23.945   6.744  48.746  1.00  0.00     0.046 A 
HETATM   22  C17 UNL     1      24.476   6.999  49.990  1.00  0.00     0.070 A 
HETATM   23 CL1  UNL     1      25.772   8.149  50.189  1.00  0.00    -0.081 Cl
HETATM   24  C18 UNL     1      23.961   6.321  51.101  1.00  0.00     0.113 A 
BRANCH  24  25
HETATM   25  O1  UNL     1      24.528   6.614  52.321  1.00  0.00    -0.357 OA
HETATM   26  H24 UNL     1      24.738   5.906  53.009  1.00  0.00     0.217 HD
ENDBRANCH  24  25
ENDBRANCH  17  18
ENDBRANCH  16  17
ENDBRANCH   1  16
TORSDOF 11
ENDMDL
MODEL 8
REMARK VINA RESULT:      -6.6      2.753      6.624
REMARK  11 active torsions:
REMARK  status: ('A' for Active; 'I' for Inactive)
REMARK    1  A    between atoms: C2_2  and  C3_3 
REMARK    2  A    between atoms: C3_3  and  C4_4 
REMARK    3  A    between atoms: C4_4  and  N1_5 
REMARK    4  A    between atoms: N1_5  and  C5_6 
REMARK    5  A    between atoms: N1_5  and  S1_15 
REMARK    6  A    between atoms: C5_6  and  C6_7 
REMARK    7  A    between atoms: C6_7  and  N2_8 
REMARK    8  A    between atoms: N2_8  and  C7_9 
REMARK    9  A    between atoms: S1_15  and  C13_16 
REMARK   10  A    between atoms: C13_16  and  C14_17 
REMARK   11  A    between atoms: C18_23  and  O1_24 
ROOT
HETATM    1  N1  UNL     1      24.470   3.386  50.925  1.00  0.00    -0.257 NA
ENDROOT
BRANCH   1   2
HETATM    2  C4  UNL     1      24.654   3.707  49.531  1.00  0.00     0.103 C 
BRANCH   2   3
HETATM    3  C3  UNL     1      25.692   4.797  49.404  1.00  0.00     0.015 C 
BRANCH   3   4
HETATM    4  C2  UNL     1      27.064   4.253  49.110  1.00  0.00    -0.003 C 
HETATM    5  C1  UNL     1      27.940   5.326  48.499  1.00  0.00     0.005 C 
ENDBRANCH   3   4
ENDBRANCH   2   3
ENDBRANCH   1   2
BRANCH   1   6
HETATM    6  C5  UNL     1      25.227   2.222  51.328  1.00  0.00     0.122 C 
BRANCH   6   7
HETATM    7  C6  UNL     1      25.631   2.233  52.764  1.00  0.00     0.135 C 
BRANCH   7   8
HETATM    8  N2  UNL     1      26.025   0.899  53.145  1.00  0.00    -0.389 N 
HETATM    9  H14 UNL     1      25.220   0.250  53.412  1.00  0.00     0.159 HD
BRANCH   8  10
HETATM   10  C7  UNL     1      27.262   0.232  53.253  1.00  0.00     0.027 A 
HETATM   11  C8  UNL     1      27.434  -1.137  52.997  1.00  0.00     0.029 A 
HETATM   12  C9  UNL     1      28.681  -1.700  53.109  1.00  0.00     0.002 A 
HETATM   13  C10 UNL     1      29.813  -1.001  53.466  1.00  0.00     0.000 A 
HETATM   14  C11 UNL     1      29.655   0.331  53.717  1.00  0.00     0.002 A 
HETATM   15  C12 UNL     1      28.413   0.927  53.612  1.00  0.00     0.029 A 
ENDBRANCH   8  10
ENDBRANCH   7   8
ENDBRANCH   6   7
ENDBRANCH   1   6
BRANCH   1  16
HETATM   16  S1  UNL     1      22.766   3.025  51.171  1.00  0.00    -0.076 SA
BRANCH  16  17
HETATM   17  C13 UNL     1      22.407   1.358  50.558  1.00  0.00     0.153 C 
BRANCH  17  18
HETATM   18  C14 UNL     1      21.363   0.757  51.440  1.00  0.00     0.079 A 
HETATM   19  N3  UNL     1      20.033   0.864  51.285  1.00  0.00    -0.262 NA
HETATM   20  C15 UNL     1      19.177   0.273  52.147  1.00  0.00     0.119 A 
HETATM   21  C16 UNL     1      19.565  -0.478  53.240  1.00  0.00     0.046 A 
HETATM   22  C17 UNL     1      20.923  -0.608  53.428  1.00  0.00     0.070 A 
HETATM   23 CL1  UNL     1      21.554  -1.529  54.768  1.00  0.00    -0.081 Cl
HETATM   24  C18 UNL     1      21.797   0.011  52.527  1.00  0.00     0.113 A 
BRANCH  24  25
HETATM   25  O1  UNL     1      23.144  -0.151  52.762  1.00  0.00    -0.357 OA
HETATM   26  H24 UNL     1      23.561  -1.050  52.951  1.00  0.00     0.217 HD
ENDBRANCH  24  25
ENDBRANCH  17  18
ENDBRANCH  16  17
ENDBRANCH   1  16
TORSDOF 11
ENDMDL
MODEL 9
REMARK VINA RESULT:      -6.5      2.344      5.450
REMARK  11 active torsions:
REMARK  status: ('A' for Active; 'I' for Inactive)
REMARK    1  A    between atoms: C2_2  and  C3_3 
REMARK    2  A    between atoms: C3_3  and  C4_4 
REMARK    3  A    between atoms: C4_4  and  N1_5 
REMARK    4  A    between atoms: N1_5  and  C5_6 
REMARK    5  A    between atoms: N1_5  and  S1_15 
REMARK    6  A    between atoms: C5_6  and  C6_7 
REMARK    7  A    between atoms: C6_7  and  N2_8 
REMARK    8  A    between atoms: N2_8  and  C7_9 
REMARK    9  A    between atoms: S1_15  and  C13_16 
REMARK   10  A    between atoms: C13_16  and  C14_17 
REMARK   11  A    between atoms: C18_23  and  O1_24 
ROOT
HETATM    1  N1  UNL     1      23.302   1.750  52.047  1.00  0.00    -0.257 NA
ENDROOT
BRANCH   1   2
HETATM    2  C4  UNL     1      22.778   0.460  52.419  1.00  0.00     0.103 C 
BRANCH   2   3
HETATM    3  C3  UNL     1      21.573   0.649  53.310  1.00  0.00     0.015 C 
BRANCH   3   4
HETATM    4  C2  UNL     1      21.241  -0.588  54.099  1.00  0.00    -0.003 C 
HETATM    5  C1  UNL     1      22.436  -1.033  54.917  1.00  0.00     0.005 C 
ENDBRANCH   3   4
ENDBRANCH   2   3
ENDBRANCH   1   2
BRANCH   1   6
HETATM    6  C5  UNL     1      24.297   2.233  52.979  1.00  0.00     0.122 C 
BRANCH   6   7
HETATM    7  C6  UNL     1      25.638   2.459  52.365  1.00  0.00     0.135 C 
BRANCH   7   8
HETATM    8  N2  UNL     1      26.651   2.035  53.299  1.00  0.00    -0.389 N 
HETATM    9  H14 UNL     1      26.729   2.630  54.182  1.00  0.00     0.159 HD
BRANCH   8  10
HETATM   10  C7  UNL     1      27.594   0.987  53.319  1.00  0.00     0.027 A 
HETATM   11  C8  UNL     1      28.949   1.162  53.635  1.00  0.00     0.029 A 
HETATM   12  C9  UNL     1      29.793   0.079  53.647  1.00  0.00     0.002 A 
HETATM   13  C10 UNL     1      29.398  -1.208  53.363  1.00  0.00     0.000 A 
HETATM   14  C11 UNL     1      28.081  -1.389  53.054  1.00  0.00     0.002 A 
HETATM   15  C12 UNL     1      27.207  -0.320  53.033  1.00  0.00     0.029 A 
ENDBRANCH   8  10
ENDBRANCH   7   8
ENDBRANCH   6   7
ENDBRANCH   1   6
BRANCH   1  16
HETATM   16  S1  UNL     1      21.965   2.893  52.055  1.00  0.00    -0.076 SA
BRANCH  16  17
HETATM   17  C13 UNL     1      22.607   4.572  52.290  1.00  0.00     0.153 C 
BRANCH  17  18
HETATM   18  C14 UNL     1      23.343   4.963  51.052  1.00  0.00     0.079 A 
HETATM   19  N3  UNL     1      23.219   4.394  49.840  1.00  0.00    -0.262 NA
HETATM   20  C15 UNL     1      23.937   4.833  48.784  1.00  0.00     0.119 A 
HETATM   21  C16 UNL     1      24.841   5.876  48.834  1.00  0.00     0.046 A 
HETATM   22  C17 UNL     1      24.993   6.481  50.062  1.00  0.00     0.070 A 
HETATM   23 CL1  UNL     1      26.101   7.811  50.271  1.00  0.00    -0.081 Cl
HETATM   24  C18 UNL     1      24.242   6.015  51.147  1.00  0.00     0.113 A 
BRANCH  24  25
HETATM   25  O1  UNL     1      24.432   6.656  52.351  1.00  0.00    -0.357 OA
HETATM   26  H24 UNL     1      23.718   6.703  53.063  1.00  0.00     0.217 HD
ENDBRANCH  24  25
ENDBRANCH  17  18
ENDBRANCH  16  17
ENDBRANCH   1  16
TORSDOF 11
ENDMDL
