MODEL 1
REMARK VINA RESULT:      -8.5      0.000      0.000
REMARK  6 active torsions:
REMARK  status: ('A' for Active; 'I' for Inactive)
REMARK    1  A    between atoms: O1_2  and  C2_3 
REMARK    2  A    between atoms: C7_8  and  O2_9 
REMARK    3  A    between atoms: N2_14  and  C11_15 
REMARK    4  A    between atoms: C14_18  and  C15_19 
REMARK    5  A    between atoms: N3_20  and  C16_21 
REMARK    6  A    between atoms: C22_27  and  S1_28 
ROOT
HETATM    1  C11 UNL     1      24.563   4.672  49.771  1.00  0.00     0.017 A 
HETATM    2  C12 UNL     1      23.798   5.171  48.809  1.00  0.00     0.026 A 
HETATM    3  C13 UNL     1      24.472   6.293  48.157  1.00  0.00     0.011 A 
HETATM    4  C14 UNL     1      25.634   6.420  48.769  1.00  0.00    -0.035 A 
HETATM    5  C23 UNL     1      25.842   5.427  49.852  1.00  0.00     0.097 A 
ENDROOT
BRANCH   1   6
HETATM    6  N2  UNL     1      24.513   3.630  50.739  1.00  0.00    -0.336 N 
HETATM    7  C9  UNL     1      23.311   3.498  51.537  1.00  0.00     0.209 A 
HETATM    8  N1  UNL     1      23.480   2.391  52.437  1.00  0.00    -0.263 NA
HETATM    9  C10 UNL     1      22.970   4.782  52.267  1.00  0.00     0.058 C 
HETATM   10  C5  UNL     1      24.559   1.693  52.455  1.00  0.00     0.068 A 
HETATM   11  C4  UNL     1      25.693   1.834  51.689  1.00  0.00     0.011 A 
HETATM   12  C6  UNL     1      24.537   0.672  53.385  1.00  0.00     0.071 A 
HETATM   13  C3  UNL     1      26.744   0.973  51.871  1.00  0.00     0.054 A 
HETATM   14  C24 UNL     1      25.670   2.823  50.812  1.00  0.00     0.107 A 
HETATM   15  C2  UNL     1      26.731  -0.051  52.798  1.00  0.00     0.102 A 
HETATM   16  C7  UNL     1      25.608  -0.198  53.564  1.00  0.00     0.103 A 
BRANCH  15  17
HETATM   17  O1  UNL     1      27.821  -0.896  52.943  1.00  0.00    -0.353 OA
HETATM   18  C1  UNL     1      28.957  -0.527  53.672  1.00  0.00     0.210 C 
ENDBRANCH  15  17
BRANCH  16  19
HETATM   19  O2  UNL     1      25.618  -1.234  54.490  1.00  0.00    -0.353 OA
HETATM   20  C8  UNL     1      24.691  -1.227  55.556  1.00  0.00     0.210 C 
ENDBRANCH  16  19
ENDBRANCH   1   6
BRANCH   4  21
HETATM   21  C15 UNL     1      26.654   7.387  48.484  1.00  0.00     0.123 C 
HETATM   22  N3  UNL     1      27.871   7.558  48.143  1.00  0.00    -0.272 NA
BRANCH  22  23
HETATM   23  C16 UNL     1      28.713   6.444  47.902  1.00  0.00     0.124 C 
HETATM   24  C17 UNL     1      30.010   6.509  48.205  1.00  0.00    -0.021 A 
HETATM   25  C18 UNL     1      30.888   5.335  47.950  1.00  0.00     0.068 A 
HETATM   26  C22 UNL     1      30.566   7.725  48.784  1.00  0.00     0.005 A 
HETATM   27  C19 UNL     1      32.276   5.658  48.368  1.00  0.00    -0.022 A 
HETATM   28  C20 UNL     1      32.768   6.767  48.892  1.00  0.00    -0.002 A 
HETATM   29  C21 UNL     1      31.838   7.868  49.109  1.00  0.00     0.018 A 
BRANCH  26  30
HETATM   30  S1  UNL     1      29.499   9.102  49.077  1.00  0.00    -0.142 SA
HETATM   31  H22 UNL     1      28.452   8.796  49.964  1.00  0.00     0.107 HD
ENDBRANCH  26  30
ENDBRANCH  22  23
ENDBRANCH   4  21
TORSDOF 6
ENDMDL
MODEL 2
REMARK VINA RESULT:      -8.4      1.661      2.231
REMARK  6 active torsions:
REMARK  status: ('A' for Active; 'I' for Inactive)
REMARK    1  A    between atoms: O1_2  and  C2_3 
REMARK    2  A    between atoms: C7_8  and  O2_9 
REMARK    3  A    between atoms: N2_14  and  C11_15 
REMARK    4  A    between atoms: C14_18  and  C15_19 
REMARK    5  A    between atoms: N3_20  and  C16_21 
REMARK    6  A    between atoms: C22_27  and  S1_28 
ROOT
HETATM    1  C11 UNL     1      25.727   4.569  49.869  1.00  0.00     0.017 A 
HETATM    2  C12 UNL     1      25.112   5.534  49.198  1.00  0.00     0.026 A 
HETATM    3  C13 UNL     1      26.070   6.258  48.364  1.00  0.00     0.011 A 
HETATM    4  C14 UNL     1      27.240   5.685  48.576  1.00  0.00    -0.035 A 
HETATM    5  C23 UNL     1      27.178   4.559  49.540  1.00  0.00     0.097 A 
ENDROOT
BRANCH   1   6
HETATM    6  N2  UNL     1      25.401   3.548  50.806  1.00  0.00    -0.336 N 
HETATM    7  C9  UNL     1      24.046   3.499  51.317  1.00  0.00     0.209 A 
HETATM    8  N1  UNL     1      23.944   2.400  52.236  1.00  0.00    -0.263 NA
HETATM    9  C10 UNL     1      23.630   4.814  51.948  1.00  0.00     0.058 C 
HETATM   10  C5  UNL     1      24.948   1.641  52.496  1.00  0.00     0.068 A 
HETATM   11  C4  UNL     1      26.231   1.703  52.001  1.00  0.00     0.011 A 
HETATM   12  C6  UNL     1      24.658   0.639  53.402  1.00  0.00     0.071 A 
HETATM   13  C3  UNL     1      27.161   0.786  52.417  1.00  0.00     0.054 A 
HETATM   14  C24 UNL     1      26.462   2.677  51.138  1.00  0.00     0.107 A 
HETATM   15  C2  UNL     1      26.880  -0.219  53.321  1.00  0.00     0.102 A 
HETATM   16  C7  UNL     1      25.609  -0.288  53.818  1.00  0.00     0.103 A 
BRANCH  15  17
HETATM   17  O1  UNL     1      27.858  -1.124  53.709  1.00  0.00    -0.353 OA
HETATM   18  C1  UNL     1      29.211  -0.773  53.782  1.00  0.00     0.210 C 
ENDBRANCH  15  17
BRANCH  16  19
HETATM   19  O2  UNL     1      25.350  -1.307  54.727  1.00  0.00    -0.353 OA
HETATM   20  C8  UNL     1      24.152  -1.289  55.475  1.00  0.00     0.210 C 
ENDBRANCH  16  19
ENDBRANCH   1   6
BRANCH   4  21
HETATM   21  C15 UNL     1      28.494   6.046  47.981  1.00  0.00     0.123 C 
HETATM   22  N3  UNL     1      29.388   6.951  47.886  1.00  0.00    -0.272 NA
BRANCH  22  23
HETATM   23  C16 UNL     1      29.252   8.172  48.592  1.00  0.00     0.124 C 
HETATM   24  C17 UNL     1      30.066   9.193  48.324  1.00  0.00    -0.021 A 
HETATM   25  C18 UNL     1      29.918  10.472  49.070  1.00  0.00     0.068 A 
HETATM   26  C22 UNL     1      31.098   9.057  47.304  1.00  0.00     0.005 A 
HETATM   27  C19 UNL     1      30.936  11.442  48.591  1.00  0.00    -0.022 A 
HETATM   28  C20 UNL     1      31.867  11.306  47.664  1.00  0.00    -0.002 A 
HETATM   29  C21 UNL     1      31.943  10.020  46.982  1.00  0.00     0.018 A 
BRANCH  26  30
HETATM   30  S1  UNL     1      31.250   7.528  46.434  1.00  0.00    -0.142 SA
HETATM   31  H22 UNL     1      30.701   7.583  45.141  1.00  0.00     0.107 HD
ENDBRANCH  26  30
ENDBRANCH  22  23
ENDBRANCH   4  21
TORSDOF 6
ENDMDL
MODEL 3
REMARK VINA RESULT:      -8.3      1.794      2.541
REMARK  6 active torsions:
REMARK  status: ('A' for Active; 'I' for Inactive)
REMARK    1  A    between atoms: O1_2  and  C2_3 
REMARK    2  A    between atoms: C7_8  and  O2_9 
REMARK    3  A    between atoms: N2_14  and  C11_15 
REMARK    4  A    between atoms: C14_18  and  C15_19 
REMARK    5  A    between atoms: N3_20  and  C16_21 
REMARK    6  A    between atoms: C22_27  and  S1_28 
ROOT
HETATM    1  C11 UNL     1      26.320   5.467  48.918  1.00  0.00     0.017 A 
HETATM    2  C12 UNL     1      25.945   6.499  48.174  1.00  0.00     0.026 A 
HETATM    3  C13 UNL     1      27.119   7.203  47.660  1.00  0.00     0.011 A 
HETATM    4  C14 UNL     1      28.165   6.550  48.127  1.00  0.00    -0.035 A 
HETATM    5  C23 UNL     1      27.804   5.383  48.970  1.00  0.00     0.097 A 
ENDROOT
BRANCH   1   6
HETATM    6  N2  UNL     1      25.714   4.424  49.675  1.00  0.00    -0.336 N 
HETATM    7  C9  UNL     1      24.270   4.412  49.787  1.00  0.00     0.209 A 
HETATM    8  N1  UNL     1      23.883   3.282  50.584  1.00  0.00    -0.263 NA
HETATM    9  C10 UNL     1      23.733   5.716  50.344  1.00  0.00     0.058 C 
HETATM   10  C5  UNL     1      24.752   2.471  51.074  1.00  0.00     0.068 A 
HETATM   11  C4  UNL     1      26.123   2.498  50.958  1.00  0.00     0.011 A 
HETATM   12  C6  UNL     1      24.192   1.446  51.811  1.00  0.00     0.071 A 
HETATM   13  C3  UNL     1      26.873   1.526  51.568  1.00  0.00     0.054 A 
HETATM   14  C24 UNL     1      26.615   3.496  50.244  1.00  0.00     0.107 A 
HETATM   15  C2  UNL     1      26.321   0.498  52.306  1.00  0.00     0.102 A 
HETATM   16  C7  UNL     1      24.960   0.463  52.428  1.00  0.00     0.103 A 
BRANCH  15  17
HETATM   17  O1  UNL     1      27.125  -0.462  52.904  1.00  0.00    -0.353 OA
HETATM   18  C1  UNL     1      27.927  -0.176  54.014  1.00  0.00     0.210 C 
ENDBRANCH  15  17
BRANCH  16  19
HETATM   19  O2  UNL     1      24.428  -0.580  53.176  1.00  0.00    -0.353 OA
HETATM   20  C8  UNL     1      23.166  -0.427  53.790  1.00  0.00     0.210 C 
ENDBRANCH  16  19
ENDBRANCH   1   6
BRANCH   4  21
HETATM   21  C15 UNL     1      29.546   6.861  47.896  1.00  0.00     0.123 C 
HETATM   22  N3  UNL     1      30.697   6.384  47.620  1.00  0.00    -0.272 NA
BRANCH  22  23
HETATM   23  C16 UNL     1      30.869   4.991  47.428  1.00  0.00     0.124 C 
HETATM   24  C17 UNL     1      32.092   4.459  47.456  1.00  0.00    -0.021 A 
HETATM   25  C18 UNL     1      32.265   2.995  47.253  1.00  0.00     0.068 A 
HETATM   26  C22 UNL     1      33.254   5.308  47.683  1.00  0.00     0.005 A 
HETATM   27  C19 UNL     1      33.710   2.656  47.327  1.00  0.00    -0.022 A 
HETATM   28  C20 UNL     1      34.755   3.437  47.534  1.00  0.00    -0.002 A 
HETATM   29  C21 UNL     1      34.495   4.858  47.724  1.00  0.00     0.018 A 
BRANCH  26  30
HETATM   30  S1  UNL     1      33.016   7.042  47.922  1.00  0.00    -0.142 SA
HETATM   31  H22 UNL     1      34.203   7.706  48.281  1.00  0.00     0.107 HD
ENDBRANCH  26  30
ENDBRANCH  22  23
ENDBRANCH   4  21
TORSDOF 6
ENDMDL
MODEL 4
REMARK VINA RESULT:      -8.2      3.019      4.294
REMARK  6 active torsions:
REMARK  status: ('A' for Active; 'I' for Inactive)
REMARK    1  A    between atoms: O1_2  and  C2_3 
REMARK    2  A    between atoms: C7_8  and  O2_9 
REMARK    3  A    between atoms: N2_14  and  C11_15 
REMARK    4  A    between atoms: C14_18  and  C15_19 
REMARK    5  A    between atoms: N3_20  and  C16_21 
REMARK    6  A    between atoms: C22_27  and  S1_28 
ROOT
HETATM    1  C11 UNL     1      25.799   3.818  50.067  1.00  0.00     0.017 A 
HETATM    2  C12 UNL     1      26.864   3.738  49.280  1.00  0.00     0.026 A 
HETATM    3  C13 UNL     1      27.164   5.047  48.702  1.00  0.00     0.011 A 
HETATM    4  C14 UNL     1      26.249   5.870  49.178  1.00  0.00    -0.035 A 
HETATM    5  C23 UNL     1      25.282   5.212  50.091  1.00  0.00     0.097 A 
ENDROOT
BRANCH   1   6
HETATM    6  N2  UNL     1      25.017   2.960  50.892  1.00  0.00    -0.336 N 
HETATM    7  C9  UNL     1      25.589   2.510  52.144  1.00  0.00     0.209 A 
HETATM    8  N1  UNL     1      24.634   1.666  52.806  1.00  0.00    -0.263 NA
HETATM    9  C10 UNL     1      26.923   1.817  51.943  1.00  0.00     0.058 C 
HETATM   10  C5  UNL     1      23.485   1.412  52.289  1.00  0.00     0.068 A 
HETATM   11  C4  UNL     1      22.958   1.848  51.095  1.00  0.00     0.011 A 
HETATM   12  C6  UNL     1      22.703   0.582  53.070  1.00  0.00     0.071 A 
HETATM   13  C3  UNL     1      21.697   1.451  50.727  1.00  0.00     0.054 A 
HETATM   14  C24 UNL     1      23.740   2.639  50.381  1.00  0.00     0.107 A 
HETATM   15  C2  UNL     1      20.909   0.624  51.501  1.00  0.00     0.102 A 
HETATM   16  C7  UNL     1      21.425   0.185  52.689  1.00  0.00     0.103 A 
BRANCH  15  17
HETATM   17  O1  UNL     1      19.640   0.252  51.084  1.00  0.00    -0.353 OA
HETATM   18  C1  UNL     1      18.954   0.942  50.078  1.00  0.00     0.210 C 
ENDBRANCH  15  17
BRANCH  16  19
HETATM   19  O2  UNL     1      20.614  -0.647  53.451  1.00  0.00    -0.353 OA
HETATM   20  C8  UNL     1      21.202  -1.568  54.346  1.00  0.00     0.210 C 
ENDBRANCH  16  19
ENDBRANCH   1   6
BRANCH   4  21
HETATM   21  C15 UNL     1      26.125   7.271  48.898  1.00  0.00     0.123 C 
HETATM   22  N3  UNL     1      26.743   8.385  48.825  1.00  0.00    -0.272 NA
BRANCH  22  23
HETATM   23  C16 UNL     1      28.132   8.455  49.097  1.00  0.00     0.124 C 
HETATM   24  C17 UNL     1      28.762   9.629  49.058  1.00  0.00    -0.021 A 
HETATM   25  C18 UNL     1      30.221   9.695  49.345  1.00  0.00     0.068 A 
HETATM   26  C22 UNL     1      28.025  10.844  48.735  1.00  0.00     0.005 A 
HETATM   27  C19 UNL     1      30.681  11.103  49.236  1.00  0.00    -0.022 A 
HETATM   28  C20 UNL     1      30.001  12.197  48.942  1.00  0.00    -0.002 A 
HETATM   29  C21 UNL     1      28.577  12.043  48.675  1.00  0.00     0.018 A 
BRANCH  26  30
HETATM   30  S1  UNL     1      26.295  10.735  48.400  1.00  0.00    -0.142 SA
HETATM   31  H22 UNL     1      25.970  11.135  47.091  1.00  0.00     0.107 HD
ENDBRANCH  26  30
ENDBRANCH  22  23
ENDBRANCH   4  21
TORSDOF 6
ENDMDL
MODEL 5
REMARK VINA RESULT:      -8.2      6.834     11.174
REMARK  6 active torsions:
REMARK  status: ('A' for Active; 'I' for Inactive)
REMARK    1  A    between atoms: O1_2  and  C2_3 
REMARK    2  A    between atoms: C7_8  and  O2_9 
REMARK    3  A    between atoms: N2_14  and  C11_15 
REMARK    4  A    between atoms: C14_18  and  C15_19 
REMARK    5  A    between atoms: N3_20  and  C16_21 
REMARK    6  A    between atoms: C22_27  and  S1_28 
ROOT
HETATM    1  C11 UNL     1      19.862   1.141  51.108  1.00  0.00     0.017 A 
HETATM    2  C12 UNL     1      19.347   0.904  49.909  1.00  0.00     0.026 A 
HETATM    3  C13 UNL     1      17.935   0.545  50.029  1.00  0.00     0.011 A 
HETATM    4  C14 UNL     1      17.660   0.583  51.319  1.00  0.00    -0.035 A 
HETATM    5  C23 UNL     1      18.825   0.960  52.158  1.00  0.00     0.097 A 
ENDROOT
BRANCH   1   6
HETATM    6  N2  UNL     1      21.114   1.517  51.674  1.00  0.00    -0.336 N 
HETATM    7  C9  UNL     1      21.397   2.929  51.826  1.00  0.00     0.209 A 
HETATM    8  N1  UNL     1      22.699   3.074  52.414  1.00  0.00    -0.263 NA
HETATM    9  C10 UNL     1      21.275   3.677  50.512  1.00  0.00     0.058 C 
HETATM   10  C5  UNL     1      23.420   2.053  52.719  1.00  0.00     0.068 A 
HETATM   11  C4  UNL     1      23.134   0.716  52.566  1.00  0.00     0.011 A 
HETATM   12  C6  UNL     1      24.640   2.390  53.273  1.00  0.00     0.071 A 
HETATM   13  C3  UNL     1      24.054  -0.221  52.961  1.00  0.00     0.054 A 
HETATM   14  C24 UNL     1      21.957   0.441  52.032  1.00  0.00     0.107 A 
HETATM   15  C2  UNL     1      25.275   0.106  53.516  1.00  0.00     0.102 A 
HETATM   16  C7  UNL     1      25.567   1.432  53.671  1.00  0.00     0.103 A 
BRANCH  15  17
HETATM   17  O1  UNL     1      26.172  -0.881  53.900  1.00  0.00    -0.353 OA
HETATM   18  C1  UNL     1      26.962  -1.571  52.974  1.00  0.00     0.210 C 
ENDBRANCH  15  17
BRANCH  16  19
HETATM   19  O2  UNL     1      26.802   1.737  54.232  1.00  0.00    -0.353 OA
HETATM   20  C8  UNL     1      27.836   2.242  53.413  1.00  0.00     0.210 C 
ENDBRANCH  16  19
ENDBRANCH   1   6
BRANCH   4  21
HETATM   21  C15 UNL     1      16.397   0.305  51.937  1.00  0.00     0.123 C 
HETATM   22  N3  UNL     1      15.350   0.814  52.459  1.00  0.00    -0.272 NA
BRANCH  22  23
HETATM   23  C16 UNL     1      15.202   2.221  52.546  1.00  0.00     0.124 C 
HETATM   24  C17 UNL     1      14.129   2.744  53.141  1.00  0.00    -0.021 A 
HETATM   25  C18 UNL     1      13.981   4.222  53.229  1.00  0.00     0.068 A 
HETATM   26  C22 UNL     1      13.105   1.872  53.700  1.00  0.00     0.005 A 
HETATM   27  C19 UNL     1      12.712   4.549  53.927  1.00  0.00    -0.022 A 
HETATM   28  C20 UNL     1      11.790   3.747  54.431  1.00  0.00    -0.002 A 
HETATM   29  C21 UNL     1      12.015   2.313  54.301  1.00  0.00     0.018 A 
BRANCH  26  30
HETATM   30  S1  UNL     1      13.309   0.122  53.581  1.00  0.00    -0.142 SA
HETATM   31  H22 UNL     1      13.363  -0.328  52.250  1.00  0.00     0.107 HD
ENDBRANCH  26  30
ENDBRANCH  22  23
ENDBRANCH   4  21
TORSDOF 6
ENDMDL
MODEL 6
REMARK VINA RESULT:      -8.1      6.212     10.668
REMARK  6 active torsions:
REMARK  status: ('A' for Active; 'I' for Inactive)
REMARK    1  A    between atoms: O1_2  and  C2_3 
REMARK    2  A    between atoms: C7_8  and  O2_9 
REMARK    3  A    between atoms: N2_14  and  C11_15 
REMARK    4  A    between atoms: C14_18  and  C15_19 
REMARK    5  A    between atoms: N3_20  and  C16_21 
REMARK    6  A    between atoms: C22_27  and  S1_28 
ROOT
HETATM    1  C11 UNL     1      20.453  -0.100  52.570  1.00  0.00     0.017 A 
HETATM    2  C12 UNL     1      19.478  -0.838  53.083  1.00  0.00     0.026 A 
HETATM    3  C13 UNL     1      18.197  -0.468  52.485  1.00  0.00     0.011 A 
HETATM    4  C14 UNL     1      18.465   0.494  51.623  1.00  0.00    -0.035 A 
HETATM    5  C23 UNL     1      19.905   0.847  51.563  1.00  0.00     0.097 A 
ENDROOT
BRANCH   1   6
HETATM    6  N2  UNL     1      21.864   0.044  52.704  1.00  0.00    -0.336 N 
HETATM    7  C9  UNL     1      22.566  -0.887  53.563  1.00  0.00     0.209 A 
HETATM    8  N1  UNL     1      23.964  -0.559  53.546  1.00  0.00    -0.263 NA
HETATM    9  C10 UNL     1      21.998  -0.902  54.969  1.00  0.00     0.058 C 
HETATM   10  C5  UNL     1      24.420   0.421  52.850  1.00  0.00     0.068 A 
HETATM   11  C4  UNL     1      23.736   1.298  52.039  1.00  0.00     0.011 A 
HETATM   12  C6  UNL     1      25.788   0.583  52.959  1.00  0.00     0.071 A 
HETATM   13  C3  UNL     1      24.423   2.285  51.379  1.00  0.00     0.054 A 
HETATM   14  C24 UNL     1      22.431   1.106  51.964  1.00  0.00     0.107 A 
HETATM   15  C2  UNL     1      25.789   2.454  51.483  1.00  0.00     0.102 A 
HETATM   16  C7  UNL     1      26.476   1.588  52.286  1.00  0.00     0.103 A 
BRANCH  15  17
HETATM   17  O1  UNL     1      26.437   3.469  50.794  1.00  0.00    -0.353 OA
HETATM   18  C1  UNL     1      26.515   3.490  49.397  1.00  0.00     0.210 C 
ENDBRANCH  15  17
BRANCH  16  19
HETATM   19  O2  UNL     1      27.850   1.777  52.375  1.00  0.00    -0.353 OA
HETATM   20  C8  UNL     1      28.401   2.372  53.531  1.00  0.00     0.210 C 
ENDBRANCH  16  19
ENDBRANCH   1   6
BRANCH   4  21
HETATM   21  C15 UNL     1      17.527   1.185  50.787  1.00  0.00     0.123 C 
HETATM   22  N3  UNL     1      16.695   2.150  50.718  1.00  0.00    -0.272 NA
BRANCH  22  23
HETATM   23  C16 UNL     1      16.483   2.996  51.835  1.00  0.00     0.124 C 
HETATM   24  C17 UNL     1      15.243   3.326  52.197  1.00  0.00    -0.021 A 
HETATM   25  C18 UNL     1      15.028   4.215  53.371  1.00  0.00     0.068 A 
HETATM   26  C22 UNL     1      14.102   2.819  51.445  1.00  0.00     0.005 A 
HETATM   27  C19 UNL     1      13.571   4.432  53.563  1.00  0.00    -0.022 A 
HETATM   28  C20 UNL     1      12.545   3.966  52.873  1.00  0.00    -0.002 A 
HETATM   29  C21 UNL     1      12.846   3.101  51.738  1.00  0.00     0.018 A 
BRANCH  26  30
HETATM   30  S1  UNL     1      14.389   1.765  50.057  1.00  0.00    -0.142 SA
HETATM   31  H22 UNL     1      13.291   1.715  49.179  1.00  0.00     0.107 HD
ENDBRANCH  26  30
ENDBRANCH  22  23
ENDBRANCH   4  21
TORSDOF 6
ENDMDL
MODEL 7
REMARK VINA RESULT:      -8.1      3.814      8.080
REMARK  6 active torsions:
REMARK  status: ('A' for Active; 'I' for Inactive)
REMARK    1  A    between atoms: O1_2  and  C2_3 
REMARK    2  A    between atoms: C7_8  and  O2_9 
REMARK    3  A    between atoms: N2_14  and  C11_15 
REMARK    4  A    between atoms: C14_18  and  C15_19 
REMARK    5  A    between atoms: N3_20  and  C16_21 
REMARK    6  A    between atoms: C22_27  and  S1_28 
ROOT
HETATM    1  C11 UNL     1      25.306   4.694  49.281  1.00  0.00     0.017 A 
HETATM    2  C12 UNL     1      24.022   4.454  49.051  1.00  0.00     0.026 A 
HETATM    3  C13 UNL     1      23.565   3.329  49.864  1.00  0.00     0.011 A 
HETATM    4  C14 UNL     1      24.615   2.936  50.560  1.00  0.00    -0.035 A 
HETATM    5  C23 UNL     1      25.835   3.736  50.288  1.00  0.00     0.097 A 
ENDROOT
BRANCH   1   6
HETATM    6  N2  UNL     1      26.315   5.599  48.845  1.00  0.00    -0.336 N 
HETATM    7  C9  UNL     1      25.956   6.993  48.679  1.00  0.00     0.209 A 
HETATM    8  N1  UNL     1      27.117   7.715  48.240  1.00  0.00    -0.263 NA
HETATM    9  C10 UNL     1      24.782   7.168  47.735  1.00  0.00     0.058 C 
HETATM   10  C5  UNL     1      28.247   7.129  48.054  1.00  0.00     0.068 A 
HETATM   11  C4  UNL     1      28.570   5.802  48.216  1.00  0.00     0.011 A 
HETATM   12  C6  UNL     1      29.245   7.986  47.633  1.00  0.00     0.071 A 
HETATM   13  C3  UNL     1      29.849   5.381  47.958  1.00  0.00     0.054 A 
HETATM   14  C24 UNL     1      27.584   5.020  48.620  1.00  0.00     0.107 A 
HETATM   15  C2  UNL     1      30.853   6.229  47.537  1.00  0.00     0.102 A 
HETATM   16  C7  UNL     1      30.541   7.550  47.373  1.00  0.00     0.103 A 
BRANCH  15  17
HETATM   17  O1  UNL     1      32.133   5.753  47.290  1.00  0.00    -0.353 OA
HETATM   18  C1  UNL     1      32.943   5.233  48.305  1.00  0.00     0.210 C 
ENDBRANCH  15  17
BRANCH  16  19
HETATM   19  O2  UNL     1      31.568   8.384  46.949  1.00  0.00    -0.353 OA
HETATM   20  C8  UNL     1      32.172   9.272  47.867  1.00  0.00     0.210 C 
ENDBRANCH  16  19
ENDBRANCH   1   6
BRANCH   4  21
HETATM   21  C15 UNL     1      24.666   1.858  51.504  1.00  0.00     0.123 C 
HETATM   22  N3  UNL     1      25.332   1.327  52.455  1.00  0.00    -0.272 NA
BRANCH  22  23
HETATM   23  C16 UNL     1      26.548   1.907  52.892  1.00  0.00     0.124 C 
HETATM   24  C17 UNL     1      27.595   1.131  53.175  1.00  0.00    -0.021 A 
HETATM   25  C18 UNL     1      28.869   1.748  53.634  1.00  0.00     0.068 A 
HETATM   26  C22 UNL     1      27.491  -0.315  53.038  1.00  0.00     0.005 A 
HETATM   27  C19 UNL     1      29.871   0.680  53.884  1.00  0.00    -0.022 A 
HETATM   28  C20 UNL     1      29.763  -0.630  53.756  1.00  0.00    -0.002 A 
HETATM   29  C21 UNL     1      28.480  -1.150  53.301  1.00  0.00     0.018 A 
BRANCH  26  30
HETATM   30  S1  UNL     1      25.966  -1.019  52.491  1.00  0.00    -0.142 SA
HETATM   31  H22 UNL     1      25.748  -0.834  51.114  1.00  0.00     0.107 HD
ENDBRANCH  26  30
ENDBRANCH  22  23
ENDBRANCH   4  21
TORSDOF 6
ENDMDL
MODEL 8
REMARK VINA RESULT:      -8.1      4.042      9.501
REMARK  6 active torsions:
REMARK  status: ('A' for Active; 'I' for Inactive)
REMARK    1  A    between atoms: O1_2  and  C2_3 
REMARK    2  A    between atoms: C7_8  and  O2_9 
REMARK    3  A    between atoms: N2_14  and  C11_15 
REMARK    4  A    between atoms: C14_18  and  C15_19 
REMARK    5  A    between atoms: N3_20  and  C16_21 
REMARK    6  A    between atoms: C22_27  and  S1_28 
ROOT
HETATM    1  C11 UNL     1      25.818   4.834  49.245  1.00  0.00     0.017 A 
HETATM    2  C12 UNL     1      24.516   4.661  49.066  1.00  0.00     0.026 A 
HETATM    3  C13 UNL     1      24.042   3.533  49.866  1.00  0.00     0.011 A 
HETATM    4  C14 UNL     1      25.101   3.071  50.502  1.00  0.00    -0.035 A 
HETATM    5  C23 UNL     1      26.344   3.822  50.199  1.00  0.00     0.097 A 
ENDROOT
BRANCH   1   6
HETATM    6  N2  UNL     1      26.850   5.705  48.791  1.00  0.00    -0.336 N 
HETATM    7  C9  UNL     1      26.539   7.112  48.645  1.00  0.00     0.209 A 
HETATM    8  N1  UNL     1      27.715   7.794  48.183  1.00  0.00    -0.263 NA
HETATM    9  C10 UNL     1      25.350   7.339  47.732  1.00  0.00     0.058 C 
HETATM   10  C5  UNL     1      28.817   7.169  47.964  1.00  0.00     0.068 A 
HETATM   11  C4  UNL     1      29.094   5.829  48.107  1.00  0.00     0.011 A 
HETATM   12  C6  UNL     1      29.837   7.991  47.525  1.00  0.00     0.071 A 
HETATM   13  C3  UNL     1      30.350   5.363  47.814  1.00  0.00     0.054 A 
HETATM   14  C24 UNL     1      28.090   5.081  48.530  1.00  0.00     0.107 A 
HETATM   15  C2  UNL     1      31.375   6.177  47.375  1.00  0.00     0.102 A 
HETATM   16  C7  UNL     1      31.108   7.510  47.229  1.00  0.00     0.103 A 
BRANCH  15  17
HETATM   17  O1  UNL     1      32.629   5.655  47.092  1.00  0.00    -0.353 OA
HETATM   18  C1  UNL     1      33.546   5.333  48.098  1.00  0.00     0.210 C 
ENDBRANCH  15  17
BRANCH  16  19
HETATM   19  O2  UNL     1      32.155   8.309  46.786  1.00  0.00    -0.353 OA
HETATM   20  C8  UNL     1      32.145   9.693  47.068  1.00  0.00     0.210 C 
ENDBRANCH  16  19
ENDBRANCH   1   6
BRANCH   4  21
HETATM   21  C15 UNL     1      25.142   1.963  51.411  1.00  0.00     0.123 C 
HETATM   22  N3  UNL     1      24.449   1.093  52.036  1.00  0.00    -0.272 NA
BRANCH  22  23
HETATM   23  C16 UNL     1      23.040   1.056  51.889  1.00  0.00     0.124 C 
HETATM   24  C17 UNL     1      22.305   0.275  52.682  1.00  0.00    -0.021 A 
HETATM   25  C18 UNL     1      20.826   0.242  52.522  1.00  0.00     0.068 A 
HETATM   26  C22 UNL     1      22.949  -0.543  53.702  1.00  0.00     0.005 A 
HETATM   27  C19 UNL     1      20.245  -0.698  53.514  1.00  0.00    -0.022 A 
HETATM   28  C20 UNL     1      20.840  -1.436  54.434  1.00  0.00    -0.002 A 
HETATM   29  C21 UNL     1      22.292  -1.342  54.523  1.00  0.00     0.018 A 
BRANCH  26  30
HETATM   30  S1  UNL     1      24.706  -0.482  53.869  1.00  0.00    -0.142 SA
HETATM   31  H22 UNL     1      25.126   0.450  54.834  1.00  0.00     0.107 HD
ENDBRANCH  26  30
ENDBRANCH  22  23
ENDBRANCH   4  21
TORSDOF 6
ENDMDL
MODEL 9
REMARK VINA RESULT:      -8.1      3.739      8.817
REMARK  6 active torsions:
REMARK  status: ('A' for Active; 'I' for Inactive)
REMARK    1  A    between atoms: O1_2  and  C2_3 
REMARK    2  A    between atoms: C7_8  and  O2_9 
REMARK    3  A    between atoms: N2_14  and  C11_15 
REMARK    4  A    between atoms: C14_18  and  C15_19 
REMARK    5  A    between atoms: N3_20  and  C16_21 
REMARK    6  A    between atoms: C22_27  and  S1_28 
ROOT
HETATM    1  C11 UNL     1      27.220   6.576  48.850  1.00  0.00     0.017 A 
HETATM    2  C12 UNL     1      26.351   7.326  49.515  1.00  0.00     0.026 A 
HETATM    3  C13 UNL     1      25.275   6.496  50.052  1.00  0.00     0.011 A 
HETATM    4  C14 UNL     1      25.551   5.260  49.680  1.00  0.00    -0.035 A 
HETATM    5  C23 UNL     1      26.799   5.150  48.885  1.00  0.00     0.097 A 
ENDROOT
BRANCH   1   6
HETATM    6  N2  UNL     1      28.432   6.742  48.121  1.00  0.00    -0.336 N 
HETATM    7  C9  UNL     1      28.626   7.979  47.393  1.00  0.00     0.209 A 
HETATM    8  N1  UNL     1      29.904   7.929  46.741  1.00  0.00    -0.263 NA
HETATM    9  C10 UNL     1      27.495   8.248  46.419  1.00  0.00     0.058 C 
HETATM   10  C5  UNL     1      30.678   6.908  46.847  1.00  0.00     0.068 A 
HETATM   11  C4  UNL     1      30.476   5.739  47.543  1.00  0.00     0.011 A 
HETATM   12  C6  UNL     1      31.863   7.043  46.150  1.00  0.00     0.071 A 
HETATM   13  C3  UNL     1      31.440   4.764  47.522  1.00  0.00     0.054 A 
HETATM   14  C24 UNL     1      29.329   5.653  48.194  1.00  0.00     0.107 A 
HETATM   15  C2  UNL     1      32.628   4.891  46.829  1.00  0.00     0.102 A 
HETATM   16  C7  UNL     1      32.837   6.049  46.134  1.00  0.00     0.103 A 
BRANCH  15  17
HETATM   17  O1  UNL     1      33.572   3.874  46.840  1.00  0.00    -0.353 OA
HETATM   18  C1  UNL     1      34.491   3.722  47.884  1.00  0.00     0.210 C 
ENDBRANCH  15  17
BRANCH  16  19
HETATM   19  O2  UNL     1      34.038   6.153  45.444  1.00  0.00    -0.353 OA
HETATM   20  C8  UNL     1      34.031   6.224  44.034  1.00  0.00     0.210 C 
ENDBRANCH  16  19
ENDBRANCH   1   6
BRANCH   4  21
HETATM   21  C15 UNL     1      24.784   4.084  49.968  1.00  0.00     0.123 C 
HETATM   22  N3  UNL     1      24.806   2.917  50.483  1.00  0.00    -0.272 NA
BRANCH  22  23
HETATM   23  C16 UNL     1      25.998   2.407  51.055  1.00  0.00     0.124 C 
HETATM   24  C17 UNL     1      25.942   1.411  51.940  1.00  0.00    -0.021 A 
HETATM   25  C18 UNL     1      27.198   0.882  52.537  1.00  0.00     0.068 A 
HETATM   26  C22 UNL     1      24.656   0.844  52.322  1.00  0.00     0.005 A 
HETATM   27  C19 UNL     1      26.869  -0.213  53.486  1.00  0.00    -0.022 A 
HETATM   28  C20 UNL     1      25.696  -0.718  53.824  1.00  0.00    -0.002 A 
HETATM   29  C21 UNL     1      24.517  -0.141  53.191  1.00  0.00     0.018 A 
BRANCH  26  30
HETATM   30  S1  UNL     1      23.182   1.492  51.596  1.00  0.00    -0.142 SA
HETATM   31  H22 UNL     1      22.923   2.818  51.987  1.00  0.00     0.107 HD
ENDBRANCH  26  30
ENDBRANCH  22  23
ENDBRANCH   4  21
TORSDOF 6
ENDMDL
