MODEL 1
REMARK VINA RESULT:      -8.9      0.000      0.000
REMARK  6 active torsions:
REMARK  status: ('A' for Active; 'I' for Inactive)
REMARK    1  A    between atoms: O1_1  and  C1_2 
REMARK    2  A    between atoms: C1_2  and  C2_3 
REMARK    3  A    between atoms: C5_7  and  C6_8 
REMARK    4  A    between atoms: C6_8  and  C7_9 
REMARK    5  A    between atoms: C9_11  and  N2_12 
REMARK    6  A    between atoms: N2_12  and  C10_13 
ROOT
HETATM    1  C7  UNL     1      23.646   1.031  52.268  1.00  0.00    -0.007 C 
HETATM    2  C8  UNL     1      23.310   1.831  51.269  1.00  0.00     0.082 A 
HETATM    3  C9  UNL     1      23.313   2.971  50.523  1.00  0.00     0.474 A 
HETATM    4  N3  UNL     1      22.509   2.963  49.475  1.00  0.00     0.252 N 
HETATM    5  C16 UNL     1      21.614   2.225  48.789  1.00  0.00     0.459 A 
HETATM    6  C17 UNL     1      21.478   1.005  49.410  1.00  0.00     0.107 A 
HETATM    7  C18 UNL     1      22.410   1.682  50.185  1.00  0.00     0.422 A 
HETATM    8  N4  UNL     1      22.355   2.883  49.325  1.00  0.00     0.252 N 
ENDROOT
BRANCH   1   9
HETATM    9  C6  UNL     1      24.613   1.691  53.183  1.00  0.00     0.084 C 
BRANCH   9  10
HETATM   10  C5  UNL     1      25.953   1.066  52.955  1.00  0.00     0.005 C 
HETATM   11  N1  UNL     1      27.069   1.917  53.091  1.00  0.00    -0.390 N 
HETATM   12  C4  UNL     1      28.446   1.779  53.474  1.00  0.00     0.147 C 
HETATM   13  H7  UNL     1      26.893   2.941  52.861  1.00  0.00     0.159 HD
HETATM   14  C3  UNL     1      28.825   0.369  53.516  1.00  0.00    -0.002 C 
HETATM   15  C2  UNL     1      28.413  -0.821  53.119  1.00  0.00    -0.055 C 
HETATM   16  C20 UNL     1      27.179  -1.129  52.360  1.00  0.00     0.065 C 
HETATM   17  C19 UNL     1      26.070  -0.205  52.646  1.00  0.00     0.003 C 
BRANCH  15  18
HETATM   18  C1  UNL     1      29.245  -2.026  53.451  1.00  0.00     0.198 C 
BRANCH  18  19
HETATM   19  O1  UNL     1      28.592  -3.219  53.178  1.00  0.00    -0.397 OA
HETATM   20  H1  UNL     1      27.681  -3.172  53.615  1.00  0.00     0.209 HD
ENDBRANCH  18  19
ENDBRANCH  15  18
ENDBRANCH   9  10
ENDBRANCH   1   9
BRANCH   3  21
HETATM   21  N2  UNL     1      24.315   3.973  51.183  1.00  0.00    -0.326 N 
HETATM   22  H11 UNL     1      24.233   4.245  52.186  1.00  0.00     0.164 HD
BRANCH  21  23
HETATM   23  C10 UNL     1      25.344   4.502  50.309  1.00  0.00     0.033 A 
HETATM   24  C11 UNL     1      26.308   3.636  49.838  1.00  0.00     0.029 A 
HETATM   25  C12 UNL     1      27.245   4.165  48.986  1.00  0.00     0.004 A 
HETATM   26  C13 UNL     1      27.206   5.517  48.624  1.00  0.00     0.019 A 
HETATM   27  C14 UNL     1      26.192   6.319  49.151  1.00  0.00     0.013 A 
HETATM   28 BR1  UNL     1      26.150   8.163  48.648  1.00  0.00    -0.051 Br
HETATM   29  C15 UNL     1      25.234   5.833  50.007  1.00  0.00     0.048 A 
ENDBRANCH  21  23
ENDBRANCH   3  21
TORSDOF 6
ENDMDL
MODEL 2
REMARK VINA RESULT:      -8.8      3.746      6.747
REMARK  6 active torsions:
REMARK  status: ('A' for Active; 'I' for Inactive)
REMARK    1  A    between atoms: O1_1  and  C1_2 
REMARK    2  A    between atoms: C1_2  and  C2_3 
REMARK    3  A    between atoms: C5_7  and  C6_8 
REMARK    4  A    between atoms: C6_8  and  C7_9 
REMARK    5  A    between atoms: C9_11  and  N2_12 
REMARK    6  A    between atoms: N2_12  and  C10_13 
ROOT
HETATM    1  C7  UNL     1      24.745   2.935  49.683  1.00  0.00    -0.007 C 
HETATM    2  C8  UNL     1      24.545   2.550  50.934  1.00  0.00     0.082 A 
HETATM    3  C9  UNL     1      24.864   2.320  52.238  1.00  0.00     0.474 A 
HETATM    4  N3  UNL     1      23.906   1.777  52.966  1.00  0.00     0.252 N 
HETATM    5  C16 UNL     1      22.637   1.321  52.941  1.00  0.00     0.459 A 
HETATM    6  C17 UNL     1      22.137   1.477  51.669  1.00  0.00     0.107 A 
HETATM    7  C18 UNL     1      23.432   1.971  51.591  1.00  0.00     0.422 A 
HETATM    8  N4  UNL     1      23.699   1.690  53.017  1.00  0.00     0.252 N 
ENDROOT
BRANCH   1   9
HETATM    9  C6  UNL     1      26.129   3.440  49.491  1.00  0.00     0.084 C 
BRANCH   9  10
HETATM   10  C5  UNL     1      26.060   4.933  49.410  1.00  0.00     0.005 C 
HETATM   11  N1  UNL     1      24.924   5.536  49.988  1.00  0.00    -0.390 N 
HETATM   12  C4  UNL     1      24.614   6.791  50.612  1.00  0.00     0.147 C 
HETATM   13  H7  UNL     1      24.040   4.943  49.984  1.00  0.00     0.159 HD
HETATM   14  C3  UNL     1      25.689   7.753  50.386  1.00  0.00    -0.002 C 
HETATM   15  C2  UNL     1      26.753   7.950  49.631  1.00  0.00    -0.055 C 
HETATM   16  C20 UNL     1      27.272   7.054  48.572  1.00  0.00     0.065 C 
HETATM   17  C19 UNL     1      27.010   5.629  48.831  1.00  0.00     0.003 C 
BRANCH  15  18
HETATM   18  C1  UNL     1      27.563   9.200  49.827  1.00  0.00     0.198 C 
BRANCH  18  19
HETATM   19  O1  UNL     1      27.697   9.547  51.163  1.00  0.00    -0.397 OA
HETATM   20  H1  UNL     1      27.107   8.923  51.698  1.00  0.00     0.209 HD
ENDBRANCH  18  19
ENDBRANCH  15  18
ENDBRANCH   9  10
ENDBRANCH   1   9
BRANCH   3  21
HETATM   21  N2  UNL     1      26.336   2.795  52.463  1.00  0.00    -0.326 N 
HETATM   22  H11 UNL     1      26.623   3.782  52.291  1.00  0.00     0.164 HD
BRANCH  21  23
HETATM   23  C10 UNL     1      27.265   1.775  52.908  1.00  0.00     0.033 A 
HETATM   24  C11 UNL     1      28.355   2.169  53.655  1.00  0.00     0.029 A 
HETATM   25  C12 UNL     1      29.194   1.172  54.088  1.00  0.00     0.004 A 
HETATM   26  C13 UNL     1      28.939  -0.169  53.778  1.00  0.00     0.019 A 
HETATM   27  C14 UNL     1      27.809  -0.473  53.015  1.00  0.00     0.013 A 
HETATM   28 BR1  UNL     1      27.471  -2.308  52.600  1.00  0.00    -0.051 Br
HETATM   29  C15 UNL     1      26.942   0.491  52.561  1.00  0.00     0.048 A 
ENDBRANCH  21  23
ENDBRANCH   3  21
TORSDOF 6
ENDMDL
MODEL 3
REMARK VINA RESULT:      -8.6      3.882      7.311
REMARK  6 active torsions:
REMARK  status: ('A' for Active; 'I' for Inactive)
REMARK    1  A    between atoms: O1_1  and  C1_2 
REMARK    2  A    between atoms: C1_2  and  C2_3 
REMARK    3  A    between atoms: C5_7  and  C6_8 
REMARK    4  A    between atoms: C6_8  and  C7_9 
REMARK    5  A    between atoms: C9_11  and  N2_12 
REMARK    6  A    between atoms: N2_12  and  C10_13 
ROOT
HETATM    1  C7  UNL     1      26.455   3.001  50.195  1.00  0.00    -0.007 C 
HETATM    2  C8  UNL     1      26.183   2.632  51.437  1.00  0.00     0.082 A 
HETATM    3  C9  UNL     1      25.416   2.447  52.547  1.00  0.00     0.474 A 
HETATM    4  N3  UNL     1      26.048   1.945  53.592  1.00  0.00     0.252 N 
HETATM    5  C16 UNL     1      27.240   1.506  54.043  1.00  0.00     0.459 A 
HETATM    6  C17 UNL     1      28.164   1.620  53.031  1.00  0.00     0.107 A 
HETATM    7  C18 UNL     1      26.984   2.091  52.472  1.00  0.00     0.422 A 
HETATM    8  N4  UNL     1      26.221   1.861  53.716  1.00  0.00     0.252 N 
ENDROOT
BRANCH   1   9
HETATM    9  C6  UNL     1      25.255   3.565  49.526  1.00  0.00     0.084 C 
BRANCH   9  10
HETATM   10  C5  UNL     1      25.435   5.049  49.446  1.00  0.00     0.005 C 
HETATM   11  N1  UNL     1      24.408   5.832  50.014  1.00  0.00    -0.390 N 
HETATM   12  C4  UNL     1      24.304   7.121  50.636  1.00  0.00     0.147 C 
HETATM   13  H7  UNL     1      23.439   5.393  50.000  1.00  0.00     0.159 HD
HETATM   14  C3  UNL     1      25.526   7.892  50.423  1.00  0.00    -0.002 C 
HETATM   15  C2  UNL     1      26.616   7.910  49.678  1.00  0.00    -0.055 C 
HETATM   16  C20 UNL     1      26.990   6.940  48.624  1.00  0.00     0.065 C 
HETATM   17  C19 UNL     1      26.493   5.578  48.878  1.00  0.00     0.003 C 
BRANCH  15  18
HETATM   18  C1  UNL     1      27.620   9.008  49.884  1.00  0.00     0.198 C 
BRANCH  18  19
HETATM   19  O1  UNL     1      27.619   9.498  51.182  1.00  0.00    -0.397 OA
HETATM   20  H1  UNL     1      27.657   8.702  51.805  1.00  0.00     0.209 HD
ENDBRANCH  18  19
ENDBRANCH  15  18
ENDBRANCH   9  10
ENDBRANCH   1   9
BRANCH   3  21
HETATM   21  N2  UNL     1      23.963   2.914  52.210  1.00  0.00    -0.326 N 
HETATM   22  H11 UNL     1      23.720   3.925  52.131  1.00  0.00     0.164 HD
BRANCH  21  23
HETATM   23  C10 UNL     1      22.987   1.857  52.033  1.00  0.00     0.033 A 
HETATM   24  C11 UNL     1      22.428   1.689  50.784  1.00  0.00     0.029 A 
HETATM   25  C12 UNL     1      21.534   0.657  50.646  1.00  0.00     0.004 A 
HETATM   26  C13 UNL     1      21.219  -0.172  51.729  1.00  0.00     0.019 A 
HETATM   27  C14 UNL     1      21.835   0.074  52.958  1.00  0.00     0.013 A 
HETATM   28 BR1  UNL     1      21.396  -1.066  54.429  1.00  0.00    -0.051 Br
HETATM   29  C15 UNL     1      22.735   1.095  53.143  1.00  0.00     0.048 A 
ENDBRANCH  21  23
ENDBRANCH   3  21
TORSDOF 6
ENDMDL
MODEL 4
REMARK VINA RESULT:      -8.5      2.385      3.435
REMARK  6 active torsions:
REMARK  status: ('A' for Active; 'I' for Inactive)
REMARK    1  A    between atoms: O1_1  and  C1_2 
REMARK    2  A    between atoms: C1_2  and  C2_3 
REMARK    3  A    between atoms: C5_7  and  C6_8 
REMARK    4  A    between atoms: C6_8  and  C7_9 
REMARK    5  A    between atoms: C9_11  and  N2_12 
REMARK    6  A    between atoms: N2_12  and  C10_13 
ROOT
HETATM    1  C7  UNL     1      23.625  -0.042  53.644  1.00  0.00    -0.007 C 
HETATM    2  C8  UNL     1      22.357   0.245  53.393  1.00  0.00     0.082 A 
HETATM    3  C9  UNL     1      21.302   1.012  53.002  1.00  0.00     0.474 A 
HETATM    4  N3  UNL     1      20.118   0.436  53.100  1.00  0.00     0.252 N 
HETATM    5  C16 UNL     1      19.478  -0.696  53.458  1.00  0.00     0.459 A 
HETATM    6  C17 UNL     1      20.408  -1.612  53.890  1.00  0.00     0.107 A 
HETATM    7  C18 UNL     1      21.160  -0.496  53.548  1.00  0.00     0.422 A 
HETATM    8  N4  UNL     1      19.963   0.272  53.145  1.00  0.00     0.252 N 
ENDROOT
BRANCH   1   9
HETATM    9  C6  UNL     1      24.506   1.117  53.350  1.00  0.00     0.084 C 
BRANCH   9  10
HETATM   10  C5  UNL     1      25.878   0.586  53.075  1.00  0.00     0.005 C 
HETATM   11  N1  UNL     1      26.939   1.506  53.201  1.00  0.00    -0.390 N 
HETATM   12  C4  UNL     1      28.332   1.451  53.547  1.00  0.00     0.147 C 
HETATM   13  H7  UNL     1      26.691   2.521  52.998  1.00  0.00     0.159 HD
HETATM   14  C3  UNL     1      28.803   0.069  53.548  1.00  0.00    -0.002 C 
HETATM   15  C2  UNL     1      28.459  -1.138  53.137  1.00  0.00    -0.055 C 
HETATM   16  C20 UNL     1      27.228  -1.511  52.403  1.00  0.00     0.065 C 
HETATM   17  C19 UNL     1      26.069  -0.668  52.736  1.00  0.00     0.003 C 
BRANCH  15  18
HETATM   18  C1  UNL     1      29.376  -2.292  53.422  1.00  0.00     0.198 C 
BRANCH  18  19
HETATM   19  O1  UNL     1      28.714  -3.511  53.437  1.00  0.00    -0.397 OA
HETATM   20  H1  UNL     1      27.815  -3.371  52.997  1.00  0.00     0.209 HD
ENDBRANCH  18  19
ENDBRANCH  15  18
ENDBRANCH   9  10
ENDBRANCH   1   9
BRANCH   3  21
HETATM   21  N2  UNL     1      21.860   2.399  52.545  1.00  0.00    -0.326 N 
HETATM   22  H11 UNL     1      21.939   3.200  53.207  1.00  0.00     0.164 HD
BRANCH  21  23
HETATM   23  C10 UNL     1      22.239   2.496  51.149  1.00  0.00     0.033 A 
HETATM   24  C11 UNL     1      21.718   1.573  50.267  1.00  0.00     0.029 A 
HETATM   25  C12 UNL     1      22.073   1.717  48.949  1.00  0.00     0.004 A 
HETATM   26  C13 UNL     1      22.919   2.754  48.540  1.00  0.00     0.019 A 
HETATM   27  C14 UNL     1      23.398   3.642  49.506  1.00  0.00     0.013 A 
HETATM   28 BR1  UNL     1      24.553   5.055  48.934  1.00  0.00    -0.051 Br
HETATM   29  C15 UNL     1      23.071   3.537  50.835  1.00  0.00     0.048 A 
ENDBRANCH  21  23
ENDBRANCH   3  21
TORSDOF 6
ENDMDL
MODEL 5
REMARK VINA RESULT:      -8.4      3.537      7.469
REMARK  6 active torsions:
REMARK  status: ('A' for Active; 'I' for Inactive)
REMARK    1  A    between atoms: O1_1  and  C1_2 
REMARK    2  A    between atoms: C1_2  and  C2_3 
REMARK    3  A    between atoms: C5_7  and  C6_8 
REMARK    4  A    between atoms: C6_8  and  C7_9 
REMARK    5  A    between atoms: C9_11  and  N2_12 
REMARK    6  A    between atoms: N2_12  and  C10_13 
ROOT
HETATM    1  C7  UNL     1      26.964   2.394  51.752  1.00  0.00    -0.007 C 
HETATM    2  C8  UNL     1      27.027   1.375  52.595  1.00  0.00     0.082 A 
HETATM    3  C9  UNL     1      26.638   0.206  53.176  1.00  0.00     0.474 A 
HETATM    4  N3  UNL     1      27.389  -0.203  54.182  1.00  0.00     0.252 N 
HETATM    5  C16 UNL     1      28.473   0.092  54.928  1.00  0.00     0.459 A 
HETATM    6  C17 UNL     1      29.015   1.271  54.474  1.00  0.00     0.107 A 
HETATM    7  C18 UNL     1      27.918   1.059  53.650  1.00  0.00     0.422 A 
HETATM    8  N4  UNL     1      27.561  -0.201  54.335  1.00  0.00     0.252 N 
ENDROOT
BRANCH   1   9
HETATM    9  C6  UNL     1      25.787   2.276  50.854  1.00  0.00     0.084 C 
BRANCH   9  10
HETATM   10  C5  UNL     1      25.825   3.430  49.902  1.00  0.00     0.005 C 
HETATM   11  N1  UNL     1      24.577   3.899  49.442  1.00  0.00    -0.390 N 
HETATM   12  C4  UNL     1      24.033   5.152  49.002  1.00  0.00     0.147 C 
HETATM   13  H7  UNL     1      23.805   3.169  49.391  1.00  0.00     0.159 HD
HETATM   14  C3  UNL     1      25.101   6.120  48.768  1.00  0.00    -0.002 C 
HETATM   15  C2  UNL     1      26.410   6.192  48.611  1.00  0.00    -0.055 C 
HETATM   16  C20 UNL     1      27.373   5.067  48.639  1.00  0.00     0.065 C 
HETATM   17  C19 UNL     1      26.962   3.966  49.526  1.00  0.00     0.003 C 
BRANCH  15  18
HETATM   18  C1  UNL     1      27.042   7.534  48.380  1.00  0.00     0.198 C 
BRANCH  18  19
HETATM   19  O1  UNL     1      28.074   7.799  49.268  1.00  0.00    -0.397 OA
HETATM   20  H1  UNL     1      27.654   8.039  50.156  1.00  0.00     0.209 HD
ENDBRANCH  18  19
ENDBRANCH  15  18
ENDBRANCH   9  10
ENDBRANCH   1   9
BRANCH   3  21
HETATM   21  N2  UNL     1      25.361  -0.300  52.430  1.00  0.00    -0.326 N 
HETATM   22  H11 UNL     1      25.397  -0.607  51.434  1.00  0.00     0.164 HD
BRANCH  21  23
HETATM   23  C10 UNL     1      24.135  -0.295  53.204  1.00  0.00     0.033 A 
HETATM   24  C11 UNL     1      24.102  -1.024  54.374  1.00  0.00     0.029 A 
HETATM   25  C12 UNL     1      22.937  -0.968  55.097  1.00  0.00     0.004 A 
HETATM   26  C13 UNL     1      21.850  -0.204  54.655  1.00  0.00     0.019 A 
HETATM   27  C14 UNL     1      21.977   0.502  53.457  1.00  0.00     0.013 A 
HETATM   28 BR1  UNL     1      20.486   1.542  52.864  1.00  0.00    -0.051 Br
HETATM   29  C15 UNL     1      23.122   0.475  52.700  1.00  0.00     0.048 A 
ENDBRANCH  21  23
ENDBRANCH   3  21
TORSDOF 6
ENDMDL
MODEL 6
REMARK VINA RESULT:      -8.2      3.585      6.589
REMARK  6 active torsions:
REMARK  status: ('A' for Active; 'I' for Inactive)
REMARK    1  A    between atoms: O1_1  and  C1_2 
REMARK    2  A    between atoms: C1_2  and  C2_3 
REMARK    3  A    between atoms: C5_7  and  C6_8 
REMARK    4  A    between atoms: C6_8  and  C7_9 
REMARK    5  A    between atoms: C9_11  and  N2_12 
REMARK    6  A    between atoms: N2_12  and  C10_13 
ROOT
HETATM    1  C7  UNL     1      24.872   3.537  49.496  1.00  0.00    -0.007 C 
HETATM    2  C8  UNL     1      24.337   3.228  50.667  1.00  0.00     0.082 A 
HETATM    3  C9  UNL     1      24.324   2.875  51.983  1.00  0.00     0.474 A 
HETATM    4  N3  UNL     1      23.126   2.702  52.509  1.00  0.00     0.252 N 
HETATM    5  C16 UNL     1      21.803   2.736  52.252  1.00  0.00     0.459 A 
HETATM    6  C17 UNL     1      21.617   3.085  50.935  1.00  0.00     0.107 A 
HETATM    7  C18 UNL     1      22.996   3.079  51.097  1.00  0.00     0.422 A 
HETATM    8  N4  UNL     1      22.897   2.694  52.520  1.00  0.00     0.252 N 
ENDROOT
BRANCH   1   9
HETATM    9  C6  UNL     1      26.356   3.511  49.560  1.00  0.00     0.084 C 
BRANCH   9  10
HETATM   10  C5  UNL     1      26.859   4.782  48.950  1.00  0.00     0.005 C 
HETATM   11  N1  UNL     1      25.913   5.817  48.799  1.00  0.00    -0.390 N 
HETATM   12  C4  UNL     1      25.933   7.252  48.782  1.00  0.00     0.147 C 
HETATM   13  H7  UNL     1      24.908   5.499  48.660  1.00  0.00     0.159 HD
HETATM   14  C3  UNL     1      27.304   7.743  48.672  1.00  0.00    -0.002 C 
HETATM   15  C2  UNL     1      28.522   7.337  48.368  1.00  0.00    -0.055 C 
HETATM   16  C20 UNL     1      28.933   5.971  47.970  1.00  0.00     0.065 C 
HETATM   17  C19 UNL     1      28.112   4.912  48.581  1.00  0.00     0.003 C 
BRANCH  15  18
HETATM   18  C1  UNL     1      29.652   8.326  48.418  1.00  0.00     0.198 C 
BRANCH  18  19
HETATM   19  O1  UNL     1      30.023   8.649  49.714  1.00  0.00    -0.397 OA
HETATM   20  H1  UNL     1      29.274   8.354  50.325  1.00  0.00     0.209 HD
ENDBRANCH  18  19
ENDBRANCH  15  18
ENDBRANCH   9  10
ENDBRANCH   1   9
BRANCH   3  21
HETATM   21  N2  UNL     1      25.807   2.781  52.469  1.00  0.00    -0.326 N 
HETATM   22  H11 UNL     1      26.386   3.635  52.622  1.00  0.00     0.164 HD
BRANCH  21  23
HETATM   23  C10 UNL     1      26.318   1.441  52.675  1.00  0.00     0.033 A 
HETATM   24  C11 UNL     1      25.458   0.380  52.489  1.00  0.00     0.029 A 
HETATM   25  C12 UNL     1      25.986  -0.876  52.659  1.00  0.00     0.004 A 
HETATM   26  C13 UNL     1      27.332  -1.050  53.002  1.00  0.00     0.019 A 
HETATM   27  C14 UNL     1      28.129   0.085  53.170  1.00  0.00     0.013 A 
HETATM   28 BR1  UNL     1      29.965  -0.166  53.637  1.00  0.00    -0.051 Br
HETATM   29  C15 UNL     1      27.643   1.360  53.010  1.00  0.00     0.048 A 
ENDBRANCH  21  23
ENDBRANCH   3  21
TORSDOF 6
ENDMDL
MODEL 7
REMARK VINA RESULT:      -8.2      3.566      6.966
REMARK  6 active torsions:
REMARK  status: ('A' for Active; 'I' for Inactive)
REMARK    1  A    between atoms: O1_1  and  C1_2 
REMARK    2  A    between atoms: C1_2  and  C2_3 
REMARK    3  A    between atoms: C5_7  and  C6_8 
REMARK    4  A    between atoms: C6_8  and  C7_9 
REMARK    5  A    between atoms: C9_11  and  N2_12 
REMARK    6  A    between atoms: N2_12  and  C10_13 
ROOT
HETATM    1  C7  UNL     1      24.888   3.029  53.455  1.00  0.00    -0.007 C 
HETATM    2  C8  UNL     1      25.027   1.723  53.284  1.00  0.00     0.082 A 
HETATM    3  C9  UNL     1      24.723   0.485  52.804  1.00  0.00     0.474 A 
HETATM    4  N3  UNL     1      25.506  -0.491  53.225  1.00  0.00     0.252 N 
HETATM    5  C16 UNL     1      26.571  -0.784  53.998  1.00  0.00     0.459 A 
HETATM    6  C17 UNL     1      27.027   0.376  54.580  1.00  0.00     0.107 A 
HETATM    7  C18 UNL     1      25.943   0.781  53.812  1.00  0.00     0.422 A 
HETATM    8  N4  UNL     1      25.678  -0.594  53.338  1.00  0.00     0.252 N 
ENDROOT
BRANCH   1   9
HETATM    9  C6  UNL     1      23.717   3.548  52.702  1.00  0.00     0.084 C 
BRANCH   9  10
HETATM   10  C5  UNL     1      24.237   4.324  51.533  1.00  0.00     0.005 C 
HETATM   11  N1  UNL     1      23.935   5.702  51.517  1.00  0.00    -0.390 N 
HETATM   12  C4  UNL     1      24.543   6.896  51.003  1.00  0.00     0.147 C 
HETATM   13  H7  UNL     1      23.028   5.976  52.001  1.00  0.00     0.159 HD
HETATM   14  C3  UNL     1      25.626   6.562  50.082  1.00  0.00    -0.002 C 
HETATM   15  C2  UNL     1      26.111   5.552  49.385  1.00  0.00    -0.055 C 
HETATM   16  C20 UNL     1      25.581   4.170  49.333  1.00  0.00     0.065 C 
HETATM   17  C19 UNL     1      24.934   3.744  50.584  1.00  0.00     0.003 C 
BRANCH  15  18
HETATM   18  C1  UNL     1      27.333   5.771  48.540  1.00  0.00     0.198 C 
BRANCH  18  19
HETATM   19  O1  UNL     1      28.447   5.100  49.024  1.00  0.00    -0.397 OA
HETATM   20  H1  UNL     1      29.237   5.379  48.458  1.00  0.00     0.209 HD
ENDBRANCH  18  19
ENDBRANCH  15  18
ENDBRANCH   9  10
ENDBRANCH   1   9
BRANCH   3  21
HETATM   21  N2  UNL     1      23.481   0.625  51.866  1.00  0.00    -0.326 N 
HETATM   22  H11 UNL     1      23.567   1.011  50.901  1.00  0.00     0.164 HD
BRANCH  21  23
HETATM   23  C10 UNL     1      22.215   0.202  52.430  1.00  0.00     0.033 A 
HETATM   24  C11 UNL     1      22.213  -0.326  53.704  1.00  0.00     0.029 A 
HETATM   25  C12 UNL     1      20.992  -0.684  54.218  1.00  0.00     0.004 A 
HETATM   26  C13 UNL     1      19.819  -0.514  53.473  1.00  0.00     0.019 A 
HETATM   27  C14 UNL     1      19.919   0.029  52.189  1.00  0.00     0.013 A 
HETATM   28 BR1  UNL     1      18.310   0.257  51.182  1.00  0.00    -0.051 Br
HETATM   29  C15 UNL     1      21.118   0.401  51.634  1.00  0.00     0.048 A 
ENDBRANCH  21  23
ENDBRANCH   3  21
TORSDOF 6
ENDMDL
MODEL 8
REMARK VINA RESULT:      -8.0      3.838      6.593
REMARK  6 active torsions:
REMARK  status: ('A' for Active; 'I' for Inactive)
REMARK    1  A    between atoms: O1_1  and  C1_2 
REMARK    2  A    between atoms: C1_2  and  C2_3 
REMARK    3  A    between atoms: C5_7  and  C6_8 
REMARK    4  A    between atoms: C6_8  and  C7_9 
REMARK    5  A    between atoms: C9_11  and  N2_12 
REMARK    6  A    between atoms: N2_12  and  C10_13 
ROOT
HETATM    1  C7  UNL     1      23.001  -0.761  54.064  1.00  0.00    -0.007 C 
HETATM    2  C8  UNL     1      24.013  -0.131  53.488  1.00  0.00     0.082 A 
HETATM    3  C9  UNL     1      24.685   0.922  52.945  1.00  0.00     0.474 A 
HETATM    4  N3  UNL     1      25.887   0.643  52.475  1.00  0.00     0.252 N 
HETATM    5  C16 UNL     1      26.792  -0.340  52.300  1.00  0.00     0.459 A 
HETATM    6  C17 UNL     1      26.275  -1.511  52.803  1.00  0.00     0.107 A 
HETATM    7  C18 UNL     1      25.278  -0.572  53.029  1.00  0.00     0.422 A 
HETATM    8  N4  UNL     1      26.072   0.518  52.423  1.00  0.00     0.252 N 
ENDROOT
BRANCH   1   9
HETATM    9  C6  UNL     1      21.861   0.161  54.305  1.00  0.00     0.084 C 
BRANCH   9  10
HETATM   10  C5  UNL     1      20.748  -0.246  53.391  1.00  0.00     0.005 C 
HETATM   11  N1  UNL     1      19.926  -1.299  53.842  1.00  0.00    -0.390 N 
HETATM   12  C4  UNL     1      18.559  -1.703  53.668  1.00  0.00     0.147 C 
HETATM   13  H7  UNL     1      20.399  -2.006  54.482  1.00  0.00     0.159 HD
HETATM   14  C3  UNL     1      17.940  -0.954  52.578  1.00  0.00    -0.002 C 
HETATM   15  C2  UNL     1      18.249  -0.185  51.550  1.00  0.00    -0.055 C 
HETATM   16  C20 UNL     1      19.605   0.227  51.123  1.00  0.00     0.065 C 
HETATM   17  C19 UNL     1      20.558   0.353  52.238  1.00  0.00     0.003 C 
BRANCH  15  18
HETATM   18  C1  UNL     1      17.144   0.359  50.691  1.00  0.00     0.198 C 
BRANCH  18  19
HETATM   19  O1  UNL     1      17.330   0.087  49.344  1.00  0.00    -0.397 OA
HETATM   20  H1  UNL     1      16.435   0.199  48.887  1.00  0.00     0.209 HD
ENDBRANCH  18  19
ENDBRANCH  15  18
ENDBRANCH   9  10
ENDBRANCH   1   9
BRANCH   3  21
HETATM   21  N2  UNL     1      23.769   2.184  53.056  1.00  0.00    -0.326 N 
HETATM   22  H11 UNL     1      23.312   2.449  53.955  1.00  0.00     0.164 HD
BRANCH  21  23
HETATM   23  C10 UNL     1      23.590   2.942  51.833  1.00  0.00     0.033 A 
HETATM   24  C11 UNL     1      23.277   2.253  50.680  1.00  0.00     0.029 A 
HETATM   25  C12 UNL     1      23.080   3.006  49.550  1.00  0.00     0.004 A 
HETATM   26  C13 UNL     1      23.195   4.401  49.585  1.00  0.00     0.019 A 
HETATM   27  C14 UNL     1      23.517   5.012  50.799  1.00  0.00     0.013 A 
HETATM   28 BR1  UNL     1      23.670   6.918  50.834  1.00  0.00    -0.051 Br
HETATM   29  C15 UNL     1      23.722   4.299  51.955  1.00  0.00     0.048 A 
ENDBRANCH  21  23
ENDBRANCH   3  21
TORSDOF 6
ENDMDL
MODEL 9
REMARK VINA RESULT:      -8.0      3.857      6.580
REMARK  6 active torsions:
REMARK  status: ('A' for Active; 'I' for Inactive)
REMARK    1  A    between atoms: O1_1  and  C1_2 
REMARK    2  A    between atoms: C1_2  and  C2_3 
REMARK    3  A    between atoms: C5_7  and  C6_8 
REMARK    4  A    between atoms: C6_8  and  C7_9 
REMARK    5  A    between atoms: C9_11  and  N2_12 
REMARK    6  A    between atoms: N2_12  and  C10_13 
ROOT
HETATM    1  C7  UNL     1      21.524   0.560  51.489  1.00  0.00    -0.007 C 
HETATM    2  C8  UNL     1      22.380   0.171  52.420  1.00  0.00     0.082 A 
HETATM    3  C9  UNL     1      23.600  -0.066  52.977  1.00  0.00     0.474 A 
HETATM    4  N3  UNL     1      23.576  -0.605  54.182  1.00  0.00     0.252 N 
HETATM    5  C16 UNL     1      22.768  -1.051  55.165  1.00  0.00     0.459 A 
HETATM    6  C17 UNL     1      21.460  -0.886  54.772  1.00  0.00     0.107 A 
HETATM    7  C18 UNL     1      22.203  -0.402  53.704  1.00  0.00     0.422 A 
HETATM    8  N4  UNL     1      23.487  -0.692  54.376  1.00  0.00     0.252 N 
ENDROOT
BRANCH   1   9
HETATM    9  C6  UNL     1      22.232   1.055  50.280  1.00  0.00     0.084 C 
BRANCH   9  10
HETATM   10  C5  UNL     1      22.373   2.539  50.413  1.00  0.00     0.005 C 
HETATM   11  N1  UNL     1      21.509   3.167  51.333  1.00  0.00    -0.390 N 
HETATM   12  C4  UNL     1      21.547   4.331  52.172  1.00  0.00     0.147 C 
HETATM   13  H7  UNL     1      20.570   2.688  51.477  1.00  0.00     0.159 HD
HETATM   14  C3  UNL     1      22.673   5.187  51.807  1.00  0.00    -0.002 C 
HETATM   15  C2  UNL     1      23.548   5.381  50.838  1.00  0.00    -0.055 C 
HETATM   16  C20 UNL     1      23.663   4.615  49.576  1.00  0.00     0.065 C 
HETATM   17  C19 UNL     1      23.256   3.206  49.706  1.00  0.00     0.003 C 
BRANCH  15  18
HETATM   18  C1  UNL     1      24.561   6.480  50.982  1.00  0.00     0.198 C 
BRANCH  18  19
HETATM   19  O1  UNL     1      24.160   7.465  51.873  1.00  0.00    -0.397 OA
HETATM   20  H1  UNL     1      23.831   7.000  52.708  1.00  0.00     0.209 HD
ENDBRANCH  18  19
ENDBRANCH  15  18
ENDBRANCH   9  10
ENDBRANCH   1   9
BRANCH   3  21
HETATM   21  N2  UNL     1      24.691   0.395  51.957  1.00  0.00    -0.326 N 
HETATM   22  H11 UNL     1      24.491   0.459  50.936  1.00  0.00     0.164 HD
BRANCH  21  23
HETATM   23  C10 UNL     1      25.989   0.708  52.522  1.00  0.00     0.033 A 
HETATM   24  C11 UNL     1      26.221   2.001  52.943  1.00  0.00     0.029 A 
HETATM   25  C12 UNL     1      27.449   2.252  53.504  1.00  0.00     0.004 A 
HETATM   26  C13 UNL     1      28.402   1.236  53.635  1.00  0.00     0.019 A 
HETATM   27  C14 UNL     1      28.077  -0.045  53.180  1.00  0.00     0.013 A 
HETATM   28 BR1  UNL     1      29.387  -1.425  53.366  1.00  0.00    -0.051 Br
HETATM   29  C15 UNL     1      26.862  -0.342  52.612  1.00  0.00     0.048 A 
ENDBRANCH  21  23
ENDBRANCH   3  21
TORSDOF 6
ENDMDL
