MODEL 1
REMARK VINA RESULT:      -9.0      0.000      0.000
REMARK  7 active torsions:
REMARK  status: ('A' for Active; 'I' for Inactive)
REMARK    1  A    between atoms: O1_2  and  C2_3 
REMARK    2  A    between atoms: C5_6  and  N1_7 
REMARK       I    between atoms: N1_7  and  C6_8 
REMARK       I    between atoms: C6_8  and  N2_10 
REMARK    3  A    between atoms: N2_10  and  C7_11 
REMARK    4  A    between atoms: C8_12  and  O3_13 
REMARK    5  A    between atoms: O3_13  and  C9_14 
REMARK    6  A    between atoms: C13_20  and  O4_21 
REMARK    7  A    between atoms: C19_27  and  O5_28 
ROOT
HETATM    1  C7  UNL     1      25.900   1.968  53.293  1.00  0.00     0.066 A 
HETATM    2  C8  UNL     1      25.560   0.803  52.780  1.00  0.00     0.085 A 
HETATM    3  C18 UNL     1      26.461  -0.312  52.518  1.00  0.00     0.103 A 
HETATM    4  C19 UNL     1      27.891  -0.121  52.857  1.00  0.00     0.150 A 
HETATM    5  C21 UNL     1      28.243   1.179  53.424  1.00  0.00     0.007 A 
HETATM    6  C22 UNL     1      27.313   2.099  53.606  1.00  0.00     0.030 A 
ENDROOT
BRANCH   1   7
HETATM    7  N2  UNL     1      24.897   2.945  53.484  1.00  0.00    -0.306 N 
HETATM    8  C6  UNL     1      24.262   3.771  52.532  1.00  0.00     0.325 C 
HETATM    9  N1  UNL     1      23.268   4.724  52.809  1.00  0.00    -0.309 N 
HETATM   10  O2  UNL     1      24.590   3.673  51.324  1.00  0.00    -0.247 OA
HETATM   11  H6  UNL     1      22.956   4.844  53.811  1.00  0.00     0.170 HD
HETATM   12  H7  UNL     1      24.533   3.130  54.438  1.00  0.00     0.171 HD
BRANCH   9  13
HETATM   13  C5  UNL     1      22.803   5.421  51.635  1.00  0.00     0.036 A 
HETATM   14  C4  UNL     1      21.635   4.955  51.041  1.00  0.00     0.032 A 
HETATM   15  C3  UNL     1      21.058   5.512  49.908  1.00  0.00     0.039 A 
HETATM   16  C2  UNL     1      21.698   6.584  49.366  1.00  0.00     0.068 A 
HETATM   17  C24 UNL     1      22.869   7.085  49.924  1.00  0.00     0.039 A 
HETATM   18  C23 UNL     1      23.426   6.516  51.049  1.00  0.00     0.032 A 
BRANCH  16  19
HETATM   19  O1  UNL     1      21.255   7.247  48.245  1.00  0.00    -0.356 OA
HETATM   20  C1  UNL     1      21.086   6.714  46.967  1.00  0.00     0.210 C 
ENDBRANCH  16  19
ENDBRANCH   9  13
ENDBRANCH   1   7
BRANCH   2  21
HETATM   21  O3  UNL     1      24.254   0.480  52.413  1.00  0.00    -0.293 OA
BRANCH  21  22
HETATM   22  C9  UNL     1      23.461  -0.178  53.345  1.00  0.00     0.183 A 
HETATM   23  N3  UNL     1      23.902  -0.772  54.459  1.00  0.00    -0.217 NA
HETATM   24  C10 UNL     1      23.105  -1.397  55.334  1.00  0.00     0.236 A 
HETATM   25  N4  UNL     1      21.785  -1.420  55.062  1.00  0.00    -0.241 NA
HETATM   26  C11 UNL     1      21.257  -0.843  53.959  1.00  0.00     0.075 A 
HETATM   27  C12 UNL     1      19.903  -0.933  53.794  1.00  0.00     0.069 A 
HETATM   28  C17 UNL     1      22.105  -0.207  53.076  1.00  0.00     0.046 A 
HETATM   29  C13 UNL     1      19.344  -0.348  52.669  1.00  0.00     0.070 A 
HETATM   30  C15 UNL     1      20.148   0.301  51.754  1.00  0.00     0.038 A 
HETATM   31  C16 UNL     1      21.519   0.377  51.947  1.00  0.00     0.021 A 
BRANCH  29  32
HETATM   32  O4  UNL     1      18.006  -0.315  52.299  1.00  0.00    -0.356 OA
HETATM   33  C14 UNL     1      17.112  -1.231  52.892  1.00  0.00     0.210 C 
ENDBRANCH  29  32
ENDBRANCH  21  22
ENDBRANCH   2  21
BRANCH   4  34
HETATM   34  O5  UNL     1      28.357  -1.104  53.756  1.00  0.00    -0.387 OA
HETATM   35  C20 UNL     1      29.757  -1.140  53.752  1.00  0.00     0.202 C 
ENDBRANCH   4  34
TORSDOF 7
ENDMDL
MODEL 2
REMARK VINA RESULT:      -9.0      2.744      5.746
REMARK  7 active torsions:
REMARK  status: ('A' for Active; 'I' for Inactive)
REMARK    1  A    between atoms: O1_2  and  C2_3 
REMARK    2  A    between atoms: C5_6  and  N1_7 
REMARK       I    between atoms: N1_7  and  C6_8 
REMARK       I    between atoms: C6_8  and  N2_10 
REMARK    3  A    between atoms: N2_10  and  C7_11 
REMARK    4  A    between atoms: C8_12  and  O3_13 
REMARK    5  A    between atoms: O3_13  and  C9_14 
REMARK    6  A    between atoms: C13_20  and  O4_21 
REMARK    7  A    between atoms: C19_27  and  O5_28 
ROOT
HETATM    1  C7  UNL     1      25.269   4.375  50.687  1.00  0.00     0.066 A 
HETATM    2  C8  UNL     1      26.156   3.504  50.250  1.00  0.00     0.085 A 
HETATM    3  C18 UNL     1      27.157   3.746  49.220  1.00  0.00     0.103 A 
HETATM    4  C19 UNL     1      27.183   5.093  48.604  1.00  0.00     0.150 A 
HETATM    5  C21 UNL     1      26.191   6.041  49.104  1.00  0.00     0.007 A 
HETATM    6  C22 UNL     1      25.341   5.678  50.049  1.00  0.00     0.030 A 
ENDROOT
BRANCH   1   7
HETATM    7  N2  UNL     1      24.365   3.976  51.697  1.00  0.00    -0.306 N 
HETATM    8  C6  UNL     1      23.129   3.306  51.576  1.00  0.00     0.325 C 
HETATM    9  N1  UNL     1      22.287   2.946  52.641  1.00  0.00    -0.309 N 
HETATM   10  O2  UNL     1      22.717   2.990  50.433  1.00  0.00    -0.247 OA
HETATM   11  H6  UNL     1      22.590   3.188  53.623  1.00  0.00     0.170 HD
HETATM   12  H7  UNL     1      24.584   4.177  52.692  1.00  0.00     0.171 HD
BRANCH   9  13
HETATM   13  C5  UNL     1      21.087   2.269  52.214  1.00  0.00     0.036 A 
HETATM   14  C4  UNL     1      19.955   3.050  52.010  1.00  0.00     0.032 A 
HETATM   15  C3  UNL     1      18.725   2.553  51.601  1.00  0.00     0.039 A 
HETATM   16  C2  UNL     1      18.652   1.210  51.393  1.00  0.00     0.068 A 
HETATM   17  C24 UNL     1      19.757   0.388  51.583  1.00  0.00     0.039 A 
HETATM   18  C23 UNL     1      20.969   0.902  51.991  1.00  0.00     0.032 A 
BRANCH  16  19
HETATM   19  O1  UNL     1      17.506   0.565  50.987  1.00  0.00    -0.356 OA
HETATM   20  C1  UNL     1      16.268   1.146  50.717  1.00  0.00     0.210 C 
ENDBRANCH  16  19
ENDBRANCH   9  13
ENDBRANCH   1   7
BRANCH   2  21
HETATM   21  O3  UNL     1      26.251   2.200  50.735  1.00  0.00    -0.293 OA
BRANCH  21  22
HETATM   22  C9  UNL     1      26.884   2.005  51.956  1.00  0.00     0.183 A 
HETATM   23  N3  UNL     1      28.044   2.559  52.327  1.00  0.00    -0.217 NA
HETATM   24  C10 UNL     1      28.624   2.346  53.514  1.00  0.00     0.236 A 
HETATM   25  N4  UNL     1      27.990   1.524  54.374  1.00  0.00    -0.241 NA
HETATM   26  C11 UNL     1      26.815   0.924  54.078  1.00  0.00     0.075 A 
HETATM   27  C12 UNL     1      26.271   0.112  55.034  1.00  0.00     0.069 A 
HETATM   28  C17 UNL     1      26.243   1.163  52.846  1.00  0.00     0.046 A 
HETATM   29  C13 UNL     1      25.066  -0.511  54.748  1.00  0.00     0.070 A 
HETATM   30  C15 UNL     1      24.451  -0.306  53.530  1.00  0.00     0.038 A 
HETATM   31  C16 UNL     1      25.027   0.524  52.580  1.00  0.00     0.021 A 
BRANCH  29  32
HETATM   32  O4  UNL     1      24.336  -1.370  55.560  1.00  0.00    -0.356 OA
HETATM   33  C14 UNL     1      22.953  -1.517  55.328  1.00  0.00     0.210 C 
ENDBRANCH  29  32
ENDBRANCH  21  22
ENDBRANCH   2  21
BRANCH   4  34
HETATM   34  O5  UNL     1      28.446   5.709  48.733  1.00  0.00    -0.387 OA
HETATM   35  C20 UNL     1      28.402   7.015  48.228  1.00  0.00     0.202 C 
ENDBRANCH   4  34
TORSDOF 7
ENDMDL
MODEL 3
REMARK VINA RESULT:      -8.7      2.507      6.203
REMARK  7 active torsions:
REMARK  status: ('A' for Active; 'I' for Inactive)
REMARK    1  A    between atoms: O1_2  and  C2_3 
REMARK    2  A    between atoms: C5_6  and  N1_7 
REMARK       I    between atoms: N1_7  and  C6_8 
REMARK       I    between atoms: C6_8  and  N2_10 
REMARK    3  A    between atoms: N2_10  and  C7_11 
REMARK    4  A    between atoms: C8_12  and  O3_13 
REMARK    5  A    between atoms: O3_13  and  C9_14 
REMARK    6  A    between atoms: C13_20  and  O4_21 
REMARK    7  A    between atoms: C19_27  and  O5_28 
ROOT
HETATM    1  C7  UNL     1      20.849   2.457  51.837  1.00  0.00     0.066 A 
HETATM    2  C8  UNL     1      20.765   1.166  51.589  1.00  0.00     0.085 A 
HETATM    3  C18 UNL     1      19.563   0.451  51.179  1.00  0.00     0.103 A 
HETATM    4  C19 UNL     1      18.321   1.244  51.029  1.00  0.00     0.150 A 
HETATM    5  C21 UNL     1      18.440   2.673  51.310  1.00  0.00     0.007 A 
HETATM    6  C22 UNL     1      19.603   3.184  51.673  1.00  0.00     0.030 A 
ENDROOT
BRANCH   1   7
HETATM    7  N2  UNL     1      22.097   2.994  52.225  1.00  0.00    -0.306 N 
HETATM    8  C6  UNL     1      23.118   3.552  51.425  1.00  0.00     0.325 C 
HETATM    9  N1  UNL     1      24.337   4.066  51.896  1.00  0.00    -0.309 N 
HETATM   10  O2  UNL     1      22.955   3.608  50.182  1.00  0.00    -0.247 OA
HETATM   11  H6  UNL     1      24.522   4.043  52.936  1.00  0.00     0.170 HD
HETATM   12  H7  UNL     1      22.361   3.009  53.229  1.00  0.00     0.171 HD
BRANCH   9  13
HETATM   13  C5  UNL     1      25.186   4.571  50.846  1.00  0.00     0.036 A 
HETATM   14  C4  UNL     1      25.076   5.922  50.534  1.00  0.00     0.032 A 
HETATM   15  C3  UNL     1      25.819   6.562  49.551  1.00  0.00     0.039 A 
HETATM   16  C2  UNL     1      26.705   5.791  48.864  1.00  0.00     0.068 A 
HETATM   17  C24 UNL     1      26.851   4.436  49.138  1.00  0.00     0.039 A 
HETATM   18  C23 UNL     1      26.102   3.821  50.119  1.00  0.00     0.032 A 
BRANCH  16  19
HETATM   19  O1  UNL     1      27.514   6.273  47.860  1.00  0.00    -0.356 OA
HETATM   20  C1  UNL     1      27.562   7.581  47.379  1.00  0.00     0.210 C 
ENDBRANCH  16  19
ENDBRANCH   9  13
ENDBRANCH   1   7
BRANCH   2  21
HETATM   21  O3  UNL     1      21.849   0.295  51.688  1.00  0.00    -0.293 OA
BRANCH  21  22
HETATM   22  C9  UNL     1      22.052  -0.355  52.899  1.00  0.00     0.183 A 
HETATM   23  N3  UNL     1      21.115  -1.006  53.598  1.00  0.00    -0.217 NA
HETATM   24  C10 UNL     1      21.349  -1.622  54.763  1.00  0.00     0.236 A 
HETATM   25  N4  UNL     1      22.606  -1.574  55.245  1.00  0.00    -0.241 NA
HETATM   26  C11 UNL     1      23.611  -0.939  54.602  1.00  0.00     0.075 A 
HETATM   27  C12 UNL     1      24.844  -0.961  55.194  1.00  0.00     0.069 A 
HETATM   28  C17 UNL     1      23.338  -0.313  53.404  1.00  0.00     0.046 A 
HETATM   29  C13 UNL     1      25.886  -0.316  54.549  1.00  0.00     0.070 A 
HETATM   30  C15 UNL     1      25.667   0.326  53.347  1.00  0.00     0.038 A 
HETATM   31  C16 UNL     1      24.405   0.332  52.771  1.00  0.00     0.021 A 
BRANCH  29  32
HETATM   32  O4  UNL     1      27.209  -0.209  54.960  1.00  0.00    -0.356 OA
HETATM   33  C14 UNL     1      28.228  -0.195  53.984  1.00  0.00     0.210 C 
ENDBRANCH  29  32
ENDBRANCH  21  22
ENDBRANCH   2  21
BRANCH   4  34
HETATM   34  O5  UNL     1      17.769   1.122  49.736  1.00  0.00    -0.387 OA
HETATM   35  C20 UNL     1      16.384   0.927  49.816  1.00  0.00     0.202 C 
ENDBRANCH   4  34
TORSDOF 7
ENDMDL
MODEL 4
REMARK VINA RESULT:      -8.7      3.226      4.914
REMARK  7 active torsions:
REMARK  status: ('A' for Active; 'I' for Inactive)
REMARK    1  A    between atoms: O1_2  and  C2_3 
REMARK    2  A    between atoms: C5_6  and  N1_7 
REMARK       I    between atoms: N1_7  and  C6_8 
REMARK       I    between atoms: C6_8  and  N2_10 
REMARK    3  A    between atoms: N2_10  and  C7_11 
REMARK    4  A    between atoms: C8_12  and  O3_13 
REMARK    5  A    between atoms: O3_13  and  C9_14 
REMARK    6  A    between atoms: C13_20  and  O4_21 
REMARK    7  A    between atoms: C19_27  and  O5_28 
ROOT
HETATM    1  C7  UNL     1      25.928   1.040  51.939  1.00  0.00     0.066 A 
HETATM    2  C8  UNL     1      25.470   1.331  53.139  1.00  0.00     0.085 A 
HETATM    3  C18 UNL     1      25.748   0.591  54.363  1.00  0.00     0.103 A 
HETATM    4  C19 UNL     1      26.625  -0.598  54.252  1.00  0.00     0.150 A 
HETATM    5  C21 UNL     1      27.121  -0.900  52.911  1.00  0.00     0.007 A 
HETATM    6  C22 UNL     1      26.782  -0.134  51.889  1.00  0.00     0.030 A 
ENDROOT
BRANCH   1   7
HETATM    7  N2  UNL     1      25.560   1.865  50.853  1.00  0.00    -0.306 N 
HETATM    8  C6  UNL     1      26.197   3.022  50.353  1.00  0.00     0.325 C 
HETATM    9  N1  UNL     1      25.760   3.788  49.260  1.00  0.00    -0.309 N 
HETATM   10  O2  UNL     1      27.247   3.428  50.910  1.00  0.00    -0.247 OA
HETATM   11  H6  UNL     1      24.883   3.487  48.757  1.00  0.00     0.170 HD
HETATM   12  H7  UNL     1      24.708   1.643  50.302  1.00  0.00     0.171 HD
BRANCH   9  13
HETATM   13  C5  UNL     1      26.614   4.916  48.979  1.00  0.00     0.036 A 
HETATM   14  C4  UNL     1      26.091   6.183  49.214  1.00  0.00     0.032 A 
HETATM   15  C3  UNL     1      26.781   7.367  48.994  1.00  0.00     0.039 A 
HETATM   16  C2  UNL     1      28.050   7.250  48.517  1.00  0.00     0.068 A 
HETATM   17  C24 UNL     1      28.616   6.005  48.265  1.00  0.00     0.039 A 
HETATM   18  C23 UNL     1      27.913   4.841  48.491  1.00  0.00     0.032 A 
BRANCH  16  19
HETATM   19  O1  UNL     1      28.863   8.327  48.247  1.00  0.00    -0.356 OA
HETATM   20  C1  UNL     1      30.091   8.620  48.840  1.00  0.00     0.210 C 
ENDBRANCH  16  19
ENDBRANCH   9  13
ENDBRANCH   1   7
BRANCH   2  21
HETATM   21  O3  UNL     1      24.636   2.418  53.397  1.00  0.00    -0.293 OA
BRANCH  21  22
HETATM   22  C9  UNL     1      23.309   2.329  52.996  1.00  0.00     0.183 A 
HETATM   23  N3  UNL     1      22.516   1.264  53.161  1.00  0.00    -0.217 NA
HETATM   24  C10 UNL     1      21.240   1.217  52.760  1.00  0.00     0.236 A 
HETATM   25  N4  UNL     1      20.741   2.314  52.156  1.00  0.00    -0.241 NA
HETATM   26  C11 UNL     1      21.473   3.431  51.950  1.00  0.00     0.075 A 
HETATM   27  C12 UNL     1      20.853   4.478  51.327  1.00  0.00     0.069 A 
HETATM   28  C17 UNL     1      22.786   3.449  52.375  1.00  0.00     0.046 A 
HETATM   29  C13 UNL     1      21.588   5.632  51.108  1.00  0.00     0.070 A 
HETATM   30  C15 UNL     1      22.906   5.702  51.514  1.00  0.00     0.038 A 
HETATM   31  C16 UNL     1      23.508   4.624  52.143  1.00  0.00     0.021 A 
BRANCH  29  32
HETATM   32  O4  UNL     1      21.170   6.809  50.499  1.00  0.00    -0.356 OA
HETATM   33  C14 UNL     1      20.112   6.755  49.567  1.00  0.00     0.210 C 
ENDBRANCH  29  32
ENDBRANCH  21  22
ENDBRANCH   2  21
BRANCH   4  34
HETATM   34  O5  UNL     1      27.751  -0.506  55.097  1.00  0.00    -0.387 OA
HETATM   35  C20 UNL     1      28.812   0.116  54.427  1.00  0.00     0.202 C 
ENDBRANCH   4  34
TORSDOF 7
ENDMDL
MODEL 5
REMARK VINA RESULT:      -8.6      1.506      2.172
REMARK  7 active torsions:
REMARK  status: ('A' for Active; 'I' for Inactive)
REMARK    1  A    between atoms: O1_2  and  C2_3 
REMARK    2  A    between atoms: C5_6  and  N1_7 
REMARK       I    between atoms: N1_7  and  C6_8 
REMARK       I    between atoms: C6_8  and  N2_10 
REMARK    3  A    between atoms: N2_10  and  C7_11 
REMARK    4  A    between atoms: C8_12  and  O3_13 
REMARK    5  A    between atoms: O3_13  and  C9_14 
REMARK    6  A    between atoms: C13_20  and  O4_21 
REMARK    7  A    between atoms: C19_27  and  O5_28 
ROOT
HETATM    1  C7  UNL     1      25.553   2.083  53.220  1.00  0.00     0.066 A 
HETATM    2  C8  UNL     1      24.981   0.897  53.253  1.00  0.00     0.085 A 
HETATM    3  C18 UNL     1      25.656  -0.383  53.082  1.00  0.00     0.103 A 
HETATM    4  C19 UNL     1      27.119  -0.351  52.848  1.00  0.00     0.150 A 
HETATM    5  C21 UNL     1      27.730   0.976  52.816  1.00  0.00     0.007 A 
HETATM    6  C22 UNL     1      26.987   2.055  52.989  1.00  0.00     0.030 A 
ENDROOT
BRANCH   1   7
HETATM    7  N2  UNL     1      24.749   3.231  53.406  1.00  0.00    -0.306 N 
HETATM    8  C6  UNL     1      24.316   4.182  52.457  1.00  0.00     0.325 C 
HETATM    9  N1  UNL     1      23.513   5.302  52.730  1.00  0.00    -0.309 N 
HETATM   10  O2  UNL     1      24.661   4.047  51.258  1.00  0.00    -0.247 OA
HETATM   11  H6  UNL     1      23.195   5.460  53.724  1.00  0.00     0.170 HD
HETATM   12  H7  UNL     1      24.394   3.462  54.354  1.00  0.00     0.171 HD
BRANCH   9  13
HETATM   13  C5  UNL     1      23.231   6.098  51.561  1.00  0.00     0.036 A 
HETATM   14  C4  UNL     1      24.168   7.063  51.207  1.00  0.00     0.032 A 
HETATM   15  C3  UNL     1      24.045   7.909  50.114  1.00  0.00     0.039 A 
HETATM   16  C2  UNL     1      22.924   7.762  49.356  1.00  0.00     0.068 A 
HETATM   17  C24 UNL     1      21.959   6.812  49.669  1.00  0.00     0.039 A 
HETATM   18  C23 UNL     1      22.100   5.981  50.761  1.00  0.00     0.032 A 
BRANCH  16  19
HETATM   19  O1  UNL     1      22.655   8.523  48.241  1.00  0.00    -0.356 OA
HETATM   20  C1  UNL     1      22.155   8.073  47.020  1.00  0.00     0.210 C 
ENDBRANCH  16  19
ENDBRANCH   9  13
ENDBRANCH   1   7
BRANCH   2  21
HETATM   21  O3  UNL     1      23.616   0.711  53.463  1.00  0.00    -0.293 OA
BRANCH  21  22
HETATM   22  C9  UNL     1      22.769   0.810  52.367  1.00  0.00     0.183 A 
HETATM   23  N3  UNL     1      23.097   1.323  51.175  1.00  0.00    -0.217 NA
HETATM   24  C10 UNL     1      22.252   1.401  50.140  1.00  0.00     0.236 A 
HETATM   25  N4  UNL     1      21.002   0.931  50.326  1.00  0.00    -0.241 NA
HETATM   26  C11 UNL     1      20.590   0.397  51.497  1.00  0.00     0.075 A 
HETATM   27  C12 UNL     1      19.298  -0.045  51.560  1.00  0.00     0.069 A 
HETATM   28  C17 UNL     1      21.484   0.331  52.545  1.00  0.00     0.046 A 
HETATM   29  C13 UNL     1      18.857  -0.596  52.753  1.00  0.00     0.070 A 
HETATM   30  C15 UNL     1      19.711  -0.686  53.833  1.00  0.00     0.038 A 
HETATM   31  C16 UNL     1      21.017  -0.228  53.739  1.00  0.00     0.021 A 
BRANCH  29  32
HETATM   32  O4  UNL     1      17.597  -1.105  53.044  1.00  0.00    -0.356 OA
HETATM   33  C14 UNL     1      17.484  -2.449  53.457  1.00  0.00     0.210 C 
ENDBRANCH  29  32
ENDBRANCH  21  22
ENDBRANCH   2  21
BRANCH   4  34
HETATM   34  O5  UNL     1      27.825  -1.107  53.808  1.00  0.00    -0.387 OA
HETATM   35  C20 UNL     1      29.202  -0.882  53.687  1.00  0.00     0.202 C 
ENDBRANCH   4  34
TORSDOF 7
ENDMDL
MODEL 6
REMARK VINA RESULT:      -8.3      2.085      6.832
REMARK  7 active torsions:
REMARK  status: ('A' for Active; 'I' for Inactive)
REMARK    1  A    between atoms: O1_2  and  C2_3 
REMARK    2  A    between atoms: C5_6  and  N1_7 
REMARK       I    between atoms: N1_7  and  C6_8 
REMARK       I    between atoms: C6_8  and  N2_10 
REMARK    3  A    between atoms: N2_10  and  C7_11 
REMARK    4  A    between atoms: C8_12  and  O3_13 
REMARK    5  A    between atoms: O3_13  and  C9_14 
REMARK    6  A    between atoms: C13_20  and  O4_21 
REMARK    7  A    between atoms: C19_27  and  O5_28 
ROOT
HETATM    1  C7  UNL     1      22.829   4.101  50.380  1.00  0.00     0.066 A 
HETATM    2  C8  UNL     1      22.294   3.170  49.617  1.00  0.00     0.085 A 
HETATM    3  C18 UNL     1      21.738   3.370  48.285  1.00  0.00     0.103 A 
HETATM    4  C19 UNL     1      21.774   4.746  47.736  1.00  0.00     0.150 A 
HETATM    5  C21 UNL     1      22.373   5.761  48.600  1.00  0.00     0.007 A 
HETATM    6  C22 UNL     1      22.839   5.429  49.791  1.00  0.00     0.030 A 
ENDROOT
BRANCH   1   7
HETATM    7  N2  UNL     1      23.325   3.736  51.651  1.00  0.00    -0.306 N 
HETATM    8  C6  UNL     1      24.499   3.027  51.983  1.00  0.00     0.325 C 
HETATM    9  N1  UNL     1      24.920   2.704  53.283  1.00  0.00    -0.309 N 
HETATM   10  O2  UNL     1      25.256   2.635  51.060  1.00  0.00    -0.247 OA
HETATM   11  H6  UNL     1      24.319   3.012  54.095  1.00  0.00     0.170 HD
HETATM   12  H7  UNL     1      22.795   3.998  52.505  1.00  0.00     0.171 HD
BRANCH   9  13
HETATM   13  C5  UNL     1      26.162   1.972  53.315  1.00  0.00     0.036 A 
HETATM   14  C4  UNL     1      26.086   0.586  53.228  1.00  0.00     0.032 A 
HETATM   15  C3  UNL     1      27.185  -0.261  53.244  1.00  0.00     0.039 A 
HETATM   16  C2  UNL     1      28.406   0.332  53.354  1.00  0.00     0.068 A 
HETATM   17  C24 UNL     1      28.533   1.714  53.444  1.00  0.00     0.039 A 
HETATM   18  C23 UNL     1      27.427   2.536  53.426  1.00  0.00     0.032 A 
BRANCH  16  19
HETATM   19  O1  UNL     1      29.591  -0.367  53.385  1.00  0.00    -0.356 OA
HETATM   20  C1  UNL     1      29.746  -1.751  53.455  1.00  0.00     0.210 C 
ENDBRANCH  16  19
ENDBRANCH   9  13
ENDBRANCH   1   7
BRANCH   2  21
HETATM   21  O3  UNL     1      22.190   1.834  50.000  1.00  0.00    -0.293 OA
BRANCH  21  22
HETATM   22  C9  UNL     1      21.043   1.437  50.676  1.00  0.00     0.183 A 
HETATM   23  N3  UNL     1      19.790   1.757  50.333  1.00  0.00    -0.217 NA
HETATM   24  C10 UNL     1      18.708   1.355  51.011  1.00  0.00     0.236 A 
HETATM   25  N4  UNL     1      18.910   0.585  52.099  1.00  0.00    -0.241 NA
HETATM   26  C11 UNL     1      20.143   0.217  52.513  1.00  0.00     0.075 A 
HETATM   27  C12 UNL     1      20.217  -0.566  53.632  1.00  0.00     0.069 A 
HETATM   28  C17 UNL     1      21.238   0.647  51.794  1.00  0.00     0.046 A 
HETATM   29  C13 UNL     1      21.473  -0.954  54.071  1.00  0.00     0.070 A 
HETATM   30  C15 UNL     1      22.602  -0.551  53.388  1.00  0.00     0.038 A 
HETATM   31  C16 UNL     1      22.496   0.244  52.256  1.00  0.00     0.021 A 
BRANCH  29  32
HETATM   32  O4  UNL     1      21.787  -1.740  55.173  1.00  0.00    -0.356 OA
HETATM   33  C14 UNL     1      23.104  -1.716  55.675  1.00  0.00     0.210 C 
ENDBRANCH  29  32
ENDBRANCH  21  22
ENDBRANCH   2  21
BRANCH   4  34
HETATM   34  O5  UNL     1      22.453   4.804  46.500  1.00  0.00    -0.387 OA
HETATM   35  C20 UNL     1      21.869   3.920  45.584  1.00  0.00     0.202 C 
ENDBRANCH   4  34
TORSDOF 7
ENDMDL
MODEL 7
REMARK VINA RESULT:      -8.3      1.986      6.913
REMARK  7 active torsions:
REMARK  status: ('A' for Active; 'I' for Inactive)
REMARK    1  A    between atoms: O1_2  and  C2_3 
REMARK    2  A    between atoms: C5_6  and  N1_7 
REMARK       I    between atoms: N1_7  and  C6_8 
REMARK       I    between atoms: C6_8  and  N2_10 
REMARK    3  A    between atoms: N2_10  and  C7_11 
REMARK    4  A    between atoms: C8_12  and  O3_13 
REMARK    5  A    between atoms: O3_13  and  C9_14 
REMARK    6  A    between atoms: C13_20  and  O4_21 
REMARK    7  A    between atoms: C19_27  and  O5_28 
ROOT
HETATM    1  C7  UNL     1      23.525   6.152  51.254  1.00  0.00     0.066 A 
HETATM    2  C8  UNL     1      22.455   5.968  50.509  1.00  0.00     0.085 A 
HETATM    3  C18 UNL     1      22.101   6.727  49.316  1.00  0.00     0.103 A 
HETATM    4  C19 UNL     1      23.028   7.806  48.901  1.00  0.00     0.150 A 
HETATM    5  C21 UNL     1      24.208   7.991  49.743  1.00  0.00     0.007 A 
HETATM    6  C22 UNL     1      24.398   7.222  50.800  1.00  0.00     0.030 A 
ENDROOT
BRANCH   1   7
HETATM    7  N2  UNL     1      23.719   5.324  52.382  1.00  0.00    -0.306 N 
HETATM    8  C6  UNL     1      24.395   4.089  52.479  1.00  0.00     0.325 C 
HETATM    9  N1  UNL     1      24.541   3.326  53.648  1.00  0.00    -0.309 N 
HETATM   10  O2  UNL     1      24.922   3.601  51.449  1.00  0.00    -0.247 OA
HETATM   11  H6  UNL     1      24.116   3.693  54.542  1.00  0.00     0.170 HD
HETATM   12  H7  UNL     1      23.333   5.610  53.302  1.00  0.00     0.171 HD
BRANCH   9  13
HETATM   13  C5  UNL     1      25.282   2.106  53.444  1.00  0.00     0.036 A 
HETATM   14  C4  UNL     1      24.548   0.945  53.224  1.00  0.00     0.032 A 
HETATM   15  C3  UNL     1      25.108  -0.307  53.011  1.00  0.00     0.039 A 
HETATM   16  C2  UNL     1      26.467  -0.373  53.024  1.00  0.00     0.068 A 
HETATM   17  C24 UNL     1      27.245   0.759  53.240  1.00  0.00     0.039 A 
HETATM   18  C23 UNL     1      26.667   1.994  53.449  1.00  0.00     0.032 A 
BRANCH  16  19
HETATM   19  O1  UNL     1      27.174  -1.538  52.830  1.00  0.00    -0.356 OA
HETATM   20  C1  UNL     1      28.529  -1.749  53.083  1.00  0.00     0.210 C 
ENDBRANCH  16  19
ENDBRANCH   9  13
ENDBRANCH   1   7
BRANCH   2  21
HETATM   21  O3  UNL     1      21.495   4.992  50.776  1.00  0.00    -0.293 OA
BRANCH  21  22
HETATM   22  C9  UNL     1      21.653   3.746  50.184  1.00  0.00     0.183 A 
HETATM   23  N3  UNL     1      22.012   3.529  48.913  1.00  0.00    -0.217 NA
HETATM   24  C10 UNL     1      22.154   2.311  48.377  1.00  0.00     0.236 A 
HETATM   25  N4  UNL     1      21.918   1.252  49.178  1.00  0.00    -0.241 NA
HETATM   26  C11 UNL     1      21.553   1.383  50.473  1.00  0.00     0.075 A 
HETATM   27  C12 UNL     1      21.343   0.233  51.181  1.00  0.00     0.069 A 
HETATM   28  C17 UNL     1      21.414   2.652  50.995  1.00  0.00     0.046 A 
HETATM   29  C13 UNL     1      20.967   0.348  52.510  1.00  0.00     0.070 A 
HETATM   30  C15 UNL     1      20.815   1.594  53.082  1.00  0.00     0.038 A 
HETATM   31  C16 UNL     1      21.034   2.744  52.338  1.00  0.00     0.021 A 
BRANCH  29  32
HETATM   32  O4  UNL     1      20.703  -0.674  53.414  1.00  0.00    -0.356 OA
HETATM   33  C14 UNL     1      21.488  -0.773  54.581  1.00  0.00     0.210 C 
ENDBRANCH  29  32
ENDBRANCH  21  22
ENDBRANCH   2  21
BRANCH   4  34
HETATM   34  O5  UNL     1      23.487   7.629  47.579  1.00  0.00    -0.387 OA
HETATM   35  C20 UNL     1      22.703   6.676  46.916  1.00  0.00     0.202 C 
ENDBRANCH   4  34
TORSDOF 7
ENDMDL
MODEL 8
REMARK VINA RESULT:      -8.2      3.491      9.685
REMARK  7 active torsions:
REMARK  status: ('A' for Active; 'I' for Inactive)
REMARK    1  A    between atoms: O1_2  and  C2_3 
REMARK    2  A    between atoms: C5_6  and  N1_7 
REMARK       I    between atoms: N1_7  and  C6_8 
REMARK       I    between atoms: C6_8  and  N2_10 
REMARK    3  A    between atoms: N2_10  and  C7_11 
REMARK    4  A    between atoms: C8_12  and  O3_13 
REMARK    5  A    between atoms: O3_13  and  C9_14 
REMARK    6  A    between atoms: C13_20  and  O4_21 
REMARK    7  A    between atoms: C19_27  and  O5_28 
ROOT
HETATM    1  C7  UNL     1      22.768   4.292  50.523  1.00  0.00     0.066 A 
HETATM    2  C8  UNL     1      23.411   4.546  49.402  1.00  0.00     0.085 A 
HETATM    3  C18 UNL     1      22.809   4.688  48.083  1.00  0.00     0.103 A 
HETATM    4  C19 UNL     1      21.338   4.531  47.990  1.00  0.00     0.150 A 
HETATM    5  C21 UNL     1      20.647   4.250  49.246  1.00  0.00     0.007 A 
HETATM    6  C22 UNL     1      21.330   4.149  50.372  1.00  0.00     0.030 A 
ENDROOT
BRANCH   1   7
HETATM    7  N2  UNL     1      23.507   4.186  51.722  1.00  0.00    -0.306 N 
HETATM    8  C6  UNL     1      24.374   3.158  52.150  1.00  0.00     0.325 C 
HETATM    9  N1  UNL     1      25.074   3.132  53.367  1.00  0.00    -0.309 N 
HETATM   10  O2  UNL     1      24.557   2.165  51.403  1.00  0.00    -0.247 OA
HETATM   11  H6  UNL     1      24.955   3.945  54.031  1.00  0.00     0.170 HD
HETATM   12  H7  UNL     1      23.447   4.942  52.432  1.00  0.00     0.171 HD
BRANCH   9  13
HETATM   13  C5  UNL     1      25.886   1.951  53.532  1.00  0.00     0.036 A 
HETATM   14  C4  UNL     1      27.259   2.094  53.361  1.00  0.00     0.032 A 
HETATM   15  C3  UNL     1      28.175   1.059  53.484  1.00  0.00     0.039 A 
HETATM   16  C2  UNL     1      27.668  -0.165  53.794  1.00  0.00     0.068 A 
HETATM   17  C24 UNL     1      26.303  -0.359  53.974  1.00  0.00     0.039 A 
HETATM   18  C23 UNL     1      25.410   0.684  53.847  1.00  0.00     0.032 A 
BRANCH  16  19
HETATM   19  O1  UNL     1      28.443  -1.292  53.950  1.00  0.00    -0.356 OA
HETATM   20  C1  UNL     1      29.724  -1.504  53.444  1.00  0.00     0.210 C 
ENDBRANCH  16  19
ENDBRANCH   9  13
ENDBRANCH   1   7
BRANCH   2  21
HETATM   21  O3  UNL     1      24.793   4.718  49.335  1.00  0.00    -0.293 OA
BRANCH  21  22
HETATM   22  C9  UNL     1      25.282   6.012  49.207  1.00  0.00     0.183 A 
HETATM   23  N3  UNL     1      24.575   7.132  49.394  1.00  0.00    -0.217 NA
HETATM   24  C10 UNL     1      25.081   8.364  49.261  1.00  0.00     0.236 A 
HETATM   25  N4  UNL     1      26.381   8.464  48.918  1.00  0.00    -0.241 NA
HETATM   26  C11 UNL     1      27.166   7.383  48.711  1.00  0.00     0.075 A 
HETATM   27  C12 UNL     1      28.469   7.615  48.368  1.00  0.00     0.069 A 
HETATM   28  C17 UNL     1      26.614   6.127  48.856  1.00  0.00     0.046 A 
HETATM   29  C13 UNL     1      29.289   6.519  48.152  1.00  0.00     0.070 A 
HETATM   30  C15 UNL     1      28.787   5.240  48.283  1.00  0.00     0.038 A 
HETATM   31  C16 UNL     1      27.461   5.036  48.632  1.00  0.00     0.021 A 
BRANCH  29  32
HETATM   32  O4  UNL     1      30.633   6.515  47.797  1.00  0.00    -0.356 OA
HETATM   33  C14 UNL     1      31.598   6.221  48.783  1.00  0.00     0.210 C 
ENDBRANCH  29  32
ENDBRANCH  21  22
ENDBRANCH   2  21
BRANCH   4  34
HETATM   34  O5  UNL     1      20.720   5.666  47.423  1.00  0.00    -0.387 OA
HETATM   35  C20 UNL     1      21.689   6.570  46.970  1.00  0.00     0.202 C 
ENDBRANCH   4  34
TORSDOF 7
ENDMDL
MODEL 9
REMARK VINA RESULT:      -8.2      2.612      8.619
REMARK  7 active torsions:
REMARK  status: ('A' for Active; 'I' for Inactive)
REMARK    1  A    between atoms: O1_2  and  C2_3 
REMARK    2  A    between atoms: C5_6  and  N1_7 
REMARK       I    between atoms: N1_7  and  C6_8 
REMARK       I    between atoms: C6_8  and  N2_10 
REMARK    3  A    between atoms: N2_10  and  C7_11 
REMARK    4  A    between atoms: C8_12  and  O3_13 
REMARK    5  A    between atoms: O3_13  and  C9_14 
REMARK    6  A    between atoms: C13_20  and  O4_21 
REMARK    7  A    between atoms: C19_27  and  O5_28 
ROOT
HETATM    1  C7  UNL     1      21.545   2.131  51.634  1.00  0.00     0.066 A 
HETATM    2  C8  UNL     1      21.552   1.981  50.325  1.00  0.00     0.085 A 
HETATM    3  C18 UNL     1      20.501   1.361  49.529  1.00  0.00     0.103 A 
HETATM    4  C19 UNL     1      19.314   0.851  50.254  1.00  0.00     0.150 A 
HETATM    5  C21 UNL     1      19.328   1.030  51.705  1.00  0.00     0.007 A 
HETATM    6  C22 UNL     1      20.357   1.614  52.292  1.00  0.00     0.030 A 
ENDROOT
BRANCH   1   7
HETATM    7  N2  UNL     1      22.650   2.758  52.252  1.00  0.00    -0.306 N 
HETATM    8  C6  UNL     1      23.894   2.207  52.629  1.00  0.00     0.325 C 
HETATM    9  N1  UNL     1      24.944   2.907  53.245  1.00  0.00    -0.309 N 
HETATM   10  O2  UNL     1      24.112   0.990  52.411  1.00  0.00    -0.247 OA
HETATM   11  H6  UNL     1      24.810   3.934  53.449  1.00  0.00     0.170 HD
HETATM   12  H7  UNL     1      22.602   3.768  52.490  1.00  0.00     0.171 HD
BRANCH   9  13
HETATM   13  C5  UNL     1      26.096   2.082  53.514  1.00  0.00     0.036 A 
HETATM   14  C4  UNL     1      25.988   1.155  54.545  1.00  0.00     0.032 A 
HETATM   15  C3  UNL     1      27.003   0.290  54.930  1.00  0.00     0.039 A 
HETATM   16  C2  UNL     1      28.169   0.376  54.234  1.00  0.00     0.068 A 
HETATM   17  C24 UNL     1      28.326   1.287  53.196  1.00  0.00     0.039 A 
HETATM   18  C23 UNL     1      27.305   2.138  52.830  1.00  0.00     0.032 A 
BRANCH  16  19
HETATM   19  O1  UNL     1      29.269  -0.410  54.493  1.00  0.00    -0.356 OA
HETATM   20  C1  UNL     1      30.015  -1.138  53.567  1.00  0.00     0.210 C 
ENDBRANCH  16  19
ENDBRANCH   9  13
ENDBRANCH   1   7
BRANCH   2  21
HETATM   21  O3  UNL     1      22.600   2.410  49.511  1.00  0.00    -0.293 OA
BRANCH  21  22
HETATM   22  C9  UNL     1      22.566   3.717  49.043  1.00  0.00     0.183 A 
HETATM   23  N3  UNL     1      21.470   4.372  48.644  1.00  0.00    -0.217 NA
HETATM   24  C10 UNL     1      21.477   5.634  48.198  1.00  0.00     0.236 A 
HETATM   25  N4  UNL     1      22.666   6.267  48.155  1.00  0.00    -0.241 NA
HETATM   26  C11 UNL     1      23.821   5.679  48.540  1.00  0.00     0.075 A 
HETATM   27  C12 UNL     1      24.962   6.426  48.449  1.00  0.00     0.069 A 
HETATM   28  C17 UNL     1      23.780   4.377  48.995  1.00  0.00     0.046 A 
HETATM   29  C13 UNL     1      26.156   5.840  48.840  1.00  0.00     0.070 A 
HETATM   30  C15 UNL     1      26.171   4.540  49.302  1.00  0.00     0.038 A 
HETATM   31  C16 UNL     1      24.997   3.806  49.383  1.00  0.00     0.021 A 
BRANCH  29  32
HETATM   32  O4  UNL     1      27.426   6.403  48.834  1.00  0.00    -0.356 OA
HETATM   33  C14 UNL     1      27.551   7.804  48.938  1.00  0.00     0.210 C 
ENDBRANCH  29  32
ENDBRANCH  21  22
ENDBRANCH   2  21
BRANCH   4  34
HETATM   34  O5  UNL     1      18.116   1.427  49.779  1.00  0.00    -0.387 OA
HETATM   35  C20 UNL     1      17.041   1.052  50.594  1.00  0.00     0.202 C 
ENDBRANCH   4  34
TORSDOF 7
ENDMDL
