MODEL 1
REMARK VINA RESULT:      -7.8      0.000      0.000
REMARK  5 active torsions:
REMARK  status: ('A' for Active; 'I' for Inactive)
REMARK    1  A    between atoms: C2_2  and  C3_3 
REMARK    2  A    between atoms: C3_3  and  C4_5 
REMARK    3  A    between atoms: C7_9  and  O2_10 
REMARK    4  A    between atoms: O2_10  and  C8_11 
REMARK    5  A    between atoms: C10_13  and  C11_14 
ROOT
HETATM    1  C8  UNL     1      23.698   2.053  51.680  1.00  0.00     0.132 C 
HETATM    2  C9  UNL     1      23.924   2.688  53.042  1.00  0.00     0.058 C 
HETATM    3  C10 UNL     1      22.352   1.428  51.617  1.00  0.00    -0.009 C 
HETATM    4  C12 UNL     1      21.471   1.031  50.692  1.00  0.00     0.125 C 
HETATM    5  N1  UNL     1      21.308   0.975  49.264  1.00  0.00    -0.256 NA
HETATM    6  C13 UNL     1      21.872   1.670  48.307  1.00  0.00     0.207 C 
HETATM    7  N2  UNL     1      22.849   2.732  48.305  1.00  0.00    -0.348 N 
HETATM    8  C14 UNL     1      23.451   3.478  49.356  1.00  0.00     0.080 A 
HETATM    9  C15 UNL     1      23.812   4.771  49.040  1.00  0.00     0.143 A 
HETATM   10  N3  UNL     1      24.343   5.218  50.190  1.00  0.00    -0.283 N 
HETATM   11  C16 UNL     1      24.885   6.565  50.375  1.00  0.00     0.179 C 
HETATM   12  N4  UNL     1      24.309   4.288  51.119  1.00  0.00    -0.172 NA
HETATM   13  C17 UNL     1      23.746   3.130  50.658  1.00  0.00     0.121 A 
HETATM   14  H16 UNL     1      23.192   3.020  47.353  1.00  0.00     0.167 HD
ENDROOT
BRANCH   1  15
HETATM   15  O2  UNL     1      24.631   1.092  51.530  1.00  0.00    -0.361 OA
BRANCH  15  16
HETATM   16  C7  UNL     1      25.671   0.865  52.284  1.00  0.00     0.158 C 
HETATM   17  C6  UNL     1      27.044   1.340  51.838  1.00  0.00     0.199 C 
HETATM   18  C5  UNL     1      27.825   0.985  53.116  1.00  0.00     0.052 C 
HETATM   19  F1  UNL     1      27.107   2.696  51.614  1.00  0.00    -0.247 F 
HETATM   20  C4  UNL     1      27.245  -0.340  53.497  1.00  0.00     0.065 C 
HETATM   21  C18 UNL     1      26.025  -0.562  52.624  1.00  0.00     0.047 C 
BRANCH  20  22
HETATM   22  C3  UNL     1      28.264  -1.391  53.296  1.00  0.00     0.152 C 
HETATM   23  O1  UNL     1      28.113  -2.623  53.090  1.00  0.00    -0.293 OA
BRANCH  22  24
HETATM   24  C2  UNL     1      29.652  -0.949  53.340  1.00  0.00     0.040 C 
HETATM   25  C1  UNL     1      30.586  -1.478  54.093  1.00  0.00     0.015 C 
ENDBRANCH  22  24
ENDBRANCH  20  22
ENDBRANCH  15  16
ENDBRANCH   1  15
BRANCH   3  26
HETATM   26  C11 UNL     1      21.734   1.120  52.955  1.00  0.00     0.153 C 
HETATM   27 CL1  UNL     1      22.256  -0.460  53.581  1.00  0.00    -0.126 Cl
ENDBRANCH   3  26
TORSDOF 5
ENDMDL
MODEL 2
REMARK VINA RESULT:      -7.4      2.850      4.434
REMARK  5 active torsions:
REMARK  status: ('A' for Active; 'I' for Inactive)
REMARK    1  A    between atoms: C2_2  and  C3_3 
REMARK    2  A    between atoms: C3_3  and  C4_5 
REMARK    3  A    between atoms: C7_9  and  O2_10 
REMARK    4  A    between atoms: O2_10  and  C8_11 
REMARK    5  A    between atoms: C10_13  and  C11_14 
ROOT
HETATM    1  C8  UNL     1      24.251   3.946  50.434  1.00  0.00     0.132 C 
HETATM    2  C9  UNL     1      24.120   2.720  49.546  1.00  0.00     0.058 C 
HETATM    3  C10 UNL     1      25.306   4.852  49.914  1.00  0.00    -0.009 C 
HETATM    4  C12 UNL     1      25.668   6.137  50.015  1.00  0.00     0.125 C 
HETATM    5  N1  UNL     1      25.265   7.358  50.661  1.00  0.00    -0.256 NA
HETATM    6  C13 UNL     1      24.105   7.733  51.140  1.00  0.00     0.207 C 
HETATM    7  N2  UNL     1      22.813   7.094  51.207  1.00  0.00    -0.348 N 
HETATM    8  C14 UNL     1      22.321   5.874  50.666  1.00  0.00     0.080 A 
HETATM    9  C15 UNL     1      20.977   5.856  50.356  1.00  0.00     0.143 A 
HETATM   10  N3  UNL     1      20.800   4.612  49.881  1.00  0.00    -0.283 N 
HETATM   11  C16 UNL     1      19.519   4.089  49.408  1.00  0.00     0.179 C 
HETATM   12  N4  UNL     1      21.928   3.936  49.898  1.00  0.00    -0.172 NA
HETATM   13  C17 UNL     1      22.961   4.682  50.393  1.00  0.00     0.121 A 
HETATM   14  H16 UNL     1      22.085   7.617  51.760  1.00  0.00     0.167 HD
ENDROOT
BRANCH   1  15
HETATM   15  O2  UNL     1      24.614   3.513  51.658  1.00  0.00    -0.361 OA
BRANCH  15  16
HETATM   16  C7  UNL     1      25.011   2.318  51.996  1.00  0.00     0.158 C 
HETATM   17  C6  UNL     1      24.377   1.620  53.187  1.00  0.00     0.199 C 
HETATM   18  C5  UNL     1      25.060   0.249  53.028  1.00  0.00     0.052 C 
HETATM   19  F1  UNL     1      23.014   1.478  53.074  1.00  0.00    -0.247 F 
HETATM   20  C4  UNL     1      26.459   0.622  52.651  1.00  0.00     0.065 C 
HETATM   21  C18 UNL     1      26.461   2.110  52.358  1.00  0.00     0.047 C 
BRANCH  20  22
HETATM   22  C3  UNL     1      27.368   0.280  53.766  1.00  0.00     0.152 C 
HETATM   23  O1  UNL     1      27.359   0.682  54.958  1.00  0.00    -0.293 OA
BRANCH  22  24
HETATM   24  C2  UNL     1      28.437  -0.659  53.450  1.00  0.00     0.040 C 
HETATM   25  C1  UNL     1      29.717  -0.413  53.585  1.00  0.00     0.015 C 
ENDBRANCH  22  24
ENDBRANCH  20  22
ENDBRANCH  15  16
ENDBRANCH   1  15
BRANCH   3  26
HETATM   26  C11 UNL     1      26.305   4.200  48.994  1.00  0.00     0.153 C 
HETATM   27 CL1  UNL     1      27.643   5.295  48.582  1.00  0.00    -0.126 Cl
ENDBRANCH   3  26
TORSDOF 5
ENDMDL
MODEL 3
REMARK VINA RESULT:      -6.9      1.291      1.467
REMARK  5 active torsions:
REMARK  status: ('A' for Active; 'I' for Inactive)
REMARK    1  A    between atoms: C2_2  and  C3_3 
REMARK    2  A    between atoms: C3_3  and  C4_5 
REMARK    3  A    between atoms: C7_9  and  O2_10 
REMARK    4  A    between atoms: O2_10  and  C8_11 
REMARK    5  A    between atoms: C10_13  and  C11_14 
ROOT
HETATM    1  C8  UNL     1      23.285   2.952  51.179  1.00  0.00     0.132 C 
HETATM    2  C9  UNL     1      23.163   3.512  52.586  1.00  0.00     0.058 C 
HETATM    3  C10 UNL     1      22.163   2.022  50.892  1.00  0.00    -0.009 C 
HETATM    4  C12 UNL     1      21.540   1.495  49.831  1.00  0.00     0.125 C 
HETATM    5  N1  UNL     1      21.583   1.516  48.393  1.00  0.00    -0.256 NA
HETATM    6  C13 UNL     1      22.070   2.402  47.561  1.00  0.00     0.207 C 
HETATM    7  N2  UNL     1      22.735   3.670  47.750  1.00  0.00    -0.348 N 
HETATM    8  C14 UNL     1      22.985   4.454  48.910  1.00  0.00     0.080 A 
HETATM    9  C15 UNL     1      23.042   5.817  48.708  1.00  0.00     0.143 A 
HETATM   10  N3  UNL     1      23.287   6.288  49.942  1.00  0.00    -0.283 N 
HETATM   11  C16 UNL     1      23.437   7.707  50.265  1.00  0.00     0.179 C 
HETATM   12  N4  UNL     1      23.371   5.307  50.814  1.00  0.00    -0.172 NA
HETATM   13  C17 UNL     1      23.188   4.087  50.224  1.00  0.00     0.121 A 
HETATM   14  H16 UNL     1      23.113   4.110  46.872  1.00  0.00     0.167 HD
ENDROOT
BRANCH   1  15
HETATM   15  O2  UNL     1      24.444   2.266  51.123  1.00  0.00    -0.361 OA
BRANCH  15  16
HETATM   16  C7  UNL     1      25.380   2.208  52.029  1.00  0.00     0.158 C 
HETATM   17  C6  UNL     1      26.838   2.163  51.605  1.00  0.00     0.199 C 
HETATM   18  C5  UNL     1      27.477   2.275  53.002  1.00  0.00     0.052 C 
HETATM   19  F1  UNL     1      27.216   3.236  50.832  1.00  0.00    -0.247 F 
HETATM   20  C4  UNL     1      26.598   1.398  53.836  1.00  0.00     0.065 C 
HETATM   21  C18 UNL     1      25.389   1.045  52.991  1.00  0.00     0.047 C 
BRANCH  20  22
HETATM   22  C3  UNL     1      27.357   0.195  54.239  1.00  0.00     0.152 C 
HETATM   23  O1  UNL     1      27.382  -0.400  55.347  1.00  0.00    -0.293 OA
BRANCH  22  24
HETATM   24  C2  UNL     1      28.206  -0.395  53.212  1.00  0.00     0.040 C 
HETATM   25  C1  UNL     1      29.385  -0.926  53.425  1.00  0.00     0.015 C 
ENDBRANCH  22  24
ENDBRANCH  20  22
ENDBRANCH  15  16
ENDBRANCH   1  15
BRANCH   3  26
HETATM   26  C11 UNL     1      21.476   1.464  52.110  1.00  0.00     0.153 C 
HETATM   27 CL1  UNL     1      21.882  -0.247  52.377  1.00  0.00    -0.126 Cl
ENDBRANCH   3  26
TORSDOF 5
ENDMDL
MODEL 4
REMARK VINA RESULT:      -6.8      2.430      3.502
REMARK  5 active torsions:
REMARK  status: ('A' for Active; 'I' for Inactive)
REMARK    1  A    between atoms: C2_2  and  C3_3 
REMARK    2  A    between atoms: C3_3  and  C4_5 
REMARK    3  A    between atoms: C7_9  and  O2_10 
REMARK    4  A    between atoms: O2_10  and  C8_11 
REMARK    5  A    between atoms: C10_13  and  C11_14 
ROOT
HETATM    1  C8  UNL     1      23.212   3.612  50.179  1.00  0.00     0.132 C 
HETATM    2  C9  UNL     1      24.218   4.567  49.559  1.00  0.00     0.058 C 
HETATM    3  C10 UNL     1      22.568   4.235  51.363  1.00  0.00    -0.009 C 
HETATM    4  C12 UNL     1      21.459   4.088  52.098  1.00  0.00     0.125 C 
HETATM    5  N1  UNL     1      20.277   3.271  52.176  1.00  0.00    -0.256 NA
HETATM    6  C13 UNL     1      19.668   2.554  51.265  1.00  0.00     0.207 C 
HETATM    7  N2  UNL     1      19.931   2.306  49.868  1.00  0.00    -0.348 N 
HETATM    8  C14 UNL     1      20.880   2.854  48.962  1.00  0.00     0.080 A 
HETATM    9  C15 UNL     1      20.484   2.909  47.642  1.00  0.00     0.143 A 
HETATM   10  N3  UNL     1      21.553   3.453  47.036  1.00  0.00    -0.283 N 
HETATM   11  C16 UNL     1      21.633   3.726  45.601  1.00  0.00     0.179 C 
HETATM   12  N4  UNL     1      22.509   3.707  47.903  1.00  0.00    -0.172 NA
HETATM   13  C17 UNL     1      22.151   3.347  49.173  1.00  0.00     0.121 A 
HETATM   14  H16 UNL     1      19.310   1.583  49.419  1.00  0.00     0.167 HD
ENDROOT
BRANCH   1  15
HETATM   15  O2  UNL     1      23.895   2.520  50.579  1.00  0.00    -0.361 OA
BRANCH  15  16
HETATM   16  C7  UNL     1      24.869   2.462  51.445  1.00  0.00     0.158 C 
HETATM   17  C6  UNL     1      26.229   1.939  51.015  1.00  0.00     0.199 C 
HETATM   18  C5  UNL     1      27.001   2.243  52.313  1.00  0.00     0.052 C 
HETATM   19  F1  UNL     1      26.779   2.644  49.970  1.00  0.00    -0.247 F 
HETATM   20  C4  UNL     1      26.018   1.864  53.375  1.00  0.00     0.065 C 
HETATM   21  C18 UNL     1      24.687   1.624  52.687  1.00  0.00     0.047 C 
BRANCH  20  22
HETATM   22  C3  UNL     1      26.501   0.654  54.073  1.00  0.00     0.152 C 
HETATM   23  O1  UNL     1      27.248   0.557  55.081  1.00  0.00    -0.293 OA
BRANCH  22  24
HETATM   24  C2  UNL     1      26.055  -0.619  53.522  1.00  0.00     0.040 C 
HETATM   25  C1  UNL     1      26.802  -1.439  52.824  1.00  0.00     0.015 C 
ENDBRANCH  22  24
ENDBRANCH  20  22
ENDBRANCH  15  16
ENDBRANCH   1  15
BRANCH   3  26
HETATM   26  C11 UNL     1      23.334   5.379  51.973  1.00  0.00     0.153 C 
HETATM   27 CL1  UNL     1      23.803   5.043  53.655  1.00  0.00    -0.126 Cl
ENDBRANCH   3  26
TORSDOF 5
ENDMDL
MODEL 5
REMARK VINA RESULT:      -6.6      8.549     11.035
REMARK  5 active torsions:
REMARK  status: ('A' for Active; 'I' for Inactive)
REMARK    1  A    between atoms: C2_2  and  C3_3 
REMARK    2  A    between atoms: C3_3  and  C4_5 
REMARK    3  A    between atoms: C7_9  and  O2_10 
REMARK    4  A    between atoms: O2_10  and  C8_11 
REMARK    5  A    between atoms: C10_13  and  C11_14 
ROOT
HETATM    1  C8  UNL     1      32.629   5.993  46.915  1.00  0.00     0.132 C 
HETATM    2  C9  UNL     1      31.940   6.033  45.561  1.00  0.00     0.058 C 
HETATM    3  C10 UNL     1      33.436   4.753  47.049  1.00  0.00    -0.009 C 
HETATM    4  C12 UNL     1      34.459   4.294  47.779  1.00  0.00     0.125 C 
HETATM    5  N1  UNL     1      35.352   4.711  48.826  1.00  0.00    -0.256 NA
HETATM    6  C13 UNL     1      35.720   5.906  49.217  1.00  0.00     0.207 C 
HETATM    7  N2  UNL     1      35.385   7.236  48.766  1.00  0.00    -0.348 N 
HETATM    8  C14 UNL     1      34.629   7.707  47.658  1.00  0.00     0.080 A 
HETATM    9  C15 UNL     1      35.014   8.930  47.149  1.00  0.00     0.143 A 
HETATM   10  N3  UNL     1      34.146   9.116  46.141  1.00  0.00    -0.283 N 
HETATM   11  C16 UNL     1      34.138  10.293  45.271  1.00  0.00     0.179 C 
HETATM   12  N4  UNL     1      33.312   8.104  46.043  1.00  0.00    -0.172 NA
HETATM   13  C17 UNL     1      33.559   7.149  46.990  1.00  0.00     0.121 A 
HETATM   14  H16 UNL     1      35.765   8.016  49.362  1.00  0.00     0.167 HD
ENDROOT
BRANCH   1  15
HETATM   15  O2  UNL     1      31.661   5.986  47.853  1.00  0.00    -0.361 OA
BRANCH  15  16
HETATM   16  C7  UNL     1      30.453   6.469  47.757  1.00  0.00     0.158 C 
HETATM   17  C6  UNL     1      30.070   7.704  48.554  1.00  0.00     0.199 C 
HETATM   18  C5  UNL     1      28.668   7.925  47.956  1.00  0.00     0.052 C 
HETATM   19  F1  UNL     1      30.867   8.794  48.289  1.00  0.00    -0.247 F 
HETATM   20  C4  UNL     1      28.132   6.532  47.855  1.00  0.00     0.065 C 
HETATM   21  C18 UNL     1      29.287   5.588  48.131  1.00  0.00     0.047 C 
BRANCH  20  22
HETATM   22  C3  UNL     1      27.037   6.362  48.834  1.00  0.00     0.152 C 
HETATM   23  O1  UNL     1      26.500   7.213  49.589  1.00  0.00    -0.293 OA
BRANCH  22  24
HETATM   24  C2  UNL     1      26.494   5.015  48.953  1.00  0.00     0.040 C 
HETATM   25  C1  UNL     1      25.801   4.571  49.973  1.00  0.00     0.015 C 
ENDBRANCH  22  24
ENDBRANCH  20  22
ENDBRANCH  15  16
ENDBRANCH   1  15
BRANCH   3  26
HETATM   26  C11 UNL     1      33.040   3.636  46.119  1.00  0.00     0.153 C 
HETATM   27 CL1  UNL     1      32.650   2.143  47.002  1.00  0.00    -0.126 Cl
ENDBRANCH   3  26
TORSDOF 5
ENDMDL
MODEL 6
REMARK VINA RESULT:      -6.4      4.326      5.808
REMARK  5 active torsions:
REMARK  status: ('A' for Active; 'I' for Inactive)
REMARK    1  A    between atoms: C2_2  and  C3_3 
REMARK    2  A    between atoms: C3_3  and  C4_5 
REMARK    3  A    between atoms: C7_9  and  O2_10 
REMARK    4  A    between atoms: O2_10  and  C8_11 
REMARK    5  A    between atoms: C10_13  and  C11_14 
ROOT
HETATM    1  C8  UNL     1      23.246   4.043  49.734  1.00  0.00     0.132 C 
HETATM    2  C9  UNL     1      23.220   2.896  48.737  1.00  0.00     0.058 C 
HETATM    3  C10 UNL     1      24.625   4.575  49.875  1.00  0.00    -0.009 C 
HETATM    4  C12 UNL     1      25.234   5.692  50.292  1.00  0.00     0.125 C 
HETATM    5  N1  UNL     1      24.928   6.990  50.830  1.00  0.00    -0.256 NA
HETATM    6  C13 UNL     1      23.835   7.710  50.768  1.00  0.00     0.207 C 
HETATM    7  N2  UNL     1      22.546   7.493  50.154  1.00  0.00    -0.348 N 
HETATM    8  C14 UNL     1      22.055   6.468  49.298  1.00  0.00     0.080 A 
HETATM    9  C15 UNL     1      21.074   6.853  48.408  1.00  0.00     0.143 A 
HETATM   10  N3  UNL     1      20.809   5.711  47.752  1.00  0.00    -0.283 N 
HETATM   11  C16 UNL     1      19.818   5.591  46.682  1.00  0.00     0.179 C 
HETATM   12  N4  UNL     1      21.556   4.725  48.197  1.00  0.00    -0.172 NA
HETATM   13  C17 UNL     1      22.391   5.134  49.201  1.00  0.00     0.121 A 
HETATM   14  H16 UNL     1      21.820   8.223  50.373  1.00  0.00     0.167 HD
ENDROOT
BRANCH   1  15
HETATM   15  O2  UNL     1      22.849   3.545  50.922  1.00  0.00    -0.361 OA
BRANCH  15  16
HETATM   16  C7  UNL     1      22.229   2.420  51.149  1.00  0.00     0.158 C 
HETATM   17  C6  UNL     1      20.746   2.429  51.478  1.00  0.00     0.199 C 
HETATM   18  C5  UNL     1      20.511   0.907  51.474  1.00  0.00     0.052 C 
HETATM   19  F1  UNL     1      19.975   3.023  50.505  1.00  0.00    -0.247 F 
HETATM   20  C4  UNL     1      21.734   0.385  52.156  1.00  0.00     0.065 C 
HETATM   21  C18 UNL     1      22.706   1.543  52.281  1.00  0.00     0.047 C 
BRANCH  20  22
HETATM   22  C3  UNL     1      21.357  -0.160  53.478  1.00  0.00     0.152 C 
HETATM   23  O1  UNL     1      20.416   0.176  54.243  1.00  0.00    -0.293 OA
BRANCH  22  24
HETATM   24  C2  UNL     1      22.189  -1.245  53.980  1.00  0.00     0.040 C 
HETATM   25  C1  UNL     1      22.694  -1.308  55.188  1.00  0.00     0.015 C 
ENDBRANCH  22  24
ENDBRANCH  20  22
ENDBRANCH  15  16
ENDBRANCH   1  15
BRANCH   3  26
HETATM   26  C11 UNL     1      25.716   3.633  49.440  1.00  0.00     0.153 C 
HETATM   27 CL1  UNL     1      27.185   4.501  48.939  1.00  0.00    -0.126 Cl
ENDBRANCH   3  26
TORSDOF 5
ENDMDL
MODEL 7
REMARK VINA RESULT:      -6.4      3.429      6.735
REMARK  5 active torsions:
REMARK  status: ('A' for Active; 'I' for Inactive)
REMARK    1  A    between atoms: C2_2  and  C3_3 
REMARK    2  A    between atoms: C3_3  and  C4_5 
REMARK    3  A    between atoms: C7_9  and  O2_10 
REMARK    4  A    between atoms: O2_10  and  C8_11 
REMARK    5  A    between atoms: C10_13  and  C11_14 
ROOT
HETATM    1  C8  UNL     1      24.903   3.637  50.104  1.00  0.00     0.132 C 
HETATM    2  C9  UNL     1      26.385   3.416  49.849  1.00  0.00     0.058 C 
HETATM    3  C10 UNL     1      24.462   2.867  51.294  1.00  0.00    -0.009 C 
HETATM    4  C12 UNL     1      23.460   2.875  52.182  1.00  0.00     0.125 C 
HETATM    5  N1  UNL     1      22.263   3.606  52.501  1.00  0.00    -0.256 NA
HETATM    6  C13 UNL     1      21.900   4.829  52.206  1.00  0.00     0.207 C 
HETATM    7  N2  UNL     1      22.536   5.896  51.470  1.00  0.00    -0.348 N 
HETATM    8  C14 UNL     1      23.836   6.026  50.908  1.00  0.00     0.080 A 
HETATM    9  C15 UNL     1      24.337   7.310  50.855  1.00  0.00     0.143 A 
HETATM   10  N3  UNL     1      25.544   7.132  50.291  1.00  0.00    -0.283 N 
HETATM   11  C16 UNL     1      26.488   8.214  50.014  1.00  0.00     0.179 C 
HETATM   12  N4  UNL     1      25.759   5.862  50.027  1.00  0.00    -0.172 NA
HETATM   13  C17 UNL     1      24.699   5.080  50.396  1.00  0.00     0.121 A 
HETATM   14  H16 UNL     1      21.935   6.745  51.308  1.00  0.00     0.167 HD
ENDROOT
BRANCH   1  15
HETATM   15  O2  UNL     1      24.241   3.182  49.022  1.00  0.00    -0.361 OA
BRANCH  15  16
HETATM   16  C7  UNL     1      22.958   3.230  48.793  1.00  0.00     0.158 C 
HETATM   17  C6  UNL     1      22.184   1.943  48.567  1.00  0.00     0.199 C 
HETATM   18  C5  UNL     1      20.766   2.544  48.526  1.00  0.00     0.052 C 
HETATM   19  F1  UNL     1      22.284   1.055  49.613  1.00  0.00    -0.247 F 
HETATM   20  C4  UNL     1      20.966   3.800  47.740  1.00  0.00     0.065 C 
HETATM   21  C18 UNL     1      22.462   4.005  47.597  1.00  0.00     0.047 C 
BRANCH  20  22
HETATM   22  C3  UNL     1      20.302   3.662  46.427  1.00  0.00     0.152 C 
HETATM   23  O1  UNL     1      19.120   3.323  46.160  1.00  0.00    -0.293 OA
BRANCH  22  24
HETATM   24  C2  UNL     1      21.127   3.956  45.262  1.00  0.00     0.040 C 
HETATM   25  C1  UNL     1      20.708   3.938  44.020  1.00  0.00     0.015 C 
ENDBRANCH  22  24
ENDBRANCH  20  22
ENDBRANCH  15  16
ENDBRANCH   1  15
BRANCH   3  26
HETATM   26  C11 UNL     1      25.359   1.718  51.674  1.00  0.00     0.153 C 
HETATM   27 CL1  UNL     1      24.676   0.752  53.001  1.00  0.00    -0.126 Cl
ENDBRANCH   3  26
TORSDOF 5
ENDMDL
MODEL 8
REMARK VINA RESULT:      -6.3      3.143      4.477
REMARK  5 active torsions:
REMARK  status: ('A' for Active; 'I' for Inactive)
REMARK    1  A    between atoms: C2_2  and  C3_3 
REMARK    2  A    between atoms: C3_3  and  C4_5 
REMARK    3  A    between atoms: C7_9  and  O2_10 
REMARK    4  A    between atoms: O2_10  and  C8_11 
REMARK    5  A    between atoms: C10_13  and  C11_14 
ROOT
HETATM    1  C8  UNL     1      21.953   3.677  50.706  1.00  0.00     0.132 C 
HETATM    2  C9  UNL     1      20.503   3.531  50.275  1.00  0.00     0.058 C 
HETATM    3  C10 UNL     1      22.849   2.963  49.760  1.00  0.00    -0.009 C 
HETATM    4  C12 UNL     1      24.137   2.969  49.396  1.00  0.00     0.125 C 
HETATM    5  N1  UNL     1      25.372   3.644  49.692  1.00  0.00    -0.256 NA
HETATM    6  C13 UNL     1      25.603   4.820  50.221  1.00  0.00     0.207 C 
HETATM    7  N2  UNL     1      24.738   5.871  50.701  1.00  0.00    -0.348 N 
HETATM    8  C14 UNL     1      23.327   6.044  50.655  1.00  0.00     0.080 A 
HETATM    9  C15 UNL     1      22.887   7.350  50.599  1.00  0.00     0.143 A 
HETATM   10  N3  UNL     1      21.551   7.209  50.569  1.00  0.00    -0.283 N 
HETATM   11  C16 UNL     1      20.609   8.327  50.505  1.00  0.00     0.179 C 
HETATM   12  N4  UNL     1      21.209   5.940  50.602  1.00  0.00    -0.172 NA
HETATM   13  C17 UNL     1      22.303   5.120  50.659  1.00  0.00     0.121 A 
HETATM   14  H16 UNL     1      25.231   6.669  51.180  1.00  0.00     0.167 HD
ENDROOT
BRANCH   1  15
HETATM   15  O2  UNL     1      22.065   3.109  51.923  1.00  0.00    -0.361 OA
BRANCH  15  16
HETATM   16  C7  UNL     1      22.217   1.844  52.202  1.00  0.00     0.158 C 
HETATM   17  C6  UNL     1      21.237   1.155  53.136  1.00  0.00     0.199 C 
HETATM   18  C5  UNL     1      21.759  -0.286  52.978  1.00  0.00     0.052 C 
HETATM   19  F1  UNL     1      19.932   1.228  52.708  1.00  0.00    -0.247 F 
HETATM   20  C4  UNL     1      23.242  -0.097  52.966  1.00  0.00     0.065 C 
HETATM   21  C18 UNL     1      23.503   1.393  52.851  1.00  0.00     0.047 C 
BRANCH  20  22
HETATM   22  C3  UNL     1      23.812  -0.660  54.208  1.00  0.00     0.152 C 
HETATM   23  O1  UNL     1      23.230  -1.218  55.174  1.00  0.00    -0.293 OA
BRANCH  22  24
HETATM   24  C2  UNL     1      25.259  -0.560  54.347  1.00  0.00     0.040 C 
HETATM   25  C1  UNL     1      26.130  -0.948  53.447  1.00  0.00     0.015 C 
ENDBRANCH  22  24
ENDBRANCH  20  22
ENDBRANCH  15  16
ENDBRANCH   1  15
BRANCH   3  26
HETATM   26  C11 UNL     1      22.177   1.900  48.931  1.00  0.00     0.153 C 
HETATM   27 CL1  UNL     1      22.622   2.017  47.214  1.00  0.00    -0.126 Cl
ENDBRANCH   3  26
TORSDOF 5
ENDMDL
MODEL 9
REMARK VINA RESULT:      -6.3      9.205     11.731
REMARK  5 active torsions:
REMARK  status: ('A' for Active; 'I' for Inactive)
REMARK    1  A    between atoms: C2_2  and  C3_3 
REMARK    2  A    between atoms: C3_3  and  C4_5 
REMARK    3  A    between atoms: C7_9  and  O2_10 
REMARK    4  A    between atoms: O2_10  and  C8_11 
REMARK    5  A    between atoms: C10_13  and  C11_14 
ROOT
HETATM    1  C8  UNL     1      33.254   5.309  46.160  1.00  0.00     0.132 C 
HETATM    2  C9  UNL     1      33.042   4.359  44.993  1.00  0.00     0.058 C 
HETATM    3  C10 UNL     1      34.315   4.792  47.062  1.00  0.00    -0.009 C 
HETATM    4  C12 UNL     1      35.149   5.253  48.001  1.00  0.00     0.125 C 
HETATM    5  N1  UNL     1      35.502   6.477  48.670  1.00  0.00    -0.256 NA
HETATM    6  C13 UNL     1      35.350   7.727  48.310  1.00  0.00     0.207 C 
HETATM    7  N2  UNL     1      34.785   8.353  47.138  1.00  0.00    -0.348 N 
HETATM    8  C14 UNL     1      34.306   7.823  45.909  1.00  0.00     0.080 A 
HETATM    9  C15 UNL     1      34.440   8.647  44.810  1.00  0.00     0.143 A 
HETATM   10  N3  UNL     1      33.914   7.906  43.821  1.00  0.00    -0.283 N 
HETATM   11  C16 UNL     1      33.820   8.344  42.428  1.00  0.00     0.179 C 
HETATM   12  N4  UNL     1      33.500   6.741  44.271  1.00  0.00    -0.172 NA
HETATM   13  C17 UNL     1      33.717   6.610  45.615  1.00  0.00     0.121 A 
HETATM   14  H16 UNL     1      34.706   9.402  47.188  1.00  0.00     0.167 HD
ENDROOT
BRANCH   1  15
HETATM   15  O2  UNL     1      32.093   5.365  46.843  1.00  0.00    -0.361 OA
BRANCH  15  16
HETATM   16  C7  UNL     1      31.610   6.375  47.513  1.00  0.00     0.158 C 
HETATM   17  C6  UNL     1      31.384   6.247  49.010  1.00  0.00     0.199 C 
HETATM   18  C5  UNL     1      30.993   7.709  49.298  1.00  0.00     0.052 C 
HETATM   19  F1  UNL     1      32.524   5.923  49.709  1.00  0.00    -0.247 F 
HETATM   20  C4  UNL     1      30.124   8.051  48.130  1.00  0.00     0.065 C 
HETATM   21  C18 UNL     1      30.258   6.922  47.126  1.00  0.00     0.047 C 
BRANCH  20  22
HETATM   22  C3  UNL     1      28.729   8.211  48.594  1.00  0.00     0.152 C 
HETATM   23  O1  UNL     1      28.230   9.094  49.339  1.00  0.00    -0.293 OA
BRANCH  22  24
HETATM   24  C2  UNL     1      27.785   7.204  48.129  1.00  0.00     0.040 C 
HETATM   25  C1  UNL     1      26.497   7.396  47.973  1.00  0.00     0.015 C 
ENDBRANCH  22  24
ENDBRANCH  20  22
ENDBRANCH  15  16
ENDBRANCH   1  15
BRANCH   3  26
HETATM   26  C11 UNL     1      34.586   3.315  46.940  1.00  0.00     0.153 C 
HETATM   27 CL1  UNL     1      33.455   2.349  47.914  1.00  0.00    -0.126 Cl
ENDBRANCH   3  26
TORSDOF 5
ENDMDL
