MODEL 1
REMARK VINA RESULT:      -9.8      0.000      0.000
REMARK  3 active torsions:
REMARK  status: ('A' for Active; 'I' for Inactive)
REMARK    1  A    between atoms: C6_8  and  C7_9 
REMARK    2  A    between atoms: C7_9  and  C8_10 
REMARK    3  A    between atoms: C14_17  and  C15_18 
ROOT
HETATM    1  C1  UNL     1      26.420  -1.783  52.773  1.00  0.00     0.039 C 
HETATM    2  C2  UNL     1      25.838  -0.674  53.477  1.00  0.00     0.130 C 
HETATM    3  N1  UNL     1      25.943   0.691  52.909  1.00  0.00    -0.351 N 
HETATM    4  C3  UNL     1      26.154   2.044  53.183  1.00  0.00     0.228 C 
HETATM    5  O1  UNL     1      26.450   2.324  54.358  1.00  0.00    -0.273 OA
HETATM    6  C4  UNL     1      25.870   2.517  51.760  1.00  0.00     0.057 A 
HETATM    7  C5  UNL     1      27.023   2.884  51.138  1.00  0.00     0.021 A 
HETATM    8  C6  UNL     1      25.762   2.800  50.726  1.00  0.00    -0.004 A 
HETATM    9  C13 UNL     1      24.468   2.503  50.948  1.00  0.00     0.001 A 
HETATM   10  C14 UNL     1      23.148   2.293  50.892  1.00  0.00     0.014 A 
HETATM   11  C15 UNL     1      24.478   2.380  51.400  1.00  0.00    -0.005 A 
HETATM   12  C16 UNL     1      23.661   2.689  52.728  1.00  0.00     0.039 C 
HETATM   13  C17 UNL     1      22.237   2.487  52.649  1.00  0.00    -0.024 C 
HETATM   14  C18 UNL     1      21.545   1.314  52.944  1.00  0.00     0.018 C 
HETATM   15  C19 UNL     1      22.019   0.029  53.348  1.00  0.00     0.042 C 
HETATM   16 CL1  UNL     1      20.642  -1.023  53.745  1.00  0.00    -0.086 Cl
HETATM   17  C20 UNL     1      22.834  -0.944  53.643  1.00  0.00     0.202 A 
HETATM   18  C21 UNL     1      24.263  -0.661  53.445  1.00  0.00     0.060 A 
HETATM   19  N3  UNL     1      23.623   0.149  52.668  1.00  0.00    -0.277 N 
HETATM   20  N4  UNL     1      23.994   1.106  51.746  1.00  0.00     0.000 N 
HETATM   21  H5  UNL     1      25.891   0.183  51.965  1.00  0.00     0.163 HD
HETATM   22  H19 UNL     1      23.807   0.149  51.243  1.00  0.00     0.000 HD
ENDROOT
BRANCH   8  23
HETATM   23  C7  UNL     1      26.024   3.363  49.339  1.00  0.00     0.050 C 
BRANCH  23  24
HETATM   24  C8  UNL     1      26.074   4.832  49.415  1.00  0.00    -0.055 A 
HETATM   25  C9  UNL     1      27.189   5.194  48.645  1.00  0.00     0.026 A 
HETATM   26  C10 UNL     1      27.600   6.531  48.524  1.00  0.00     0.116 A 
HETATM   27  N2  UNL     1      26.882   7.449  49.178  1.00  0.00    -0.273 NA
HETATM   28  C11 UNL     1      25.812   7.076  49.907  1.00  0.00     0.116 A 
HETATM   29  C12 UNL     1      25.369   5.769  50.054  1.00  0.00     0.026 A 
ENDBRANCH  23  24
ENDBRANCH   8  23
TORSDOF 3
ENDMDL
MODEL 2
REMARK VINA RESULT:      -9.3      2.523      5.511
REMARK  3 active torsions:
REMARK  status: ('A' for Active; 'I' for Inactive)
REMARK    1  A    between atoms: C6_8  and  C7_9 
REMARK    2  A    between atoms: C7_9  and  C8_10 
REMARK    3  A    between atoms: C14_17  and  C15_18 
ROOT
HETATM    1  C1  UNL     1      24.171   6.599  51.857  1.00  0.00     0.039 C 
HETATM    2  C2  UNL     1      23.923   5.477  50.996  1.00  0.00     0.130 C 
HETATM    3  N1  UNL     1      24.689   4.222  51.189  1.00  0.00    -0.351 N 
HETATM    4  C3  UNL     1      25.344   3.160  50.563  1.00  0.00     0.228 C 
HETATM    5  O1  UNL     1      25.437   3.229  49.325  1.00  0.00    -0.273 OA
HETATM    6  C4  UNL     1      25.616   2.389  51.851  1.00  0.00     0.057 A 
HETATM    7  C5  UNL     1      26.933   2.466  52.187  1.00  0.00     0.021 A 
HETATM    8  C6  UNL     1      25.877   1.925  52.789  1.00  0.00    -0.004 A 
HETATM    9  C13 UNL     1      24.559   1.660  52.839  1.00  0.00     0.001 A 
HETATM   10  C14 UNL     1      23.318   1.262  53.139  1.00  0.00     0.014 A 
HETATM   11  C15 UNL     1      24.412   1.846  52.435  1.00  0.00    -0.005 A 
HETATM   12  C16 UNL     1      23.492   1.429  51.208  1.00  0.00     0.039 C 
HETATM   13  C17 UNL     1      22.168   0.975  51.542  1.00  0.00    -0.024 C 
HETATM   14  C18 UNL     1      21.021   1.760  51.651  1.00  0.00     0.018 C 
HETATM   15  C19 UNL     1      20.840   3.169  51.510  1.00  0.00     0.042 C 
HETATM   16 CL1  UNL     1      19.108   3.565  51.591  1.00  0.00    -0.086 Cl
HETATM   17  C20 UNL     1      21.110   4.434  51.346  1.00  0.00     0.202 A 
HETATM   18  C21 UNL     1      22.537   4.774  51.256  1.00  0.00     0.060 A 
HETATM   19  N3  UNL     1      22.473   3.653  51.895  1.00  0.00    -0.277 N 
HETATM   20  N4  UNL     1      23.398   2.819  52.488  1.00  0.00     0.000 N 
HETATM   21  H5  UNL     1      24.667   4.498  52.226  1.00  0.00     0.163 HD
HETATM   22  H19 UNL     1      22.976   3.504  53.234  1.00  0.00     0.000 HD
ENDROOT
BRANCH   8  23
HETATM   23  C7  UNL     1      26.662   1.318  53.940  1.00  0.00     0.050 C 
BRANCH  23  24
HETATM   24  C8  UNL     1      27.105  -0.034  53.563  1.00  0.00    -0.055 A 
HETATM   25  C9  UNL     1      28.447  -0.098  53.969  1.00  0.00     0.026 A 
HETATM   26  C10 UNL     1      29.238  -1.231  53.724  1.00  0.00     0.116 A 
HETATM   27  N2  UNL     1      28.659  -2.250  53.083  1.00  0.00    -0.273 NA
HETATM   28  C11 UNL     1      27.368  -2.166  52.708  1.00  0.00     0.116 A 
HETATM   29  C12 UNL     1      26.548  -1.068  52.930  1.00  0.00     0.026 A 
ENDBRANCH  23  24
ENDBRANCH   8  23
TORSDOF 3
ENDMDL
MODEL 3
REMARK VINA RESULT:      -9.1      2.550      5.416
REMARK  3 active torsions:
REMARK  status: ('A' for Active; 'I' for Inactive)
REMARK    1  A    between atoms: C6_8  and  C7_9 
REMARK    2  A    between atoms: C7_9  and  C8_10 
REMARK    3  A    between atoms: C14_17  and  C15_18 
ROOT
HETATM    1  C1  UNL     1      21.922   0.164  52.651  1.00  0.00     0.039 C 
HETATM    2  C2  UNL     1      22.233   1.547  52.423  1.00  0.00     0.130 C 
HETATM    3  N1  UNL     1      23.587   2.057  52.747  1.00  0.00    -0.351 N 
HETATM    4  C3  UNL     1      24.328   3.113  53.282  1.00  0.00     0.228 C 
HETATM    5  O1  UNL     1      23.671   4.041  53.784  1.00  0.00    -0.273 OA
HETATM    6  C4  UNL     1      25.688   2.523  52.920  1.00  0.00     0.057 A 
HETATM    7  C5  UNL     1      26.319   2.056  54.033  1.00  0.00     0.021 A 
HETATM    8  C6  UNL     1      26.628   2.027  52.740  1.00  0.00    -0.004 A 
HETATM    9  C13 UNL     1      26.339   2.299  51.454  1.00  0.00     0.001 A 
HETATM   10  C14 UNL     1      26.312   2.446  50.124  1.00  0.00     0.014 A 
HETATM   11  C15 UNL     1      25.931   2.526  51.497  1.00  0.00    -0.005 A 
HETATM   12  C16 UNL     1      25.253   3.855  50.950  1.00  0.00     0.039 C 
HETATM   13  C17 UNL     1      25.253   4.017  49.520  1.00  0.00    -0.024 C 
HETATM   14  C18 UNL     1      24.263   3.594  48.634  1.00  0.00     0.018 C 
HETATM   15  C19 UNL     1      23.047   2.883  48.867  1.00  0.00     0.042 C 
HETATM   16 CL1  UNL     1      22.110   2.784  47.358  1.00  0.00    -0.086 Cl
HETATM   17  C20 UNL     1      22.106   2.223  49.482  1.00  0.00     0.202 A 
HETATM   18  C21 UNL     1      22.360   1.925  50.899  1.00  0.00     0.060 A 
HETATM   19  N3  UNL     1      23.518   2.097  50.353  1.00  0.00    -0.277 N 
HETATM   20  N4  UNL     1      24.822   2.019  50.797  1.00  0.00     0.000 N 
HETATM   21  H5  UNL     1      23.906   1.073  52.460  1.00  0.00     0.163 HD
HETATM   22  H19 UNL     1      24.521   1.067  50.342  1.00  0.00     0.000 HD
ENDROOT
BRANCH   8  23
HETATM   23  C7  UNL     1      27.993   1.387  52.932  1.00  0.00     0.050 C 
BRANCH  23  24
HETATM   24  C8  UNL     1      27.847  -0.077  52.925  1.00  0.00    -0.055 A 
HETATM   25  C9  UNL     1      29.083  -0.564  53.376  1.00  0.00     0.026 A 
HETATM   26  C10 UNL     1      29.350  -1.940  53.453  1.00  0.00     0.116 A 
HETATM   27  N2  UNL     1      28.375  -2.771  53.073  1.00  0.00    -0.273 NA
HETATM   28  C11 UNL     1      27.195  -2.279  52.648  1.00  0.00     0.116 A 
HETATM   29  C12 UNL     1      26.886  -0.929  52.557  1.00  0.00     0.026 A 
ENDBRANCH  23  24
ENDBRANCH   8  23
TORSDOF 3
ENDMDL
MODEL 4
REMARK VINA RESULT:      -8.7      2.183      3.681
REMARK  3 active torsions:
REMARK  status: ('A' for Active; 'I' for Inactive)
REMARK    1  A    between atoms: C6_8  and  C7_9 
REMARK    2  A    between atoms: C7_9  and  C8_10 
REMARK    3  A    between atoms: C14_17  and  C15_18 
ROOT
HETATM    1  C1  UNL     1      18.932   2.779  51.540  1.00  0.00     0.039 C 
HETATM    2  C2  UNL     1      19.957   1.866  51.117  1.00  0.00     0.130 C 
HETATM    3  N1  UNL     1      21.225   2.395  50.559  1.00  0.00    -0.351 N 
HETATM    4  C3  UNL     1      22.215   2.238  49.587  1.00  0.00     0.228 C 
HETATM    5  O1  UNL     1      22.015   1.347  48.743  1.00  0.00    -0.273 OA
HETATM    6  C4  UNL     1      23.118   3.341  50.133  1.00  0.00     0.057 A 
HETATM    7  C5  UNL     1      23.076   4.437  49.327  1.00  0.00     0.021 A 
HETATM    8  C6  UNL     1      23.678   4.191  50.488  1.00  0.00    -0.004 A 
HETATM    9  C13 UNL     1      23.947   3.376  51.524  1.00  0.00     0.001 A 
HETATM   10  C14 UNL     1      24.376   2.792  52.649  1.00  0.00     0.014 A 
HETATM   11  C15 UNL     1      23.720   2.986  51.397  1.00  0.00    -0.005 A 
HETATM   12  C16 UNL     1      24.004   1.425  51.313  1.00  0.00     0.039 C 
HETATM   13  C17 UNL     1      24.492   0.810  52.520  1.00  0.00    -0.024 C 
HETATM   14  C18 UNL     1      23.723   0.235  53.531  1.00  0.00     0.018 C 
HETATM   15  C19 UNL     1      22.307   0.128  53.677  1.00  0.00     0.042 C 
HETATM   16 CL1  UNL     1      21.922  -0.870  55.098  1.00  0.00    -0.086 Cl
HETATM   17  C20 UNL     1      21.032   0.276  53.449  1.00  0.00     0.202 A 
HETATM   18  C21 UNL     1      20.684   1.134  52.308  1.00  0.00     0.060 A 
HETATM   19  N3  UNL     1      21.866   1.495  52.684  1.00  0.00    -0.277 N 
HETATM   20  N4  UNL     1      22.758   2.468  52.282  1.00  0.00     0.000 N 
HETATM   21  H5  UNL     1      21.061   3.204  51.245  1.00  0.00     0.163 HD
HETATM   22  H19 UNL     1      22.156   2.833  53.124  1.00  0.00     0.000 HD
ENDROOT
BRANCH   8  23
HETATM   23  C7  UNL     1      24.404   5.524  50.561  1.00  0.00     0.050 C 
BRANCH  23  24
HETATM   24  C8  UNL     1      25.673   5.425  49.823  1.00  0.00    -0.055 A 
HETATM   25  C9  UNL     1      25.983   6.744  49.462  1.00  0.00     0.026 A 
HETATM   26  C10 UNL     1      27.112   7.052  48.687  1.00  0.00     0.116 A 
HETATM   27  N2  UNL     1      27.882   6.029  48.302  1.00  0.00    -0.273 NA
HETATM   28  C11 UNL     1      27.566   4.771  48.665  1.00  0.00     0.116 A 
HETATM   29  C12 UNL     1      26.462   4.421  49.431  1.00  0.00     0.026 A 
ENDBRANCH  23  24
ENDBRANCH   8  23
TORSDOF 3
ENDMDL
MODEL 5
REMARK VINA RESULT:      -8.5      3.140      3.877
REMARK  3 active torsions:
REMARK  status: ('A' for Active; 'I' for Inactive)
REMARK    1  A    between atoms: C6_8  and  C7_9 
REMARK    2  A    between atoms: C7_9  and  C8_10 
REMARK    3  A    between atoms: C14_17  and  C15_18 
ROOT
HETATM    1  C1  UNL     1      26.518   0.706  52.042  1.00  0.00     0.039 C 
HETATM    2  C2  UNL     1      25.409   1.479  52.527  1.00  0.00     0.130 C 
HETATM    3  N1  UNL     1      24.520   2.170  51.564  1.00  0.00    -0.351 N 
HETATM    4  C3  UNL     1      23.793   3.330  51.288  1.00  0.00     0.228 C 
HETATM    5  O1  UNL     1      23.928   4.265  52.097  1.00  0.00    -0.273 OA
HETATM    6  C4  UNL     1      23.138   2.783  50.023  1.00  0.00     0.057 A 
HETATM    7  C5  UNL     1      23.685   3.354  48.915  1.00  0.00     0.021 A 
HETATM    8  C6  UNL     1      22.776   2.398  49.083  1.00  0.00    -0.004 A 
HETATM    9  C13 UNL     1      22.042   1.598  49.879  1.00  0.00     0.001 A 
HETATM   10  C14 UNL     1      21.206   0.703  50.417  1.00  0.00     0.014 A 
HETATM   11  C15 UNL     1      22.172   1.746  50.304  1.00  0.00    -0.005 A 
HETATM   12  C16 UNL     1      21.483   2.164  51.674  1.00  0.00     0.039 C 
HETATM   13  C17 UNL     1      20.564   1.206  52.231  1.00  0.00    -0.024 C 
HETATM   14  C18 UNL     1      20.868   0.185  53.129  1.00  0.00     0.018 C 
HETATM   15  C19 UNL     1      22.114  -0.214  53.698  1.00  0.00     0.042 C 
HETATM   16 CL1  UNL     1      21.842  -1.480  54.917  1.00  0.00    -0.086 Cl
HETATM   17  C20 UNL     1      23.394  -0.272  53.940  1.00  0.00     0.202 A 
HETATM   18  C21 UNL     1      24.238   0.606  53.117  1.00  0.00     0.060 A 
HETATM   19  N3  UNL     1      23.154   0.410  52.442  1.00  0.00    -0.277 N 
HETATM   20  N4  UNL     1      22.702   0.797  51.197  1.00  0.00     0.000 N 
HETATM   21  H5  UNL     1      24.738   1.331  50.930  1.00  0.00     0.163 HD
HETATM   22  H19 UNL     1      23.161  -0.198  51.139  1.00  0.00     0.000 HD
ENDROOT
BRANCH   8  23
HETATM   23  C7  UNL     1      22.466   2.230  47.605  1.00  0.00     0.050 C 
BRANCH  23  24
HETATM   24  C8  UNL     1      21.494   3.256  47.195  1.00  0.00    -0.055 A 
HETATM   25  C9  UNL     1      21.905   3.647  45.911  1.00  0.00     0.026 A 
HETATM   26  C10 UNL     1      21.247   4.665  45.204  1.00  0.00     0.116 A 
HETATM   27  N2  UNL     1      20.209   5.253  45.808  1.00  0.00    -0.273 NA
HETATM   28  C11 UNL     1      19.832   4.856  47.039  1.00  0.00     0.116 A 
HETATM   29  C12 UNL     1      20.451   3.855  47.774  1.00  0.00     0.026 A 
ENDBRANCH  23  24
ENDBRANCH   8  23
TORSDOF 3
ENDMDL
MODEL 6
REMARK VINA RESULT:      -8.4      3.122      7.053
REMARK  3 active torsions:
REMARK  status: ('A' for Active; 'I' for Inactive)
REMARK    1  A    between atoms: C6_8  and  C7_9 
REMARK    2  A    between atoms: C7_9  and  C8_10 
REMARK    3  A    between atoms: C14_17  and  C15_18 
ROOT
HETATM    1  C1  UNL     1      22.497   7.570  50.111  1.00  0.00     0.039 C 
HETATM    2  C2  UNL     1      23.459   6.882  50.926  1.00  0.00     0.130 C 
HETATM    3  N1  UNL     1      23.130   5.547  51.480  1.00  0.00    -0.351 N 
HETATM    4  C3  UNL     1      23.218   4.701  52.587  1.00  0.00     0.228 C 
HETATM    5  O1  UNL     1      23.703   5.199  53.618  1.00  0.00    -0.273 OA
HETATM    6  C4  UNL     1      22.628   3.485  51.877  1.00  0.00     0.057 A 
HETATM    7  C5  UNL     1      21.360   3.247  52.310  1.00  0.00     0.021 A 
HETATM    8  C6  UNL     1      22.116   2.682  51.372  1.00  0.00    -0.004 A 
HETATM    9  C13 UNL     1      23.262   2.609  50.671  1.00  0.00     0.001 A 
HETATM   10  C14 UNL     1      24.269   2.312  49.842  1.00  0.00     0.014 A 
HETATM   11  C15 UNL     1      23.516   2.947  50.873  1.00  0.00    -0.005 A 
HETATM   12  C16 UNL     1      24.983   3.139  51.452  1.00  0.00     0.039 C 
HETATM   13  C17 UNL     1      26.059   2.790  50.563  1.00  0.00    -0.024 C 
HETATM   14  C18 UNL     1      26.708   3.639  49.667  1.00  0.00     0.018 C 
HETATM   15  C19 UNL     1      26.482   5.013  49.357  1.00  0.00     0.042 C 
HETATM   16 CL1  UNL     1      27.747   5.597  48.252  1.00  0.00    -0.086 Cl
HETATM   17  C20 UNL     1      25.940   6.199  49.345  1.00  0.00     0.202 A 
HETATM   18  C21 UNL     1      24.699   6.340  50.121  1.00  0.00     0.060 A 
HETATM   19  N3  UNL     1      24.802   5.085  49.829  1.00  0.00    -0.277 N 
HETATM   20  N4  UNL     1      24.022   3.970  50.051  1.00  0.00     0.000 N 
HETATM   21  H5  UNL     1      22.572   5.430  50.570  1.00  0.00     0.163 HD
HETATM   22  H19 UNL     1      23.803   4.393  49.062  1.00  0.00     0.000 HD
ENDROOT
BRANCH   8  23
HETATM   23  C7  UNL     1      21.116   1.594  51.015  1.00  0.00     0.050 C 
BRANCH  23  24
HETATM   24  C8  UNL     1      21.192   0.521  52.019  1.00  0.00    -0.055 A 
HETATM   25  C9  UNL     1      19.859   0.271  52.378  1.00  0.00     0.026 A 
HETATM   26  C10 UNL     1      19.525  -0.666  53.368  1.00  0.00     0.116 A 
HETATM   27  N2  UNL     1      20.534  -1.311  53.961  1.00  0.00    -0.273 NA
HETATM   28  C11 UNL     1      21.806  -1.056  53.595  1.00  0.00     0.116 A 
HETATM   29  C12 UNL     1      22.183  -0.142  52.621  1.00  0.00     0.026 A 
ENDBRANCH  23  24
ENDBRANCH   8  23
TORSDOF 3
ENDMDL
MODEL 7
REMARK VINA RESULT:      -8.2      3.326      5.982
REMARK  3 active torsions:
REMARK  status: ('A' for Active; 'I' for Inactive)
REMARK    1  A    between atoms: C6_8  and  C7_9 
REMARK    2  A    between atoms: C7_9  and  C8_10 
REMARK    3  A    between atoms: C14_17  and  C15_18 
ROOT
HETATM    1  C1  UNL     1      22.667   1.706  47.723  1.00  0.00     0.039 C 
HETATM    2  C2  UNL     1      21.991   2.519  48.695  1.00  0.00     0.130 C 
HETATM    3  N1  UNL     1      21.877   2.046  50.096  1.00  0.00    -0.351 N 
HETATM    4  C3  UNL     1      21.055   1.949  51.220  1.00  0.00     0.228 C 
HETATM    5  O1  UNL     1      19.882   2.335  51.074  1.00  0.00    -0.273 OA
HETATM    6  C4  UNL     1      22.138   1.377  52.131  1.00  0.00     0.057 A 
HETATM    7  C5  UNL     1      21.918   0.054  52.363  1.00  0.00     0.021 A 
HETATM    8  C6  UNL     1      22.899   0.882  52.713  1.00  0.00    -0.004 A 
HETATM    9  C13 UNL     1      23.475   2.098  52.693  1.00  0.00     0.001 A 
HETATM   10  C14 UNL     1      24.251   3.178  52.841  1.00  0.00     0.014 A 
HETATM   11  C15 UNL     1      23.161   2.346  52.449  1.00  0.00    -0.005 A 
HETATM   12  C16 UNL     1      22.408   3.741  52.561  1.00  0.00     0.039 C 
HETATM   13  C17 UNL     1      23.250   4.894  52.747  1.00  0.00    -0.024 C 
HETATM   14  C18 UNL     1      23.797   5.696  51.747  1.00  0.00     0.018 C 
HETATM   15  C19 UNL     1      23.722   5.592  50.326  1.00  0.00     0.042 C 
HETATM   16 CL1  UNL     1      24.483   7.014  49.577  1.00  0.00    -0.086 Cl
HETATM   17  C20 UNL     1      23.448   5.127  49.138  1.00  0.00     0.202 A 
HETATM   18  C21 UNL     1      22.791   3.813  49.105  1.00  0.00     0.060 A 
HETATM   19  N3  UNL     1      23.417   3.875  50.233  1.00  0.00    -0.277 N 
HETATM   20  N4  UNL     1      23.602   3.008  51.290  1.00  0.00     0.000 N 
HETATM   21  H5  UNL     1      22.833   1.597  49.905  1.00  0.00     0.163 HD
HETATM   22  H19 UNL     1      24.445   2.936  50.591  1.00  0.00     0.000 HD
ENDROOT
BRANCH   8  23
HETATM   23  C7  UNL     1      23.649  -0.130  53.563  1.00  0.00     0.050 C 
BRANCH  23  24
HETATM   24  C8  UNL     1      25.082  -0.067  53.238  1.00  0.00    -0.055 A 
HETATM   25  C9  UNL     1      25.725   0.079  54.476  1.00  0.00     0.026 A 
HETATM   26  C10 UNL     1      27.117   0.232  54.572  1.00  0.00     0.116 A 
HETATM   27  N2  UNL     1      27.808   0.237  53.428  1.00  0.00    -0.273 NA
HETATM   28  C11 UNL     1      27.168   0.090  52.252  1.00  0.00     0.116 A 
HETATM   29  C12 UNL     1      25.796  -0.066  52.109  1.00  0.00     0.026 A 
ENDBRANCH  23  24
ENDBRANCH   8  23
TORSDOF 3
ENDMDL
MODEL 8
REMARK VINA RESULT:      -8.1      3.473      7.020
REMARK  3 active torsions:
REMARK  status: ('A' for Active; 'I' for Inactive)
REMARK    1  A    between atoms: C6_8  and  C7_9 
REMARK    2  A    between atoms: C7_9  and  C8_10 
REMARK    3  A    between atoms: C14_17  and  C15_18 
ROOT
HETATM    1  C1  UNL     1      24.249   3.283  49.182  1.00  0.00     0.039 C 
HETATM    2  C2  UNL     1      23.869   3.299  50.567  1.00  0.00     0.130 C 
HETATM    3  N1  UNL     1      22.472   2.984  50.948  1.00  0.00    -0.351 N 
HETATM    4  C3  UNL     1      21.401   3.305  51.784  1.00  0.00     0.228 C 
HETATM    5  O1  UNL     1      21.556   4.301  52.512  1.00  0.00    -0.273 OA
HETATM    6  C4  UNL     1      20.521   2.143  51.332  1.00  0.00     0.057 A 
HETATM    7  C5  UNL     1      19.506   2.590  50.542  1.00  0.00     0.021 A 
HETATM    8  C6  UNL     1      19.893   1.373  50.915  1.00  0.00    -0.004 A 
HETATM    9  C13 UNL     1      20.735   0.556  51.574  1.00  0.00     0.001 A 
HETATM   10  C14 UNL     1      21.397  -0.467  52.126  1.00  0.00     0.014 A 
HETATM   11  C15 UNL     1      21.023   0.864  51.777  1.00  0.00    -0.005 A 
HETATM   12  C16 UNL     1      21.654   1.128  53.211  1.00  0.00     0.039 C 
HETATM   13  C17 UNL     1      22.341   0.013  53.809  1.00  0.00    -0.024 C 
HETATM   14  C18 UNL     1      23.695  -0.295  53.685  1.00  0.00     0.018 C 
HETATM   15  C19 UNL     1      24.730   0.345  52.939  1.00  0.00     0.042 C 
HETATM   16 CL1  UNL     1      26.297  -0.409  53.315  1.00  0.00    -0.086 Cl
HETATM   17  C20 UNL     1      25.333   1.164  52.123  1.00  0.00     0.202 A 
HETATM   18  C21 UNL     1      24.460   2.099  51.399  1.00  0.00     0.060 A 
HETATM   19  N3  UNL     1      23.718   1.094  51.730  1.00  0.00    -0.277 N 
HETATM   20  N4  UNL     1      22.400   0.748  51.515  1.00  0.00     0.000 N 
HETATM   21  H5  UNL     1      22.506   2.326  50.101  1.00  0.00     0.163 HD
HETATM   22  H19 UNL     1      23.040   0.287  50.752  1.00  0.00     0.000 HD
ENDROOT
BRANCH   8  23
HETATM   23  C7  UNL     1      18.741   0.642  50.244  1.00  0.00     0.050 C 
BRANCH  23  24
HETATM   24  C8  UNL     1      17.569   0.667  51.134  1.00  0.00    -0.055 A 
HETATM   25  C9  UNL     1      17.643  -0.533  51.858  1.00  0.00     0.026 A 
HETATM   26  C10 UNL     1      16.653  -0.899  52.782  1.00  0.00     0.116 A 
HETATM   27  N2  UNL     1      15.628  -0.056  52.942  1.00  0.00    -0.273 NA
HETATM   28  C11 UNL     1      15.583   1.093  52.239  1.00  0.00     0.116 A 
HETATM   29  C12 UNL     1      16.539   1.496  51.317  1.00  0.00     0.026 A 
ENDBRANCH  23  24
ENDBRANCH   8  23
TORSDOF 3
ENDMDL
MODEL 9
REMARK VINA RESULT:      -7.9      7.775     10.492
REMARK  3 active torsions:
REMARK  status: ('A' for Active; 'I' for Inactive)
REMARK    1  A    between atoms: C6_8  and  C7_9 
REMARK    2  A    between atoms: C7_9  and  C8_10 
REMARK    3  A    between atoms: C14_17  and  C15_18 
ROOT
HETATM    1  C1  UNL     1      30.634  12.005  49.282  1.00  0.00     0.039 C 
HETATM    2  C2  UNL     1      30.085  11.177  48.245  1.00  0.00     0.130 C 
HETATM    3  N1  UNL     1      30.932  10.140  47.610  1.00  0.00    -0.351 N 
HETATM    4  C3  UNL     1      31.283   9.505  46.417  1.00  0.00     0.228 C 
HETATM    5  O1  UNL     1      30.779   9.972  45.381  1.00  0.00    -0.273 OA
HETATM    6  C4  UNL     1      32.180   8.461  47.076  1.00  0.00     0.057 A 
HETATM    7  C5  UNL     1      33.491   8.737  46.839  1.00  0.00     0.021 A 
HETATM    8  C6  UNL     1      32.881   7.806  47.568  1.00  0.00    -0.004 A 
HETATM    9  C13 UNL     1      31.762   7.238  48.054  1.00  0.00     0.001 A 
HETATM   10  C14 UNL     1      30.837   6.488  48.663  1.00  0.00     0.014 A 
HETATM   11  C15 UNL     1      31.430   7.499  47.851  1.00  0.00    -0.005 A 
HETATM   12  C16 UNL     1      30.071   7.278  47.058  1.00  0.00     0.039 C 
HETATM   13  C17 UNL     1      29.092   6.447  47.710  1.00  0.00    -0.024 C 
HETATM   14  C18 UNL     1      28.083   6.870  48.572  1.00  0.00     0.018 C 
HETATM   15  C19 UNL     1      27.765   8.171  49.067  1.00  0.00     0.042 C 
HETATM   16 CL1  UNL     1      26.253   8.107  50.001  1.00  0.00    -0.086 Cl
HETATM   17  C20 UNL     1      27.842   9.451  49.301  1.00  0.00     0.202 A 
HETATM   18  C21 UNL     1      29.033  10.125  48.765  1.00  0.00     0.060 A 
HETATM   19  N3  UNL     1      29.351   8.879  48.894  1.00  0.00    -0.277 N 
HETATM   20  N4  UNL     1      30.499   8.144  48.684  1.00  0.00     0.000 N 
HETATM   21  H5  UNL     1      31.382  10.070  48.582  1.00  0.00     0.163 HD
HETATM   22  H19 UNL     1      30.433   8.448  49.737  1.00  0.00     0.000 HD
ENDROOT
BRANCH   8  23
HETATM   23  C7  UNL     1      34.153   7.074  47.964  1.00  0.00     0.050 C 
BRANCH  23  24
HETATM   24  C8  UNL     1      34.233   5.806  47.222  1.00  0.00    -0.055 A 
HETATM   25  C9  UNL     1      34.608   4.853  48.179  1.00  0.00     0.026 A 
HETATM   26  C10 UNL     1      34.842   3.512  47.834  1.00  0.00     0.116 A 
HETATM   27  N2  UNL     1      34.696   3.182  46.548  1.00  0.00    -0.273 NA
HETATM   28  C11 UNL     1      34.330   4.115  45.647  1.00  0.00     0.116 A 
HETATM   29  C12 UNL     1      34.087   5.449  45.943  1.00  0.00     0.026 A 
ENDBRANCH  23  24
ENDBRANCH   8  23
TORSDOF 3
ENDMDL
