MODEL 1
REMARK VINA RESULT:      -7.8      0.000      0.000
REMARK  3 active torsions:
REMARK  status: ('A' for Active; 'I' for Inactive)
REMARK    1  A    between atoms: O1_2  and  C2_3 
REMARK    2  A    between atoms: C7_8  and  O2_9 
REMARK    3  A    between atoms: C14_17  and  O4_18 
ROOT
HETATM    1  C2  UNL     1      19.600  -0.626  53.357  1.00  0.00     0.054 A 
HETATM    2  C3  UNL     1      19.848   0.428  52.588  1.00  0.00     0.065 A 
HETATM    3  C4  UNL     1      21.153   1.050  52.413  1.00  0.00     0.069 A 
HETATM    4  C5  UNL     1      22.329   0.750  52.994  1.00  0.00     0.099 A 
HETATM    5  C6  UNL     1      22.656  -0.258  53.948  1.00  0.00     0.071 A 
HETATM    6  C7  UNL     1      21.789  -1.139  54.399  1.00  0.00     0.052 A 
HETATM    7  C8  UNL     1      20.384  -1.499  54.229  1.00  0.00     0.128 A 
HETATM    8  O3  UNL     1      23.507   1.383  52.775  1.00  0.00    -0.337 OA
HETATM    9  C9  UNL     1      24.291   2.460  52.471  1.00  0.00     0.183 A 
HETATM   10  C10 UNL     1      25.685   2.043  52.033  1.00  0.00     0.008 A 
HETATM   11  C11 UNL     1      26.573   2.407  51.133  1.00  0.00     0.008 A 
HETATM   12  C12 UNL     1      26.109   3.514  50.316  1.00  0.00    -0.031 A 
HETATM   13  C13 UNL     1      26.957   4.072  49.259  1.00  0.00     0.050 C 
HETATM   14  C14 UNL     1      24.906   3.908  50.641  1.00  0.00     0.079 A 
HETATM   15  C16 UNL     1      23.800   3.552  51.632  1.00  0.00     0.199 A 
HETATM   16  N1  UNL     1      22.665   3.373  50.797  1.00  0.00    -0.270 NA
HETATM   17  C17 UNL     1      21.537   2.855  50.653  1.00  0.00     0.202 C 
HETATM   18  N2  UNL     1      20.676   2.011  51.443  1.00  0.00    -0.349 N 
HETATM   19  H20 UNL     1      19.654   2.094  51.309  1.00  0.00     0.167 HD
ENDROOT
BRANCH   1  20
HETATM   20  O1  UNL     1      18.257  -0.971  53.307  1.00  0.00    -0.360 OA
HETATM   21  C1  UNL     1      17.905  -2.306  53.598  1.00  0.00     0.209 C 
ENDBRANCH   1  20
BRANCH   6  22
HETATM   22  O2  UNL     1      22.474  -1.952  55.311  1.00  0.00    -0.365 OA
HETATM   23  H6  UNL     1      21.906  -2.559  55.889  1.00  0.00     0.217 HD
ENDBRANCH   6  22
BRANCH  14  24
HETATM   24  O4  UNL     1      24.512   4.982  49.824  1.00  0.00    -0.357 OA
HETATM   25  C15 UNL     1      24.432   6.298  50.334  1.00  0.00     0.209 C 
ENDBRANCH  14  24
TORSDOF 3
ENDMDL
MODEL 2
REMARK VINA RESULT:      -7.6      3.293      5.571
REMARK  3 active torsions:
REMARK  status: ('A' for Active; 'I' for Inactive)
REMARK    1  A    between atoms: O1_2  and  C2_3 
REMARK    2  A    between atoms: C7_8  and  O2_9 
REMARK    3  A    between atoms: C14_17  and  O4_18 
ROOT
HETATM    1  C2  UNL     1      22.000   3.451  48.259  1.00  0.00     0.054 A 
HETATM    2  C3  UNL     1      23.255   3.624  48.659  1.00  0.00     0.065 A 
HETATM    3  C4  UNL     1      23.907   2.873  49.722  1.00  0.00     0.069 A 
HETATM    4  C5  UNL     1      23.406   1.921  50.531  1.00  0.00     0.099 A 
HETATM    5  C6  UNL     1      22.095   1.362  50.595  1.00  0.00     0.071 A 
HETATM    6  C7  UNL     1      21.124   1.695  49.773  1.00  0.00     0.052 A 
HETATM    7  C8  UNL     1      20.888   2.579  48.634  1.00  0.00     0.128 A 
HETATM    8  O3  UNL     1      24.084   1.266  51.503  1.00  0.00    -0.337 OA
HETATM    9  C9  UNL     1      25.038   1.144  52.475  1.00  0.00     0.183 A 
HETATM   10  C10 UNL     1      25.325  -0.309  52.810  1.00  0.00     0.008 A 
HETATM   11  C11 UNL     1      26.371  -1.056  53.092  1.00  0.00     0.008 A 
HETATM   12  C12 UNL     1      27.609  -0.299  53.080  1.00  0.00    -0.031 A 
HETATM   13  C13 UNL     1      28.889  -0.949  53.376  1.00  0.00     0.050 C 
HETATM   14  C14 UNL     1      27.424   0.961  52.783  1.00  0.00     0.079 A 
HETATM   15  C16 UNL     1      26.282   1.910  52.426  1.00  0.00     0.199 A 
HETATM   16  N1  UNL     1      26.725   2.503  51.213  1.00  0.00    -0.270 NA
HETATM   17  C17 UNL     1      26.412   3.086  50.152  1.00  0.00     0.202 C 
HETATM   18  N2  UNL     1      25.186   3.522  49.533  1.00  0.00    -0.349 N 
HETATM   19  H20 UNL     1      25.220   4.348  48.913  1.00  0.00     0.167 HD
ENDROOT
BRANCH   1  20
HETATM   20  O1  UNL     1      21.684   4.324  47.229  1.00  0.00    -0.360 OA
HETATM   21  C1  UNL     1      21.826   3.863  45.903  1.00  0.00     0.209 C 
ENDBRANCH   1  20
BRANCH   6  22
HETATM   22  O2  UNL     1      20.001   0.945  50.146  1.00  0.00    -0.365 OA
HETATM   23  H6  UNL     1      20.171  -0.013  50.429  1.00  0.00     0.217 HD
ENDBRANCH   6  22
BRANCH  14  24
HETATM   24  O4  UNL     1      28.653   1.645  52.792  1.00  0.00    -0.357 OA
HETATM   25  C15 UNL     1      29.010   2.491  53.867  1.00  0.00     0.209 C 
ENDBRANCH  14  24
TORSDOF 3
ENDMDL
MODEL 3
REMARK VINA RESULT:      -7.5      2.562      6.917
REMARK  3 active torsions:
REMARK  status: ('A' for Active; 'I' for Inactive)
REMARK    1  A    between atoms: O1_2  and  C2_3 
REMARK    2  A    between atoms: C7_8  and  O2_9 
REMARK    3  A    between atoms: C14_17  and  O4_18 
ROOT
HETATM    1  C2  UNL     1      26.408  -0.129  53.758  1.00  0.00     0.054 A 
HETATM    2  C3  UNL     1      25.221  -0.533  54.196  1.00  0.00     0.065 A 
HETATM    3  C4  UNL     1      23.939  -0.145  53.625  1.00  0.00     0.069 A 
HETATM    4  C5  UNL     1      23.674   0.703  52.614  1.00  0.00     0.099 A 
HETATM    5  C6  UNL     1      24.557   1.473  51.800  1.00  0.00     0.071 A 
HETATM    6  C7  UNL     1      25.867   1.423  51.903  1.00  0.00     0.052 A 
HETATM    7  C8  UNL     1      26.894   0.740  52.687  1.00  0.00     0.128 A 
HETATM    8  O3  UNL     1      22.444   1.013  52.139  1.00  0.00    -0.337 OA
HETATM    9  C9  UNL     1      21.096   1.214  52.242  1.00  0.00     0.183 A 
HETATM   10  C10 UNL     1      20.408   1.166  50.889  1.00  0.00     0.008 A 
HETATM   11  C11 UNL     1      19.289   0.697  50.381  1.00  0.00     0.008 A 
HETATM   12  C12 UNL     1      18.468   0.032  51.375  1.00  0.00    -0.031 A 
HETATM   13  C13 UNL     1      17.174  -0.553  51.010  1.00  0.00     0.050 C 
HETATM   14  C14 UNL     1      19.017   0.032  52.562  1.00  0.00     0.079 A 
HETATM   15  C16 UNL     1      20.294   0.517  53.246  1.00  0.00     0.199 A 
HETATM   16  N1  UNL     1      20.782  -0.655  53.882  1.00  0.00    -0.270 NA
HETATM   17  C17 UNL     1      21.767  -1.260  54.359  1.00  0.00     0.202 C 
HETATM   18  N2  UNL     1      23.173  -0.986  54.517  1.00  0.00    -0.349 N 
HETATM   19  H20 UNL     1      23.668  -1.419  55.315  1.00  0.00     0.167 HD
ENDROOT
BRANCH   1  20
HETATM   20  O1  UNL     1      27.430  -0.678  54.519  1.00  0.00    -0.360 OA
HETATM   21  C1  UNL     1      28.606   0.082  54.694  1.00  0.00     0.209 C 
ENDBRANCH   1  20
BRANCH   6  22
HETATM   22  O2  UNL     1      26.384   2.310  50.949  1.00  0.00    -0.365 OA
HETATM   23  H6  UNL     1      27.280   2.066  50.544  1.00  0.00     0.217 HD
ENDBRANCH   6  22
BRANCH  14  24
HETATM   24  O4  UNL     1      18.177  -0.618  53.483  1.00  0.00    -0.357 OA
HETATM   25  C15 UNL     1      18.064  -2.028  53.500  1.00  0.00     0.209 C 
ENDBRANCH  14  24
TORSDOF 3
ENDMDL
MODEL 4
REMARK VINA RESULT:      -7.5      2.277      3.496
REMARK  3 active torsions:
REMARK  status: ('A' for Active; 'I' for Inactive)
REMARK    1  A    between atoms: O1_2  and  C2_3 
REMARK    2  A    between atoms: C7_8  and  O2_9 
REMARK    3  A    between atoms: C14_17  and  O4_18 
ROOT
HETATM    1  C2  UNL     1      17.369   0.063  50.616  1.00  0.00     0.054 A 
HETATM    2  C3  UNL     1      18.492   0.616  50.173  1.00  0.00     0.065 A 
HETATM    3  C4  UNL     1      19.758   0.636  50.893  1.00  0.00     0.069 A 
HETATM    4  C5  UNL     1      20.052   0.172  52.122  1.00  0.00     0.099 A 
HETATM    5  C6  UNL     1      19.224  -0.475  53.086  1.00  0.00     0.071 A 
HETATM    6  C7  UNL     1      17.961  -0.775  52.873  1.00  0.00     0.052 A 
HETATM    7  C8  UNL     1      16.955  -0.656  51.820  1.00  0.00     0.128 A 
HETATM    8  O3  UNL     1      21.264   0.231  52.724  1.00  0.00    -0.337 OA
HETATM    9  C9  UNL     1      22.487   0.782  52.984  1.00  0.00     0.183 A 
HETATM   10  C10 UNL     1      23.443  -0.223  53.605  1.00  0.00     0.008 A 
HETATM   11  C11 UNL     1      24.717  -0.538  53.517  1.00  0.00     0.008 A 
HETATM   12  C12 UNL     1      25.426   0.291  52.560  1.00  0.00    -0.031 A 
HETATM   13  C13 UNL     1      26.860   0.101  52.322  1.00  0.00     0.050 C 
HETATM   14  C14 UNL     1      24.648   1.169  51.983  1.00  0.00     0.079 A 
HETATM   15  C16 UNL     1      23.183   1.600  51.993  1.00  0.00     0.199 A 
HETATM   16  N1  UNL     1      22.823   1.544  50.620  1.00  0.00    -0.270 NA
HETATM   17  C17 UNL     1      21.906   1.438  49.777  1.00  0.00     0.202 C 
HETATM   18  N2  UNL     1      20.473   1.289  49.819  1.00  0.00    -0.349 N 
HETATM   19  H20 UNL     1      19.920   1.670  49.033  1.00  0.00     0.167 HD
ENDROOT
BRANCH   1  20
HETATM   20  O1  UNL     1      16.344   0.216  49.694  1.00  0.00    -0.360 OA
HETATM   21  C1  UNL     1      15.915  -0.927  48.986  1.00  0.00     0.209 C 
ENDBRANCH   1  20
BRANCH   6  22
HETATM   22  O2  UNL     1      17.488  -1.393  54.038  1.00  0.00    -0.365 OA
HETATM   23  H6  UNL     1      17.551  -2.403  54.070  1.00  0.00     0.217 HD
ENDBRANCH   6  22
BRANCH  14  24
HETATM   24  O4  UNL     1      25.389   1.945  51.074  1.00  0.00    -0.357 OA
HETATM   25  C15 UNL     1      25.522   3.342  51.245  1.00  0.00     0.209 C 
ENDBRANCH  14  24
TORSDOF 3
ENDMDL
MODEL 5
REMARK VINA RESULT:      -7.3      3.063      5.705
REMARK  3 active torsions:
REMARK  status: ('A' for Active; 'I' for Inactive)
REMARK    1  A    between atoms: O1_2  and  C2_3 
REMARK    2  A    between atoms: C7_8  and  O2_9 
REMARK    3  A    between atoms: C14_17  and  O4_18 
ROOT
HETATM    1  C2  UNL     1      28.000   0.848  53.546  1.00  0.00     0.054 A 
HETATM    2  C3  UNL     1      27.654   1.708  52.595  1.00  0.00     0.065 A 
HETATM    3  C4  UNL     1      26.289   1.974  52.161  1.00  0.00     0.069 A 
HETATM    4  C5  UNL     1      25.137   1.406  52.562  1.00  0.00     0.099 A 
HETATM    5  C6  UNL     1      24.900   0.381  53.526  1.00  0.00     0.071 A 
HETATM    6  C7  UNL     1      25.852  -0.166  54.251  1.00  0.00     0.052 A 
HETATM    7  C8  UNL     1      27.297  -0.069  54.441  1.00  0.00     0.128 A 
HETATM    8  O3  UNL     1      23.899   1.711  52.104  1.00  0.00    -0.337 OA
HETATM    9  C9  UNL     1      22.999   2.126  51.163  1.00  0.00     0.183 A 
HETATM   10  C10 UNL     1      21.687   2.570  51.787  1.00  0.00     0.008 A 
HETATM   11  C11 UNL     1      20.798   3.523  51.611  1.00  0.00     0.008 A 
HETATM   12  C12 UNL     1      21.152   4.414  50.522  1.00  0.00    -0.031 A 
HETATM   13  C13 UNL     1      20.285   5.539  50.161  1.00  0.00     0.050 C 
HETATM   14  C14 UNL     1      22.283   4.087  49.953  1.00  0.00     0.079 A 
HETATM   15  C16 UNL     1      23.384   3.037  50.086  1.00  0.00     0.199 A 
HETATM   16  N1  UNL     1      24.565   3.821  50.183  1.00  0.00    -0.270 NA
HETATM   17  C17 UNL     1      25.754   3.887  50.563  1.00  0.00     0.202 C 
HETATM   18  N2  UNL     1      26.681   3.004  51.225  1.00  0.00    -0.349 N 
HETATM   19  H20 UNL     1      27.689   3.114  51.023  1.00  0.00     0.167 HD
ENDROOT
BRANCH   1  20
HETATM   20  O1  UNL     1      29.376   0.829  53.719  1.00  0.00    -0.360 OA
HETATM   21  C1  UNL     1      30.048  -0.399  53.544  1.00  0.00     0.209 C 
ENDBRANCH   1  20
BRANCH   6  22
HETATM   22  O2  UNL     1      25.238  -1.121  55.071  1.00  0.00    -0.365 OA
HETATM   23  H6  UNL     1      25.407  -1.038  56.066  1.00  0.00     0.217 HD
ENDBRANCH   6  22
BRANCH  14  24
HETATM   24  O4  UNL     1      22.572   4.978  48.904  1.00  0.00    -0.357 OA
HETATM   25  C15 UNL     1      22.454   4.580  47.553  1.00  0.00     0.209 C 
ENDBRANCH  14  24
TORSDOF 3
ENDMDL
MODEL 6
REMARK VINA RESULT:      -7.3      1.772      7.044
REMARK  3 active torsions:
REMARK  status: ('A' for Active; 'I' for Inactive)
REMARK    1  A    between atoms: O1_2  and  C2_3 
REMARK    2  A    between atoms: C7_8  and  O2_9 
REMARK    3  A    between atoms: C14_17  and  O4_18 
ROOT
HETATM    1  C2  UNL     1      24.663   6.663  49.618  1.00  0.00     0.054 A 
HETATM    2  C3  UNL     1      23.581   6.131  50.175  1.00  0.00     0.065 A 
HETATM    3  C4  UNL     1      23.478   4.767  50.674  1.00  0.00     0.069 A 
HETATM    4  C5  UNL     1      24.384   3.773  50.642  1.00  0.00     0.099 A 
HETATM    5  C6  UNL     1      25.710   3.749  50.115  1.00  0.00     0.071 A 
HETATM    6  C7  UNL     1      26.297   4.799  49.583  1.00  0.00     0.052 A 
HETATM    7  C8  UNL     1      26.015   6.205  49.303  1.00  0.00     0.128 A 
HETATM    8  O3  UNL     1      24.209   2.521  51.131  1.00  0.00    -0.337 OA
HETATM    9  C9  UNL     1      23.475   1.416  51.457  1.00  0.00     0.183 A 
HETATM   10  C10 UNL     1      24.200   0.525  52.452  1.00  0.00     0.008 A 
HETATM   11  C11 UNL     1      23.902  -0.196  53.511  1.00  0.00     0.008 A 
HETATM   12  C12 UNL     1      22.490  -0.134  53.842  1.00  0.00    -0.031 A 
HETATM   13  C13 UNL     1      21.955  -0.877  54.987  1.00  0.00     0.050 C 
HETATM   14  C14 UNL     1      21.816   0.631  53.023  1.00  0.00     0.079 A 
HETATM   15  C16 UNL     1      22.057   1.513  51.801  1.00  0.00     0.199 A 
HETATM   16  N1  UNL     1      21.484   2.755  52.183  1.00  0.00    -0.270 NA
HETATM   17  C17 UNL     1      21.452   3.994  52.016  1.00  0.00     0.202 C 
HETATM   18  N2  UNL     1      22.131   4.943  51.170  1.00  0.00    -0.349 N 
HETATM   19  H20 UNL     1      21.627   5.805  50.901  1.00  0.00     0.167 HD
ENDROOT
BRANCH   1  20
HETATM   20  O1  UNL     1      24.434   7.980  49.250  1.00  0.00    -0.360 OA
HETATM   21  C1  UNL     1      23.166   8.534  49.527  1.00  0.00     0.209 C 
ENDBRANCH   1  20
BRANCH   6  22
HETATM   22  O2  UNL     1      27.576   4.390  49.183  1.00  0.00    -0.365 OA
HETATM   23  H6  UNL     1      27.945   4.819  48.343  1.00  0.00     0.217 HD
ENDBRANCH   6  22
BRANCH  14  24
HETATM   24  O4  UNL     1      20.458   0.648  53.387  1.00  0.00    -0.357 OA
HETATM   25  C15 UNL     1      19.480   0.005  52.593  1.00  0.00     0.209 C 
ENDBRANCH  14  24
TORSDOF 3
ENDMDL
MODEL 7
REMARK VINA RESULT:      -7.3      2.122      7.331
REMARK  3 active torsions:
REMARK  status: ('A' for Active; 'I' for Inactive)
REMARK    1  A    between atoms: O1_2  and  C2_3 
REMARK    2  A    between atoms: C7_8  and  O2_9 
REMARK    3  A    between atoms: C14_17  and  O4_18 
ROOT
HETATM    1  C2  UNL     1      25.385   6.675  49.296  1.00  0.00     0.054 A 
HETATM    2  C3  UNL     1      24.499   6.036  50.052  1.00  0.00     0.065 A 
HETATM    3  C4  UNL     1      24.653   4.679  50.558  1.00  0.00     0.069 A 
HETATM    4  C5  UNL     1      25.644   3.794  50.348  1.00  0.00     0.099 A 
HETATM    5  C6  UNL     1      26.836   3.910  49.573  1.00  0.00     0.071 A 
HETATM    6  C7  UNL     1      27.185   5.008  48.939  1.00  0.00     0.052 A 
HETATM    7  C8  UNL     1      26.694   6.368  48.723  1.00  0.00     0.128 A 
HETATM    8  O3  UNL     1      25.712   2.541  50.859  1.00  0.00    -0.337 OA
HETATM    9  C9  UNL     1      25.187   1.366  51.320  1.00  0.00     0.183 A 
HETATM   10  C10 UNL     1      26.188   0.584  52.153  1.00  0.00     0.008 A 
HETATM   11  C11 UNL     1      26.186  -0.144  53.248  1.00  0.00     0.008 A 
HETATM   12  C12 UNL     1      24.868  -0.237  53.848  1.00  0.00    -0.031 A 
HETATM   13  C13 UNL     1      24.653  -1.012  55.073  1.00  0.00     0.050 C 
HETATM   14  C14 UNL     1      23.964   0.430  53.178  1.00  0.00     0.079 A 
HETATM   15  C16 UNL     1      23.861   1.309  51.933  1.00  0.00     0.199 A 
HETATM   16  N1  UNL     1      23.234   2.486  52.422  1.00  0.00    -0.270 NA
HETATM   17  C17 UNL     1      23.027   3.709  52.267  1.00  0.00     0.202 C 
HETATM   18  N2  UNL     1      23.416   4.712  51.307  1.00  0.00    -0.349 N 
HETATM   19  H20 UNL     1      22.774   5.505  51.143  1.00  0.00     0.167 HD
ENDROOT
BRANCH   1  20
HETATM   20  O1  UNL     1      24.939   7.950  48.981  1.00  0.00    -0.360 OA
HETATM   21  C1  UNL     1      24.635   8.231  47.632  1.00  0.00     0.209 C 
ENDBRANCH   1  20
BRANCH   6  22
HETATM   22  O2  UNL     1      28.400   4.738  48.297  1.00  0.00    -0.365 OA
HETATM   23  H6  UNL     1      28.852   5.520  47.838  1.00  0.00     0.217 HD
ENDBRANCH   6  22
BRANCH  14  24
HETATM   24  O4  UNL     1      22.710   0.301  53.799  1.00  0.00    -0.357 OA
HETATM   25  C15 UNL     1      21.669  -0.443  53.197  1.00  0.00     0.209 C 
ENDBRANCH  14  24
TORSDOF 3
ENDMDL
MODEL 8
REMARK VINA RESULT:      -7.2      2.418      7.684
REMARK  3 active torsions:
REMARK  status: ('A' for Active; 'I' for Inactive)
REMARK    1  A    between atoms: O1_2  and  C2_3 
REMARK    2  A    between atoms: C7_8  and  O2_9 
REMARK    3  A    between atoms: C14_17  and  O4_18 
ROOT
HETATM    1  C2  UNL     1      26.621   5.165  48.940  1.00  0.00     0.054 A 
HETATM    2  C3  UNL     1      26.830   4.057  49.643  1.00  0.00     0.065 A 
HETATM    3  C4  UNL     1      25.857   3.426  50.523  1.00  0.00     0.069 A 
HETATM    4  C5  UNL     1      24.613   3.823  50.848  1.00  0.00     0.099 A 
HETATM    5  C6  UNL     1      23.873   4.970  50.436  1.00  0.00     0.071 A 
HETATM    6  C7  UNL     1      24.325   5.852  49.571  1.00  0.00     0.052 A 
HETATM    7  C8  UNL     1      25.512   6.099  48.756  1.00  0.00     0.128 A 
HETATM    8  O3  UNL     1      23.764   3.174  51.682  1.00  0.00    -0.337 OA
HETATM    9  C9  UNL     1      23.450   2.378  52.748  1.00  0.00     0.183 A 
HETATM   10  C10 UNL     1      22.036   1.831  52.651  1.00  0.00     0.008 A 
HETATM   11  C11 UNL     1      21.409   0.702  52.901  1.00  0.00     0.008 A 
HETATM   12  C12 UNL     1      22.302  -0.324  53.409  1.00  0.00    -0.031 A 
HETATM   13  C13 UNL     1      21.794  -1.655  53.756  1.00  0.00     0.050 C 
HETATM   14  C14 UNL     1      23.539   0.088  53.503  1.00  0.00     0.079 A 
HETATM   15  C16 UNL     1      24.364   1.343  53.226  1.00  0.00     0.199 A 
HETATM   16  N1  UNL     1      25.415   0.861  52.400  1.00  0.00    -0.270 NA
HETATM   17  C17 UNL     1      26.285   1.128  51.543  1.00  0.00     0.202 C 
HETATM   18  N2  UNL     1      26.720   2.310  50.842  1.00  0.00    -0.349 N 
HETATM   19  H20 UNL     1      27.709   2.365  50.546  1.00  0.00     0.167 HD
ENDROOT
BRANCH   1  20
HETATM   20  O1  UNL     1      27.747   5.504  48.205  1.00  0.00    -0.360 OA
HETATM   21  C1  UNL     1      28.046   6.874  48.047  1.00  0.00     0.209 C 
ENDBRANCH   1  20
BRANCH   6  22
HETATM   22  O2  UNL     1      23.327   6.824  49.424  1.00  0.00    -0.365 OA
HETATM   23  H6  UNL     1      23.558   7.760  49.734  1.00  0.00     0.217 HD
ENDBRANCH   6  22
BRANCH  14  24
HETATM   24  O4  UNL     1      24.354  -0.942  54.004  1.00  0.00    -0.357 OA
HETATM   25  C15 UNL     1      24.814  -0.924  55.341  1.00  0.00     0.209 C 
ENDBRANCH  14  24
TORSDOF 3
ENDMDL
MODEL 9
REMARK VINA RESULT:      -7.1      3.206      5.923
REMARK  3 active torsions:
REMARK  status: ('A' for Active; 'I' for Inactive)
REMARK    1  A    between atoms: O1_2  and  C2_3 
REMARK    2  A    between atoms: C7_8  and  O2_9 
REMARK    3  A    between atoms: C14_17  and  O4_18 
ROOT
HETATM    1  C2  UNL     1      22.240   5.534  50.269  1.00  0.00     0.054 A 
HETATM    2  C3  UNL     1      23.511   5.159  50.352  1.00  0.00     0.065 A 
HETATM    3  C4  UNL     1      24.004   4.030  51.130  1.00  0.00     0.069 A 
HETATM    4  C5  UNL     1      23.332   3.188  51.936  1.00  0.00     0.099 A 
HETATM    5  C6  UNL     1      21.947   3.141  52.274  1.00  0.00     0.071 A 
HETATM    6  C7  UNL     1      21.049   3.957  51.765  1.00  0.00     0.052 A 
HETATM    7  C8  UNL     1      20.969   5.069  50.822  1.00  0.00     0.128 A 
HETATM    8  O3  UNL     1      23.869   2.155  52.630  1.00  0.00    -0.337 OA
HETATM    9  C9  UNL     1      24.864   1.509  53.308  1.00  0.00     0.183 A 
HETATM   10  C10 UNL     1      24.608   0.015  53.406  1.00  0.00     0.008 A 
HETATM   11  C11 UNL     1      25.303  -1.100  53.333  1.00  0.00     0.008 A 
HETATM   12  C12 UNL     1      26.712  -0.856  53.084  1.00  0.00    -0.031 A 
HETATM   13  C13 UNL     1      27.658  -1.971  52.976  1.00  0.00     0.050 C 
HETATM   14  C14 UNL     1      26.990   0.417  52.978  1.00  0.00     0.079 A 
HETATM   15  C16 UNL     1      26.275   1.765  53.023  1.00  0.00     0.199 A 
HETATM   16  N1  UNL     1      26.672   2.381  51.806  1.00  0.00    -0.270 NA
HETATM   17  C17 UNL     1      26.417   3.232  50.927  1.00  0.00     0.202 C 
HETATM   18  N2  UNL     1      25.371   4.195  50.689  1.00  0.00    -0.349 N 
HETATM   19  H20 UNL     1      25.610   5.056  50.170  1.00  0.00     0.167 HD
ENDROOT
BRANCH   1  20
HETATM   20  O1  UNL     1      22.104   6.645  49.450  1.00  0.00    -0.360 OA
HETATM   21  C1  UNL     1      21.813   7.884  50.059  1.00  0.00     0.209 C 
ENDBRANCH   1  20
BRANCH   6  22
HETATM   22  O2  UNL     1      19.817   3.608  52.332  1.00  0.00    -0.365 OA
HETATM   23  H6  UNL     1      19.110   4.332  52.357  1.00  0.00     0.217 HD
ENDBRANCH   6  22
BRANCH  14  24
HETATM   24  O4  UNL     1      28.365   0.592  52.744  1.00  0.00    -0.357 OA
HETATM   25  C15 UNL     1      29.241   0.975  53.786  1.00  0.00     0.209 C 
ENDBRANCH  14  24
TORSDOF 3
ENDMDL
