MODEL 1
REMARK VINA RESULT:      -7.7      0.000      0.000
REMARK  2 active torsions:
REMARK  status: ('A' for Active; 'I' for Inactive)
REMARK    1  A    between atoms: O1_2  and  C2_3 
REMARK    2  A    between atoms: C9_11  and  N2_12 
ROOT
HETATM    1  C2  UNL     1      23.592   0.196  53.505  1.00  0.00     0.148 A 
HETATM    2  C3  UNL     1      24.420  -0.733  54.089  1.00  0.00     0.058 A 
HETATM    3  C4  UNL     1      25.658  -0.396  53.650  1.00  0.00     0.030 A 
HETATM    4  C5  UNL     1      25.617   0.704  52.821  1.00  0.00     0.022 A 
HETATM    5  N1  UNL     1      24.326   1.059  52.742  1.00  0.00    -0.299 N 
HETATM    6  C6  UNL     1      23.516   2.073  52.100  1.00  0.00     0.024 C 
HETATM    7  C7  UNL     1      22.683   1.626  51.134  1.00  0.00     0.006 C 
HETATM    8  C8  UNL     1      22.070   2.216  49.897  1.00  0.00     0.092 C 
HETATM    9  C9  UNL     1      22.837   3.464  49.517  1.00  0.00     0.034 C 
HETATM   10  S1  UNL     1      23.758   4.210  50.650  1.00  0.00    -0.168 SA
HETATM   11  C10 UNL     1      23.404   3.565  52.316  1.00  0.00     0.127 C 
HETATM   12  C11 UNL     1      25.304   4.959  50.081  1.00  0.00     0.078 C 
HETATM   13  C12 UNL     1      26.184   4.092  49.255  1.00  0.00     0.012 C 
HETATM   14  C13 UNL     1      27.365   4.905  48.785  1.00  0.00     0.015 C 
HETATM   15  C14 UNL     1      26.640   2.862  49.977  1.00  0.00    -0.025 C 
HETATM   16  C15 UNL     1      26.593   2.263  51.153  1.00  0.00    -0.024 C 
HETATM   17  C16 UNL     1      26.795   1.286  52.212  1.00  0.00     0.084 C 
ENDROOT
BRANCH   9  18
HETATM   18  N2  UNL     1      22.735   3.949  48.185  1.00  0.00    -0.397 N 
HETATM   19  H9  UNL     1      21.970   4.433  47.689  1.00  0.00     0.156 HD
HETATM   20  H10 UNL     1      23.555   3.820  47.545  1.00  0.00     0.156 HD
ENDBRANCH   9  18
BRANCH   1  21
HETATM   21  O1  UNL     1      22.209   0.119  53.769  1.00  0.00    -0.340 OA
HETATM   22  C1  UNL     1      21.654  -0.801  54.649  1.00  0.00     0.211 C 
ENDBRANCH   1  21
TORSDOF 2
ENDMDL
MODEL 2
REMARK VINA RESULT:      -7.5      2.431      4.469
REMARK  2 active torsions:
REMARK  status: ('A' for Active; 'I' for Inactive)
REMARK    1  A    between atoms: O1_2  and  C2_3 
REMARK    2  A    between atoms: C9_11  and  N2_12 
ROOT
HETATM    1  C2  UNL     1      26.260   1.356  54.009  1.00  0.00     0.148 A 
HETATM    2  C3  UNL     1      26.573   0.282  54.807  1.00  0.00     0.058 A 
HETATM    3  C4  UNL     1      25.533  -0.572  54.637  1.00  0.00     0.030 A 
HETATM    4  C5  UNL     1      24.597  -0.059  53.765  1.00  0.00     0.022 A 
HETATM    5  N1  UNL     1      25.064   1.140  53.384  1.00  0.00    -0.299 N 
HETATM    6  C6  UNL     1      24.674   2.233  52.518  1.00  0.00     0.024 C 
HETATM    7  C7  UNL     1      24.353   3.385  53.146  1.00  0.00     0.006 C 
HETATM    8  C8  UNL     1      23.460   4.553  52.842  1.00  0.00     0.092 C 
HETATM    9  C9  UNL     1      22.486   4.156  51.754  1.00  0.00     0.034 C 
HETATM   10  S1  UNL     1      22.839   2.870  50.800  1.00  0.00    -0.168 SA
HETATM   11  C10 UNL     1      24.569   2.345  51.015  1.00  0.00     0.127 C 
HETATM   12  C11 UNL     1      21.447   1.840  50.274  1.00  0.00     0.078 C 
HETATM   13  C12 UNL     1      20.525   1.390  51.348  1.00  0.00     0.012 C 
HETATM   14  C13 UNL     1      19.377   0.638  50.721  1.00  0.00     0.015 C 
HETATM   15  C14 UNL     1      21.202   0.553  52.389  1.00  0.00    -0.025 C 
HETATM   16  C15 UNL     1      22.359  -0.008  52.690  1.00  0.00    -0.024 C 
HETATM   17  C16 UNL     1      23.386  -0.760  53.394  1.00  0.00     0.084 C 
ENDROOT
BRANCH   9  18
HETATM   18  N2  UNL     1      21.294   4.912  51.596  1.00  0.00    -0.397 N 
HETATM   19  H9  UNL     1      20.805   5.253  50.753  1.00  0.00     0.156 HD
HETATM   20  H10 UNL     1      20.773   5.204  52.457  1.00  0.00     0.156 HD
ENDBRANCH   9  18
BRANCH   1  21
HETATM   21  O1  UNL     1      27.160   2.441  53.963  1.00  0.00    -0.340 OA
HETATM   22  C1  UNL     1      28.502   2.299  53.634  1.00  0.00     0.211 C 
ENDBRANCH   1  21
TORSDOF 2
ENDMDL
MODEL 3
REMARK VINA RESULT:      -7.0      2.599      5.333
REMARK  2 active torsions:
REMARK  status: ('A' for Active; 'I' for Inactive)
REMARK    1  A    between atoms: O1_2  and  C2_3 
REMARK    2  A    between atoms: C9_11  and  N2_12 
ROOT
HETATM    1  C2  UNL     1      25.032   1.488  52.695  1.00  0.00     0.148 A 
HETATM    2  C3  UNL     1      25.818   0.726  53.526  1.00  0.00     0.058 A 
HETATM    3  C4  UNL     1      24.992  -0.262  53.951  1.00  0.00     0.030 A 
HETATM    4  C5  UNL     1      23.731  -0.132  53.410  1.00  0.00     0.022 A 
HETATM    5  N1  UNL     1      23.774   0.961  52.632  1.00  0.00    -0.299 N 
HETATM    6  C6  UNL     1      22.889   1.712  51.766  1.00  0.00     0.024 C 
HETATM    7  C7  UNL     1      22.557   2.946  52.205  1.00  0.00     0.006 C 
HETATM    8  C8  UNL     1      21.384   3.864  52.018  1.00  0.00     0.092 C 
HETATM    9  C9  UNL     1      20.212   3.063  51.494  1.00  0.00     0.034 C 
HETATM   10  S1  UNL     1      20.493   1.615  50.778  1.00  0.00    -0.168 SA
HETATM   11  C10 UNL     1      22.266   1.386  50.429  1.00  0.00     0.127 C 
HETATM   12  C11 UNL     1      19.264   0.317  51.054  1.00  0.00     0.078 C 
HETATM   13  C12 UNL     1      18.874   0.076  52.467  1.00  0.00     0.012 C 
HETATM   14  C13 UNL     1      17.774  -0.957  52.500  1.00  0.00     0.015 C 
HETATM   15  C14 UNL     1      20.024  -0.348  53.328  1.00  0.00    -0.025 C 
HETATM   16  C15 UNL     1      21.308  -0.657  53.280  1.00  0.00    -0.024 C 
HETATM   17  C16 UNL     1      22.648  -1.051  53.687  1.00  0.00     0.084 C 
ENDROOT
BRANCH   9  18
HETATM   18  N2  UNL     1      18.902   3.593  51.640  1.00  0.00    -0.397 N 
HETATM   19  H9  UNL     1      18.051   3.208  52.081  1.00  0.00     0.156 HD
HETATM   20  H10 UNL     1      18.706   4.546  51.251  1.00  0.00     0.156 HD
ENDBRANCH   9  18
BRANCH   1  21
HETATM   21  O1  UNL     1      25.609   2.618  52.079  1.00  0.00    -0.340 OA
HETATM   22  C1  UNL     1      26.475   2.532  50.996  1.00  0.00     0.211 C 
ENDBRANCH   1  21
TORSDOF 2
ENDMDL
MODEL 4
REMARK VINA RESULT:      -6.9      2.748      4.605
REMARK  2 active torsions:
REMARK  status: ('A' for Active; 'I' for Inactive)
REMARK    1  A    between atoms: O1_2  and  C2_3 
REMARK    2  A    between atoms: C9_11  and  N2_12 
ROOT
HETATM    1  C2  UNL     1      18.580  -0.166  52.342  1.00  0.00     0.148 A 
HETATM    2  C3  UNL     1      18.176  -1.275  53.045  1.00  0.00     0.058 A 
HETATM    3  C4  UNL     1      19.253  -1.597  53.805  1.00  0.00     0.030 A 
HETATM    4  C5  UNL     1      20.299  -0.725  53.592  1.00  0.00     0.022 A 
HETATM    5  N1  UNL     1      19.864   0.158  52.680  1.00  0.00    -0.299 N 
HETATM    6  C6  UNL     1      20.354   1.327  51.980  1.00  0.00     0.024 C 
HETATM    7  C7  UNL     1      20.541   1.171  50.651  1.00  0.00     0.006 C 
HETATM    8  C8  UNL     1      21.439   1.792  49.620  1.00  0.00     0.092 C 
HETATM    9  C9  UNL     1      22.581   2.494  50.323  1.00  0.00     0.034 C 
HETATM   10  S1  UNL     1      22.417   2.898  51.904  1.00  0.00    -0.168 SA
HETATM   11  C10 UNL     1      20.689   2.723  52.452  1.00  0.00     0.127 C 
HETATM   12  C11 UNL     1      23.900   2.782  52.932  1.00  0.00     0.078 C 
HETATM   13  C12 UNL     1      24.656   1.506  52.848  1.00  0.00     0.012 C 
HETATM   14  C13 UNL     1      25.908   1.626  53.683  1.00  0.00     0.015 C 
HETATM   15  C14 UNL     1      23.849   0.318  53.270  1.00  0.00    -0.025 C 
HETATM   16  C15 UNL     1      22.674  -0.024  53.768  1.00  0.00    -0.024 C 
HETATM   17  C16 UNL     1      21.571  -0.828  54.274  1.00  0.00     0.084 C 
ENDROOT
BRANCH   9  18
HETATM   18  N2  UNL     1      23.762   2.780  49.587  1.00  0.00    -0.397 N 
HETATM   19  H9  UNL     1      24.322   3.643  49.498  1.00  0.00     0.156 HD
HETATM   20  H10 UNL     1      24.187   2.014  49.012  1.00  0.00     0.156 HD
ENDBRANCH   9  18
BRANCH   1  21
HETATM   21  O1  UNL     1      17.668   0.425  51.443  1.00  0.00    -0.340 OA
HETATM   22  C1  UNL     1      17.144  -0.244  50.345  1.00  0.00     0.211 C 
ENDBRANCH   1  21
TORSDOF 2
ENDMDL
MODEL 5
REMARK VINA RESULT:      -6.7      2.360      4.592
REMARK  2 active torsions:
REMARK  status: ('A' for Active; 'I' for Inactive)
REMARK    1  A    between atoms: O1_2  and  C2_3 
REMARK    2  A    between atoms: C9_11  and  N2_12 
ROOT
HETATM    1  C2  UNL     1      24.561   0.515  53.313  1.00  0.00     0.148 A 
HETATM    2  C3  UNL     1      24.342  -0.637  54.030  1.00  0.00     0.058 A 
HETATM    3  C4  UNL     1      23.000  -0.824  53.954  1.00  0.00     0.030 A 
HETATM    4  C5  UNL     1      22.393   0.170  53.218  1.00  0.00     0.022 A 
HETATM    5  N1  UNL     1      23.377   0.994  52.827  1.00  0.00    -0.299 N 
HETATM    6  C6  UNL     1      23.534   2.207  52.053  1.00  0.00     0.024 C 
HETATM    7  C7  UNL     1      23.907   3.300  52.755  1.00  0.00     0.006 C 
HETATM    8  C8  UNL     1      23.721   4.782  52.600  1.00  0.00     0.092 C 
HETATM    9  C9  UNL     1      22.594   5.035  51.622  1.00  0.00     0.034 C 
HETATM   10  S1  UNL     1      22.153   3.842  50.587  1.00  0.00    -0.168 SA
HETATM   11  C10 UNL     1      23.377   2.493  50.577  1.00  0.00     0.127 C 
HETATM   12  C11 UNL     1      20.391   3.714  50.195  1.00  0.00     0.078 C 
HETATM   13  C12 UNL     1      19.463   3.700  51.355  1.00  0.00     0.012 C 
HETATM   14  C13 UNL     1      18.043   3.695  50.842  1.00  0.00     0.015 C 
HETATM   15  C14 UNL     1      19.697   2.544  52.278  1.00  0.00    -0.025 C 
HETATM   16  C15 UNL     1      20.421   1.448  52.419  1.00  0.00    -0.024 C 
HETATM   17  C16 UNL     1      20.968   0.218  52.970  1.00  0.00     0.084 C 
ENDROOT
BRANCH   9  18
HETATM   18  N2  UNL     1      21.953   6.303  51.633  1.00  0.00    -0.397 N 
HETATM   19  H9  UNL     1      21.696   6.948  50.868  1.00  0.00     0.156 HD
HETATM   20  H10 UNL     1      21.666   6.706  52.557  1.00  0.00     0.156 HD
ENDBRANCH   9  18
BRANCH   1  21
HETATM   21  O1  UNL     1      25.884   0.990  53.199  1.00  0.00    -0.340 OA
HETATM   22  C1  UNL     1      26.784   0.509  52.257  1.00  0.00     0.211 C 
ENDBRANCH   1  21
TORSDOF 2
ENDMDL
MODEL 6
REMARK VINA RESULT:      -6.7      2.168      3.884
REMARK  2 active torsions:
REMARK  status: ('A' for Active; 'I' for Inactive)
REMARK    1  A    between atoms: O1_2  and  C2_3 
REMARK    2  A    between atoms: C9_11  and  N2_12 
ROOT
HETATM    1  C2  UNL     1      20.566   1.369  51.973  1.00  0.00     0.148 A 
HETATM    2  C3  UNL     1      19.790   0.334  52.435  1.00  0.00     0.058 A 
HETATM    3  C4  UNL     1      20.672  -0.496  53.044  1.00  0.00     0.030 A 
HETATM    4  C5  UNL     1      21.958  -0.007  52.971  1.00  0.00     0.022 A 
HETATM    5  N1  UNL     1      21.874   1.153  52.303  1.00  0.00    -0.299 N 
HETATM    6  C6  UNL     1      22.752   2.213  51.851  1.00  0.00     0.024 C 
HETATM    7  C7  UNL     1      22.907   2.308  50.512  1.00  0.00     0.006 C 
HETATM    8  C8  UNL     1      23.988   2.804  49.596  1.00  0.00     0.092 C 
HETATM    9  C9  UNL     1      25.284   2.899  50.372  1.00  0.00     0.034 C 
HETATM   10  S1  UNL     1      25.229   2.966  52.009  1.00  0.00    -0.168 SA
HETATM   11  C10 UNL     1      23.533   3.268  52.600  1.00  0.00     0.127 C 
HETATM   12  C11 UNL     1      26.558   2.125  52.903  1.00  0.00     0.078 C 
HETATM   13  C12 UNL     1      26.833   0.722  52.498  1.00  0.00     0.012 C 
HETATM   14  C13 UNL     1      28.029   0.218  53.268  1.00  0.00     0.015 C 
HETATM   15  C14 UNL     1      25.657  -0.184  52.692  1.00  0.00    -0.025 C 
HETATM   16  C15 UNL     1      24.425  -0.212  53.167  1.00  0.00    -0.024 C 
HETATM   17  C16 UNL     1      23.102  -0.686  53.543  1.00  0.00     0.084 C 
ENDROOT
BRANCH   9  18
HETATM   18  N2  UNL     1      26.509   2.926  49.653  1.00  0.00    -0.397 N 
HETATM   19  H9  UNL     1      27.137   3.705  49.398  1.00  0.00     0.156 HD
HETATM   20  H10 UNL     1      26.894   2.020  49.293  1.00  0.00     0.156 HD
ENDBRANCH   9  18
BRANCH   1  21
HETATM   21  O1  UNL     1      19.934   2.421  51.278  1.00  0.00    -0.340 OA
HETATM   22  C1  UNL     1      19.432   3.553  51.909  1.00  0.00     0.211 C 
ENDBRANCH   1  21
TORSDOF 2
ENDMDL
MODEL 7
REMARK VINA RESULT:      -6.6      2.307      3.004
REMARK  2 active torsions:
REMARK  status: ('A' for Active; 'I' for Inactive)
REMARK    1  A    between atoms: O1_2  and  C2_3 
REMARK    2  A    between atoms: C9_11  and  N2_12 
ROOT
HETATM    1  C2  UNL     1      22.506   0.256  53.464  1.00  0.00     0.148 A 
HETATM    2  C3  UNL     1      23.768  -0.163  53.810  1.00  0.00     0.058 A 
HETATM    3  C4  UNL     1      24.586   0.514  52.966  1.00  0.00     0.030 A 
HETATM    4  C5  UNL     1      23.870   1.331  52.117  1.00  0.00     0.022 A 
HETATM    5  N1  UNL     1      22.579   1.159  52.441  1.00  0.00    -0.299 N 
HETATM    6  C6  UNL     1      21.281   1.651  52.028  1.00  0.00     0.024 C 
HETATM    7  C7  UNL     1      20.482   0.744  51.424  1.00  0.00     0.006 C 
HETATM    8  C8  UNL     1      19.370   0.805  50.417  1.00  0.00     0.092 C 
HETATM    9  C9  UNL     1      19.417   2.146  49.716  1.00  0.00     0.034 C 
HETATM   10  S1  UNL     1      20.215   3.390  50.426  1.00  0.00    -0.168 SA
HETATM   11  C10 UNL     1      20.624   3.005  52.159  1.00  0.00     0.127 C 
HETATM   12  C11 UNL     1      21.093   4.528  49.328  1.00  0.00     0.078 C 
HETATM   13  C12 UNL     1      21.994   3.903  48.325  1.00  0.00     0.012 C 
HETATM   14  C13 UNL     1      22.556   4.985  47.436  1.00  0.00     0.015 C 
HETATM   15  C14 UNL     1      23.095   3.101  48.946  1.00  0.00    -0.025 C 
HETATM   16  C15 UNL     1      23.621   2.774  50.113  1.00  0.00    -0.024 C 
HETATM   17  C16 UNL     1      24.487   2.174  51.116  1.00  0.00     0.084 C 
ENDROOT
BRANCH   9  18
HETATM   18  N2  UNL     1      18.767   2.282  48.460  1.00  0.00    -0.397 N 
HETATM   19  H9  UNL     1      18.750   3.056  47.777  1.00  0.00     0.156 HD
HETATM   20  H10 UNL     1      18.186   1.482  48.112  1.00  0.00     0.156 HD
ENDBRANCH   9  18
BRANCH   1  21
HETATM   21  O1  UNL     1      21.407  -0.274  54.172  1.00  0.00    -0.340 OA
HETATM   22  C1  UNL     1      21.200  -1.637  54.342  1.00  0.00     0.211 C 
ENDBRANCH   1  21
TORSDOF 2
ENDMDL
MODEL 8
REMARK VINA RESULT:      -6.6      3.843      6.906
REMARK  2 active torsions:
REMARK  status: ('A' for Active; 'I' for Inactive)
REMARK    1  A    between atoms: O1_2  and  C2_3 
REMARK    2  A    between atoms: C9_11  and  N2_12 
ROOT
HETATM    1  C2  UNL     1      27.328   7.540  48.165  1.00  0.00     0.148 A 
HETATM    2  C3  UNL     1      28.635   7.180  47.942  1.00  0.00     0.058 A 
HETATM    3  C4  UNL     1      28.666   5.853  48.222  1.00  0.00     0.030 A 
HETATM    4  C5  UNL     1      27.427   5.390  48.606  1.00  0.00     0.022 A 
HETATM    5  N1  UNL     1      26.607   6.450  48.565  1.00  0.00    -0.299 N 
HETATM    6  C6  UNL     1      25.213   6.756  48.811  1.00  0.00     0.024 C 
HETATM    7  C7  UNL     1      24.972   7.547  49.880  1.00  0.00     0.006 C 
HETATM    8  C8  UNL     1      23.826   7.732  50.832  1.00  0.00     0.092 C 
HETATM    9  C9  UNL     1      22.909   6.532  50.737  1.00  0.00     0.034 C 
HETATM   10  S1  UNL     1      22.979   5.579  49.405  1.00  0.00    -0.168 SA
HETATM   11  C10 UNL     1      23.948   6.369  48.080  1.00  0.00     0.127 C 
HETATM   12  C11 UNL     1      22.726   3.806  49.657  1.00  0.00     0.078 C 
HETATM   13  C12 UNL     1      23.539   3.176  50.729  1.00  0.00     0.012 C 
HETATM   14  C13 UNL     1      23.126   1.731  50.868  1.00  0.00     0.015 C 
HETATM   15  C14 UNL     1      25.013   3.286  50.487  1.00  0.00    -0.025 C 
HETATM   16  C15 UNL     1      25.899   3.705  49.602  1.00  0.00    -0.024 C 
HETATM   17  C16 UNL     1      27.168   4.009  48.957  1.00  0.00     0.084 C 
ENDROOT
BRANCH   9  18
HETATM   18  N2  UNL     1      22.016   6.269  51.810  1.00  0.00    -0.397 N 
HETATM   19  H9  UNL     1      21.150   5.708  51.860  1.00  0.00     0.156 HD
HETATM   20  H10 UNL     1      22.223   6.696  52.745  1.00  0.00     0.156 HD
ENDBRANCH   9  18
BRANCH   1  21
HETATM   21  O1  UNL     1      26.960   8.885  47.958  1.00  0.00    -0.340 OA
HETATM   22  C1  UNL     1      27.493   9.939  48.690  1.00  0.00     0.211 C 
ENDBRANCH   1  21
TORSDOF 2
ENDMDL
MODEL 9
REMARK VINA RESULT:      -6.4      7.348     10.293
REMARK  2 active torsions:
REMARK  status: ('A' for Active; 'I' for Inactive)
REMARK    1  A    between atoms: O1_2  and  C2_3 
REMARK    2  A    between atoms: C9_11  and  N2_12 
ROOT
HETATM    1  C2  UNL     1      33.719   6.808  47.256  1.00  0.00     0.148 A 
HETATM    2  C3  UNL     1      34.364   5.607  47.086  1.00  0.00     0.058 A 
HETATM    3  C4  UNL     1      33.367   4.688  47.115  1.00  0.00     0.030 A 
HETATM    4  C5  UNL     1      32.137   5.284  47.297  1.00  0.00     0.022 A 
HETATM    5  N1  UNL     1      32.375   6.602  47.382  1.00  0.00    -0.299 N 
HETATM    6  C6  UNL     1      31.629   7.830  47.559  1.00  0.00     0.024 C 
HETATM    7  C7  UNL     1      31.834   8.471  48.731  1.00  0.00     0.006 C 
HETATM    8  C8  UNL     1      31.026   9.393  49.598  1.00  0.00     0.092 C 
HETATM    9  C9  UNL     1      29.569   9.288  49.202  1.00  0.00     0.034 C 
HETATM   10  S1  UNL     1      29.185   8.684  47.726  1.00  0.00    -0.168 SA
HETATM   11  C10 UNL     1      30.658   8.562  46.662  1.00  0.00     0.127 C 
HETATM   12  C11 UNL     1      27.682   7.683  47.621  1.00  0.00     0.078 C 
HETATM   13  C12 UNL     1      27.551   6.595  48.624  1.00  0.00     0.012 C 
HETATM   14  C13 UNL     1      26.202   5.938  48.456  1.00  0.00     0.015 C 
HETATM   15  C14 UNL     1      28.649   5.581  48.536  1.00  0.00    -0.025 C 
HETATM   16  C15 UNL     1      29.712   5.250  47.825  1.00  0.00    -0.024 C 
HETATM   17  C16 UNL     1      30.896   4.543  47.361  1.00  0.00     0.084 C 
ENDROOT
BRANCH   9  18
HETATM   18  N2  UNL     1      28.578   9.717  50.125  1.00  0.00    -0.397 N 
HETATM   19  H9  UNL     1      27.744  10.315  50.008  1.00  0.00     0.156 HD
HETATM   20  H10 UNL     1      28.656   9.399  51.121  1.00  0.00     0.156 HD
ENDBRANCH   9  18
BRANCH   1  21
HETATM   21  O1  UNL     1      34.494   7.987  47.273  1.00  0.00    -0.340 OA
HETATM   22  C1  UNL     1      35.477   8.236  48.222  1.00  0.00     0.211 C 
ENDBRANCH   1  21
TORSDOF 2
ENDMDL
