MODEL 1
REMARK VINA RESULT:      -9.0      0.000      0.000
REMARK  3 active torsions:
REMARK  status: ('A' for Active; 'I' for Inactive)
REMARK    1  A    between atoms: C2_2  and  O1_3 
REMARK    2  A    between atoms: C8_11  and  N3_12 
REMARK    3  A    between atoms: N3_12  and  C9_13 
ROOT
HETATM    1  O1  UNL     1      25.111   0.055  53.987  1.00  0.00     0.000 OA
HETATM    2  C3  UNL     1      25.414   1.294  53.331  1.00  0.00    -0.006 C 
HETATM    3  C4  UNL     1      26.579   1.185  54.065  1.00  0.00     0.065 C 
HETATM    4  C5  UNL     1      26.396  -0.025  54.984  1.00  0.00     0.140 C 
HETATM    5  N1  UNL     1      25.667  -0.894  55.558  1.00  0.00    -0.275 NA
HETATM    6  C6  UNL     1      24.336  -1.263  55.683  1.00  0.00     0.227 C 
HETATM    7  N2  UNL     1      23.146  -1.356  55.490  1.00  0.00    -0.244 NA
HETATM    8  C7  UNL     1      22.102  -1.015  54.785  1.00  0.00     0.073 A 
HETATM    9  C8  UNL     1      21.031  -0.735  54.147  1.00  0.00     0.171 A 
HETATM   10  C16 UNL     1      22.655  -0.221  53.941  1.00  0.00     0.010 A 
HETATM   11  P1  UNL     1      23.242   0.584  53.082  1.00  0.00    -0.017 P 
HETATM   12  O2  UNL     1      24.434   2.309  51.205  1.00  0.00     0.000 OA
HETATM   13  C17 UNL     1      22.968   2.143  50.899  1.00  0.00     0.028 C 
HETATM   14  C18 UNL     1      22.439   2.967  52.112  1.00  0.00     0.168 C 
HETATM   15  O3  UNL     1      23.745   2.826  52.821  1.00  0.00    -0.380 OA
HETATM   16  C19 UNL     1      23.729   1.216  52.424  1.00  0.00     0.163 C 
ENDROOT
BRANCH   9  17
HETATM   17  N3  UNL     1      20.010  -0.280  53.311  1.00  0.00    -0.376 N 
HETATM   18  H10 UNL     1      20.187   0.609  52.843  1.00  0.00     0.160 HD
BRANCH  17  19
HETATM   19  C9  UNL     1      18.828  -1.048  53.151  1.00  0.00     0.028 A 
HETATM   20  C10 UNL     1      18.559  -2.280  53.751  1.00  0.00     0.029 A 
HETATM   21  C11 UNL     1      17.344  -2.881  53.458  1.00  0.00     0.009 A 
HETATM   22  C12 UNL     1      16.375  -2.344  52.612  1.00  0.00    -0.062 A 
HETATM   23  C13 UNL     1      15.123  -3.090  52.376  1.00  0.00     0.048 C 
HETATM   24  C14 UNL     1      16.690  -1.129  52.050  1.00  0.00     0.009 A 
HETATM   25  C15 UNL     1      17.888  -0.514  52.326  1.00  0.00     0.029 A 
ENDBRANCH  17  19
ENDBRANCH   9  17
BRANCH   1  26
HETATM   26  C2  UNL     1      25.501  -0.905  52.885  1.00  0.00    -0.005 C 
HETATM   27  C1  UNL     1      26.856  -1.336  52.708  1.00  0.00     0.005 C 
ENDBRANCH   1  26
TORSDOF 3
ENDMDL
MODEL 2
REMARK VINA RESULT:      -8.1      3.984      8.346
REMARK  3 active torsions:
REMARK  status: ('A' for Active; 'I' for Inactive)
REMARK    1  A    between atoms: C2_2  and  O1_3 
REMARK    2  A    between atoms: C8_11  and  N3_12 
REMARK    3  A    between atoms: N3_12  and  C9_13 
ROOT
HETATM    1  O1  UNL     1      22.111   1.121  52.722  1.00  0.00     0.000 OA
HETATM    2  C3  UNL     1      22.904   0.229  53.517  1.00  0.00    -0.006 C 
HETATM    3  C4  UNL     1      21.695   0.011  54.147  1.00  0.00     0.065 C 
HETATM    4  C5  UNL     1      20.707   1.010  53.538  1.00  0.00     0.140 C 
HETATM    5  N1  UNL     1      20.447   2.061  52.873  1.00  0.00    -0.275 NA
HETATM    6  C6  UNL     1      21.088   3.098  52.212  1.00  0.00     0.227 C 
HETATM    7  N2  UNL     1      21.940   3.763  51.669  1.00  0.00    -0.244 NA
HETATM    8  C7  UNL     1      23.180   3.882  51.281  1.00  0.00     0.073 A 
HETATM    9  C8  UNL     1      24.373   4.078  50.867  1.00  0.00     0.171 A 
HETATM   10  C16 UNL     1      23.652   2.764  51.701  1.00  0.00     0.010 A 
HETATM   11  P1  UNL     1      24.113   1.609  52.133  1.00  0.00    -0.017 P 
HETATM   12  O2  UNL     1      25.165  -0.845  53.020  1.00  0.00     0.000 OA
HETATM   13  C17 UNL     1      26.219  -0.068  52.276  1.00  0.00     0.028 C 
HETATM   14  C18 UNL     1      26.438   1.025  53.366  1.00  0.00     0.168 C 
HETATM   15  O3  UNL     1      25.126   0.700  54.002  1.00  0.00    -0.380 OA
HETATM   16  C19 UNL     1      24.450   0.699  52.488  1.00  0.00     0.163 C 
ENDROOT
BRANCH   9  17
HETATM   17  N3  UNL     1      25.724   4.068  50.517  1.00  0.00    -0.376 N 
HETATM   18  H10 UNL     1      26.275   3.302  50.908  1.00  0.00     0.160 HD
BRANCH  17  19
HETATM   19  C9  UNL     1      26.244   5.074  49.663  1.00  0.00     0.028 A 
HETATM   20  C10 UNL     1      25.646   6.303  49.379  1.00  0.00     0.029 A 
HETATM   21  C11 UNL     1      26.311   7.149  48.504  1.00  0.00     0.009 A 
HETATM   22  C12 UNL     1      27.531   6.862  47.893  1.00  0.00    -0.062 A 
HETATM   23  C13 UNL     1      28.132   7.849  46.973  1.00  0.00     0.048 C 
HETATM   24  C14 UNL     1      28.077   5.642  48.210  1.00  0.00     0.009 A 
HETATM   25  C15 UNL     1      27.436   4.786  49.075  1.00  0.00     0.029 A 
ENDBRANCH  17  19
ENDBRANCH   9  17
BRANCH   1  26
HETATM   26  C2  UNL     1      21.859   0.226  51.529  1.00  0.00    -0.005 C 
HETATM   27  C1  UNL     1      20.881   0.555  50.535  1.00  0.00     0.005 C 
ENDBRANCH   1  26
TORSDOF 3
ENDMDL
MODEL 3
REMARK VINA RESULT:      -8.0      3.125      7.412
REMARK  3 active torsions:
REMARK  status: ('A' for Active; 'I' for Inactive)
REMARK    1  A    between atoms: C2_2  and  O1_3 
REMARK    2  A    between atoms: C8_11  and  N3_12 
REMARK    3  A    between atoms: N3_12  and  C9_13 
ROOT
HETATM    1  O1  UNL     1      21.079   1.905  51.045  1.00  0.00     0.000 OA
HETATM    2  C3  UNL     1      20.119   1.136  51.782  1.00  0.00    -0.006 C 
HETATM    3  C4  UNL     1      19.231   1.790  50.951  1.00  0.00     0.065 C 
HETATM    4  C5  UNL     1      20.054   2.810  50.160  1.00  0.00     0.140 C 
HETATM    5  N1  UNL     1      21.107   3.500  49.981  1.00  0.00    -0.275 NA
HETATM    6  C6  UNL     1      22.339   3.749  50.566  1.00  0.00     0.227 C 
HETATM    7  N2  UNL     1      23.320   3.650  51.267  1.00  0.00    -0.244 NA
HETATM    8  C7  UNL     1      23.964   2.998  52.197  1.00  0.00     0.073 A 
HETATM    9  C8  UNL     1      24.659   2.419  53.098  1.00  0.00     0.171 A 
HETATM   10  C16 UNL     1      23.121   2.058  52.431  1.00  0.00     0.010 A 
HETATM   11  P1  UNL     1      22.246   1.099  52.652  1.00  0.00    -0.017 P 
HETATM   12  O2  UNL     1      20.428  -0.986  53.166  1.00  0.00     0.000 OA
HETATM   13  C17 UNL     1      21.676  -1.171  53.989  1.00  0.00     0.028 C 
HETATM   14  C18 UNL     1      21.418   0.010  54.974  1.00  0.00     0.168 C 
HETATM   15  O3  UNL     1      20.447   0.632  54.026  1.00  0.00    -0.380 OA
HETATM   16  C19 UNL     1      21.539   0.362  52.808  1.00  0.00     0.163 C 
ENDROOT
BRANCH   9  17
HETATM   17  N3  UNL     1      25.227   1.627  54.098  1.00  0.00    -0.376 N 
HETATM   18  H10 UNL     1      24.895   1.811  55.046  1.00  0.00     0.160 HD
BRANCH  17  19
HETATM   19  C9  UNL     1      26.186   0.639  53.762  1.00  0.00     0.028 A 
HETATM   20  C10 UNL     1      26.013  -0.401  52.847  1.00  0.00     0.029 A 
HETATM   21  C11 UNL     1      27.073  -1.276  52.667  1.00  0.00     0.009 A 
HETATM   22  C12 UNL     1      28.296  -1.191  53.329  1.00  0.00    -0.062 A 
HETATM   23  C13 UNL     1      29.345  -2.193  53.051  1.00  0.00     0.048 C 
HETATM   24  C14 UNL     1      28.416  -0.148  54.216  1.00  0.00     0.009 A 
HETATM   25  C15 UNL     1      27.378   0.733  54.412  1.00  0.00     0.029 A 
ENDBRANCH  17  19
ENDBRANCH   9  17
BRANCH   1  26
HETATM   26  C2  UNL     1      21.519   0.855  50.049  1.00  0.00    -0.005 C 
HETATM   27  C1  UNL     1      21.504   1.104  48.638  1.00  0.00     0.005 C 
ENDBRANCH   1  26
TORSDOF 3
ENDMDL
MODEL 4
REMARK VINA RESULT:      -8.0      3.769      7.678
REMARK  3 active torsions:
REMARK  status: ('A' for Active; 'I' for Inactive)
REMARK    1  A    between atoms: C2_2  and  O1_3 
REMARK    2  A    between atoms: C8_11  and  N3_12 
REMARK    3  A    between atoms: N3_12  and  C9_13 
ROOT
HETATM    1  O1  UNL     1      22.091   2.421  49.581  1.00  0.00     0.000 OA
HETATM    2  C3  UNL     1      22.890   3.105  48.605  1.00  0.00    -0.006 C 
HETATM    3  C4  UNL     1      21.950   2.583  47.739  1.00  0.00     0.065 C 
HETATM    4  C5  UNL     1      21.060   1.660  48.576  1.00  0.00     0.140 C 
HETATM    5  N1  UNL     1      20.828   0.979  49.624  1.00  0.00    -0.275 NA
HETATM    6  C6  UNL     1      21.418   0.632  50.830  1.00  0.00     0.227 C 
HETATM    7  N2  UNL     1      22.159   0.619  51.786  1.00  0.00    -0.244 NA
HETATM    8  C7  UNL     1      23.188   1.131  52.404  1.00  0.00     0.073 A 
HETATM    9  C8  UNL     1      24.182   1.573  53.075  1.00  0.00     0.171 A 
HETATM   10  C16 UNL     1      23.516   2.048  51.567  1.00  0.00     0.010 A 
HETATM   11  P1  UNL     1      23.830   2.986  50.699  1.00  0.00    -0.017 P 
HETATM   12  O2  UNL     1      24.551   5.020  48.894  1.00  0.00     0.000 OA
HETATM   13  C17 UNL     1      25.434   5.071  50.113  1.00  0.00     0.028 C 
HETATM   14  C18 UNL     1      26.245   3.777  49.801  1.00  0.00     0.168 C 
HETATM   15  O3  UNL     1      25.190   3.304  48.857  1.00  0.00    -0.380 OA
HETATM   16  C19 UNL     1      24.058   3.710  49.997  1.00  0.00     0.163 C 
ENDROOT
BRANCH   9  17
HETATM   17  N3  UNL     1      25.296   2.216  53.616  1.00  0.00    -0.376 N 
HETATM   18  H10 UNL     1      25.128   3.152  53.989  1.00  0.00     0.160 HD
BRANCH  17  19
HETATM   19  C9  UNL     1      26.555   1.563  53.631  1.00  0.00     0.028 A 
HETATM   20  C10 UNL     1      27.801   2.178  53.765  1.00  0.00     0.029 A 
HETATM   21  C11 UNL     1      28.921   1.361  53.744  1.00  0.00     0.009 A 
HETATM   22  C12 UNL     1      28.893  -0.025  53.602  1.00  0.00    -0.062 A 
HETATM   23  C13 UNL     1      30.162  -0.780  53.589  1.00  0.00     0.048 C 
HETATM   24  C14 UNL     1      27.642  -0.579  53.478  1.00  0.00     0.009 A 
HETATM   25  C15 UNL     1      26.516   0.210  53.495  1.00  0.00     0.029 A 
ENDBRANCH  17  19
ENDBRANCH   9  17
BRANCH   1  26
HETATM   26  C2  UNL     1      21.259   3.584  50.072  1.00  0.00    -0.005 C 
HETATM   27  C1  UNL     1      20.586   4.464  49.164  1.00  0.00     0.005 C 
ENDBRANCH   1  26
TORSDOF 3
ENDMDL
MODEL 5
REMARK VINA RESULT:      -7.9      3.628      7.777
REMARK  3 active torsions:
REMARK  status: ('A' for Active; 'I' for Inactive)
REMARK    1  A    between atoms: C2_2  and  O1_3 
REMARK    2  A    between atoms: C8_11  and  N3_12 
REMARK    3  A    between atoms: N3_12  and  C9_13 
ROOT
HETATM    1  O1  UNL     1      21.927   1.060  52.250  1.00  0.00     0.000 OA
HETATM    2  C3  UNL     1      23.037   0.263  52.685  1.00  0.00    -0.006 C 
HETATM    3  C4  UNL     1      22.037  -0.649  52.961  1.00  0.00     0.065 C 
HETATM    4  C5  UNL     1      20.713   0.077  52.708  1.00  0.00     0.140 C 
HETATM    5  N1  UNL     1      20.034   1.138  52.540  1.00  0.00    -0.275 NA
HETATM    6  C6  UNL     1      20.186   2.515  52.507  1.00  0.00     0.227 C 
HETATM    7  N2  UNL     1      20.685   3.616  52.448  1.00  0.00    -0.244 NA
HETATM    8  C7  UNL     1      21.761   4.347  52.347  1.00  0.00     0.073 A 
HETATM    9  C8  UNL     1      22.763   5.134  52.250  1.00  0.00     0.171 A 
HETATM   10  C16 UNL     1      22.652   3.423  52.302  1.00  0.00     0.010 A 
HETATM   11  P1  UNL     1      23.549   2.461  52.250  1.00  0.00    -0.017 P 
HETATM   12  O2  UNL     1      25.519   0.456  52.121  1.00  0.00     0.000 OA
HETATM   13  C17 UNL     1      26.151   1.814  51.966  1.00  0.00     0.028 C 
HETATM   14  C18 UNL     1      25.958   2.271  53.443  1.00  0.00     0.168 C 
HETATM   15  O3  UNL     1      24.907   1.234  53.663  1.00  0.00    -0.380 OA
HETATM   16  C19 UNL     1      24.232   1.685  52.217  1.00  0.00     0.163 C 
ENDROOT
BRANCH   9  17
HETATM   17  N3  UNL     1      23.994   5.784  52.144  1.00  0.00    -0.376 N 
HETATM   18  H10 UNL     1      24.574   5.768  52.984  1.00  0.00     0.160 HD
BRANCH  17  19
HETATM   19  C9  UNL     1      24.368   6.400  50.923  1.00  0.00     0.028 A 
HETATM   20  C10 UNL     1      24.017   7.685  50.507  1.00  0.00     0.029 A 
HETATM   21  C11 UNL     1      24.476   8.102  49.266  1.00  0.00     0.009 A 
HETATM   22  C12 UNL     1      25.262   7.334  48.410  1.00  0.00    -0.062 A 
HETATM   23  C13 UNL     1      25.681   7.895  47.109  1.00  0.00     0.048 C 
HETATM   24  C14 UNL     1      25.582   6.079  48.869  1.00  0.00     0.009 A 
HETATM   25  C15 UNL     1      25.138   5.643  50.096  1.00  0.00     0.029 A 
ENDBRANCH  17  19
ENDBRANCH   9  17
BRANCH   1  26
HETATM   26  C2  UNL     1      22.007   0.797  50.762  1.00  0.00    -0.005 C 
HETATM   27  C1  UNL     1      20.875   0.984  49.904  1.00  0.00     0.005 C 
ENDBRANCH   1  26
TORSDOF 3
ENDMDL
MODEL 6
REMARK VINA RESULT:      -7.8      2.903      7.472
REMARK  3 active torsions:
REMARK  status: ('A' for Active; 'I' for Inactive)
REMARK    1  A    between atoms: C2_2  and  O1_3 
REMARK    2  A    between atoms: C8_11  and  N3_12 
REMARK    3  A    between atoms: N3_12  and  C9_13 
ROOT
HETATM    1  O1  UNL     1      20.105   1.460  51.238  1.00  0.00     0.000 OA
HETATM    2  C3  UNL     1      20.176   2.005  49.913  1.00  0.00    -0.006 C 
HETATM    3  C4  UNL     1      18.963   1.358  49.780  1.00  0.00     0.065 C 
HETATM    4  C5  UNL     1      18.761   0.556  51.068  1.00  0.00     0.140 C 
HETATM    5  N1  UNL     1      19.201   0.029  52.138  1.00  0.00    -0.275 NA
HETATM    6  C6  UNL     1      20.382  -0.139  52.844  1.00  0.00     0.227 C 
HETATM    7  N2  UNL     1      21.524  -0.010  53.222  1.00  0.00    -0.244 NA
HETATM    8  C7  UNL     1      22.676   0.593  53.103  1.00  0.00     0.073 A 
HETATM    9  C8  UNL     1      23.831   1.134  53.055  1.00  0.00     0.171 A 
HETATM   10  C16 UNL     1      22.411   1.384  52.128  1.00  0.00     0.010 A 
HETATM   11  P1  UNL     1      22.116   2.193  51.131  1.00  0.00    -0.017 P 
HETATM   12  O2  UNL     1      21.552   3.956  49.012  1.00  0.00     0.000 OA
HETATM   13  C17 UNL     1      22.951   4.187  49.521  1.00  0.00     0.028 C 
HETATM   14  C18 UNL     1      23.565   2.869  48.962  1.00  0.00     0.168 C 
HETATM   15  O3  UNL     1      22.210   2.257  48.822  1.00  0.00    -0.380 OA
HETATM   16  C19 UNL     1      21.858   2.812  50.344  1.00  0.00     0.163 C 
ENDROOT
BRANCH   9  17
HETATM   17  N3  UNL     1      25.001   1.856  52.809  1.00  0.00    -0.376 N 
HETATM   18  H10 UNL     1      24.866   2.806  52.459  1.00  0.00     0.160 HD
BRANCH  17  19
HETATM   19  C9  UNL     1      26.266   1.266  53.058  1.00  0.00     0.028 A 
HETATM   20  C10 UNL     1      27.427   1.938  53.444  1.00  0.00     0.029 A 
HETATM   21  C11 UNL     1      28.573   1.179  53.628  1.00  0.00     0.009 A 
HETATM   22  C12 UNL     1      28.647  -0.203  53.459  1.00  0.00    -0.062 A 
HETATM   23  C13 UNL     1      29.934  -0.894  53.680  1.00  0.00     0.048 C 
HETATM   24  C14 UNL     1      27.475  -0.815  53.082  1.00  0.00     0.009 A 
HETATM   25  C15 UNL     1      26.327  -0.083  52.894  1.00  0.00     0.029 A 
ENDBRANCH  17  19
ENDBRANCH   9  17
BRANCH   1  26
HETATM   26  C2  UNL     1      19.582   2.674  51.973  1.00  0.00    -0.005 C 
HETATM   27  C1  UNL     1      18.414   3.376  51.531  1.00  0.00     0.005 C 
ENDBRANCH   1  26
TORSDOF 3
ENDMDL
MODEL 7
REMARK VINA RESULT:      -7.8      2.777      4.203
REMARK  3 active torsions:
REMARK  status: ('A' for Active; 'I' for Inactive)
REMARK    1  A    between atoms: C2_2  and  O1_3 
REMARK    2  A    between atoms: C8_11  and  N3_12 
REMARK    3  A    between atoms: N3_12  and  C9_13 
ROOT
HETATM    1  O1  UNL     1      25.673   0.485  52.814  1.00  0.00     0.000 OA
HETATM    2  C3  UNL     1      25.019  -0.723  53.227  1.00  0.00    -0.006 C 
HETATM    3  C4  UNL     1      26.260  -1.268  52.959  1.00  0.00     0.065 C 
HETATM    4  C5  UNL     1      27.096  -0.146  52.337  1.00  0.00     0.140 C 
HETATM    5  N1  UNL     1      27.203   0.988  51.774  1.00  0.00    -0.275 NA
HETATM    6  C6  UNL     1      26.420   2.034  51.311  1.00  0.00     0.227 C 
HETATM    7  N2  UNL     1      25.477   2.768  51.121  1.00  0.00    -0.244 NA
HETATM    8  C7  UNL     1      24.224   3.053  51.348  1.00  0.00     0.073 A 
HETATM    9  C8  UNL     1      23.008   3.404  51.520  1.00  0.00     0.171 A 
HETATM   10  C16 UNL     1      23.911   2.074  52.118  1.00  0.00     0.010 A 
HETATM   11  P1  UNL     1      23.612   1.067  52.911  1.00  0.00    -0.017 P 
HETATM   12  O2  UNL     1      22.908  -1.054  54.621  1.00  0.00     0.000 OA
HETATM   13  C17 UNL     1      21.746  -0.108  54.461  1.00  0.00     0.028 C 
HETATM   14  C18 UNL     1      21.410  -0.485  52.987  1.00  0.00     0.168 C 
HETATM   15  O3  UNL     1      22.766  -1.081  52.795  1.00  0.00    -0.380 OA
HETATM   16  C19 UNL     1      23.405   0.262  53.526  1.00  0.00     0.163 C 
ENDROOT
BRANCH   9  17
HETATM   17  N3  UNL     1      21.662   3.580  51.847  1.00  0.00    -0.376 N 
HETATM   18  H10 UNL     1      21.460   4.361  52.472  1.00  0.00     0.160 HD
BRANCH  17  19
HETATM   19  C9  UNL     1      20.681   2.709  51.309  1.00  0.00     0.028 A 
HETATM   20  C10 UNL     1      20.797   1.962  50.136  1.00  0.00     0.029 A 
HETATM   21  C11 UNL     1      19.716   1.174  49.771  1.00  0.00     0.009 A 
HETATM   22  C12 UNL     1      18.526   1.074  50.490  1.00  0.00    -0.062 A 
HETATM   23  C13 UNL     1      17.445   0.202  49.988  1.00  0.00     0.048 C 
HETATM   24  C14 UNL     1      18.466   1.827  51.638  1.00  0.00     0.009 A 
HETATM   25  C15 UNL     1      19.526   2.616  52.020  1.00  0.00     0.029 A 
ENDBRANCH  17  19
ENDBRANCH   9  17
BRANCH   1  26
HETATM   26  C2  UNL     1      26.014   1.054  54.173  1.00  0.00    -0.005 C 
HETATM   27  C1  UNL     1      26.760   0.301  55.137  1.00  0.00     0.005 C 
ENDBRANCH   1  26
TORSDOF 3
ENDMDL
MODEL 8
REMARK VINA RESULT:      -7.7      4.827      8.885
REMARK  3 active torsions:
REMARK  status: ('A' for Active; 'I' for Inactive)
REMARK    1  A    between atoms: C2_2  and  O1_3 
REMARK    2  A    between atoms: C8_11  and  N3_12 
REMARK    3  A    between atoms: N3_12  and  C9_13 
ROOT
HETATM    1  O1  UNL     1      22.528   1.446  51.662  1.00  0.00     0.000 OA
HETATM    2  C3  UNL     1      21.598   1.017  50.658  1.00  0.00    -0.006 C 
HETATM    3  C4  UNL     1      21.423  -0.037  51.533  1.00  0.00     0.065 C 
HETATM    4  C5  UNL     1      22.466   0.145  52.639  1.00  0.00     0.140 C 
HETATM    5  N1  UNL     1      23.533   0.664  53.096  1.00  0.00    -0.275 NA
HETATM    6  C6  UNL     1      24.548   1.531  52.723  1.00  0.00     0.227 C 
HETATM    7  N2  UNL     1      25.183   2.369  52.125  1.00  0.00    -0.244 NA
HETATM    8  C7  UNL     1      25.256   3.212  51.131  1.00  0.00     0.073 A 
HETATM    9  C8  UNL     1      25.407   4.061  50.188  1.00  0.00     0.171 A 
HETATM   10  C16 UNL     1      24.116   3.001  50.578  1.00  0.00     0.010 A 
HETATM   11  P1  UNL     1      22.940   2.774  50.032  1.00  0.00    -0.017 P 
HETATM   12  O2  UNL     1      20.438   2.350  48.817  1.00  0.00     0.000 OA
HETATM   13  C17 UNL     1      21.179   3.452  48.107  1.00  0.00     0.028 C 
HETATM   14  C18 UNL     1      22.252   2.543  47.436  1.00  0.00     0.168 C 
HETATM   15  O3  UNL     1      21.975   1.443  48.407  1.00  0.00    -0.380 OA
HETATM   16  C19 UNL     1      22.014   2.572  49.620  1.00  0.00     0.163 C 
ENDROOT
BRANCH   9  17
HETATM   17  N3  UNL     1      25.346   4.911  49.083  1.00  0.00    -0.376 N 
HETATM   18  H10 UNL     1      24.427   5.001  48.647  1.00  0.00     0.160 HD
BRANCH  17  19
HETATM   19  C9  UNL     1      26.511   5.588  48.642  1.00  0.00     0.028 A 
HETATM   20  C10 UNL     1      26.582   6.918  48.225  1.00  0.00     0.029 A 
HETATM   21  C11 UNL     1      27.820   7.394  47.818  1.00  0.00     0.009 A 
HETATM   22  C12 UNL     1      28.994   6.643  47.799  1.00  0.00    -0.062 A 
HETATM   23  C13 UNL     1      30.249   7.269  47.336  1.00  0.00     0.048 C 
HETATM   24  C14 UNL     1      28.868   5.342  48.223  1.00  0.00     0.009 A 
HETATM   25  C15 UNL     1      27.652   4.847  48.631  1.00  0.00     0.029 A 
ENDBRANCH  17  19
ENDBRANCH   9  17
BRANCH   1  26
HETATM   26  C2  UNL     1      21.653   2.438  52.396  1.00  0.00    -0.005 C 
HETATM   27  C1  UNL     1      20.318   2.109  52.798  1.00  0.00     0.005 C 
ENDBRANCH   1  26
TORSDOF 3
ENDMDL
MODEL 9
REMARK VINA RESULT:      -7.7      4.271      7.997
REMARK  3 active torsions:
REMARK  status: ('A' for Active; 'I' for Inactive)
REMARK    1  A    between atoms: C2_2  and  O1_3 
REMARK    2  A    between atoms: C8_11  and  N3_12 
REMARK    3  A    between atoms: N3_12  and  C9_13 
ROOT
HETATM    1  O1  UNL     1      21.311   3.612  50.040  1.00  0.00     0.000 OA
HETATM    2  C3  UNL     1      21.632   4.890  49.473  1.00  0.00    -0.006 C 
HETATM    3  C4  UNL     1      20.558   4.592  48.658  1.00  0.00     0.065 C 
HETATM    4  C5  UNL     1      20.146   3.157  48.998  1.00  0.00     0.140 C 
HETATM    5  N1  UNL     1      20.377   2.021  49.519  1.00  0.00    -0.275 NA
HETATM    6  C6  UNL     1      21.372   1.335  50.198  1.00  0.00     0.227 C 
HETATM    7  N2  UNL     1      22.375   1.090  50.828  1.00  0.00    -0.244 NA
HETATM    8  C7  UNL     1      23.453   1.527  51.420  1.00  0.00     0.073 A 
HETATM    9  C8  UNL     1      24.525   1.870  52.023  1.00  0.00     0.171 A 
HETATM   10  C16 UNL     1      23.341   2.783  51.183  1.00  0.00     0.010 A 
HETATM   11  P1  UNL     1      23.204   4.069  50.935  1.00  0.00    -0.017 P 
HETATM   12  O2  UNL     1      22.969   6.831  50.451  1.00  0.00     0.000 OA
HETATM   13  C17 UNL     1      24.179   6.555  51.306  1.00  0.00     0.028 C 
HETATM   14  C18 UNL     1      25.041   5.895  50.187  1.00  0.00     0.168 C 
HETATM   15  O3  UNL     1      23.827   5.639  49.356  1.00  0.00    -0.380 OA
HETATM   16  C19 UNL     1      23.074   5.072  50.720  1.00  0.00     0.163 C 
ENDROOT
BRANCH   9  17
HETATM   17  N3  UNL     1      25.638   2.478  52.608  1.00  0.00    -0.376 N 
HETATM   18  H10 UNL     1      25.553   3.481  52.778  1.00  0.00     0.160 HD
BRANCH  17  19
HETATM   19  C9  UNL     1      26.781   1.704  52.934  1.00  0.00     0.028 A 
HETATM   20  C10 UNL     1      27.983   2.189  53.452  1.00  0.00     0.029 A 
HETATM   21  C11 UNL     1      28.991   1.268  53.694  1.00  0.00     0.009 A 
HETATM   22  C12 UNL     1      28.889  -0.102  53.460  1.00  0.00    -0.062 A 
HETATM   23  C13 UNL     1      30.042  -0.977  53.755  1.00  0.00     0.048 C 
HETATM   24  C14 UNL     1      27.684  -0.526  52.953  1.00  0.00     0.009 A 
HETATM   25  C15 UNL     1      26.670   0.368  52.705  1.00  0.00     0.029 A 
ENDBRANCH  17  19
ENDBRANCH   9  17
BRANCH   1  26
HETATM   26  C2  UNL     1      20.508   4.071  51.237  1.00  0.00    -0.005 C 
HETATM   27  C1  UNL     1      19.565   3.208  51.885  1.00  0.00     0.005 C 
ENDBRANCH   1  26
TORSDOF 3
ENDMDL
