MODEL 1
REMARK VINA RESULT:      -7.7      0.000      0.000
REMARK  10 active torsions:
REMARK  status: ('A' for Active; 'I' for Inactive)
REMARK    1  A    between atoms: C2_2  and  C4_4 
REMARK    2  A    between atoms: C4_4  and  O1_5 
REMARK    3  A    between atoms: O1_5  and  C5_6 
REMARK       I    between atoms: C5_6  and  N1_8 
REMARK    4  A    between atoms: N1_8  and  C6_9 
REMARK    5  A    between atoms: C6_9  and  C23_30 
REMARK    6  A    between atoms: C7_10  and  C8_11 
REMARK    7  A    between atoms: C9_12  and  C10_13 
REMARK    8  A    between atoms: C12_15  and  N2_16 
REMARK    9  A    between atoms: C20_25  and  N4_26 
REMARK   10  A    between atoms: C23_30  and  N6_31 
ROOT
HETATM    1  C10 UNL     1      25.516   1.775  51.830  1.00  0.00    -0.006 A 
HETATM    2  C11 UNL     1      24.200   1.526  51.524  1.00  0.00     0.043 A 
HETATM    3  C12 UNL     1      23.434   0.770  52.364  1.00  0.00     0.031 A 
HETATM    4  C18 UNL     1      24.067   0.303  53.490  1.00  0.00     0.031 A 
HETATM    5  C19 UNL     1      25.386   0.543  53.814  1.00  0.00     0.034 A 
HETATM    6  C20 UNL     1      26.164   1.319  52.944  1.00  0.00     0.063 A 
ENDROOT
BRANCH   1   7
HETATM    7  C9  UNL     1      26.255   2.597  50.916  1.00  0.00     0.014 C 
HETATM    8  C8  UNL     1      26.313   3.410  49.912  1.00  0.00     0.003 C 
BRANCH   8   9
HETATM    9  C7  UNL     1      27.164   4.192  49.067  1.00  0.00     0.027 C 
HETATM   10  C6  UNL     1      26.980   5.483  49.122  1.00  0.00     0.042 C 
BRANCH  10  11
HETATM   11  N1  UNL     1      26.008   6.096  49.955  1.00  0.00    -0.305 N 
HETATM   12  C5  UNL     1      24.724   6.501  49.459  1.00  0.00     0.364 C 
HETATM   13  O2  UNL     1      24.497   6.289  48.254  1.00  0.00    -0.238 OA
HETATM   14  H10 UNL     1      26.397   6.183  50.931  1.00  0.00     0.171 HD
BRANCH  12  15
HETATM   15  O1  UNL     1      23.903   7.068  50.355  1.00  0.00    -0.303 OA
BRANCH  15  16
HETATM   16  C4  UNL     1      22.921   6.511  51.145  1.00  0.00     0.184 C 
BRANCH  16  17
HETATM   17  C2  UNL     1      23.029   5.083  51.528  1.00  0.00     0.002 C 
HETATM   18  C1  UNL     1      21.575   4.554  51.560  1.00  0.00     0.011 C 
HETATM   19  C3  UNL     1      23.571   4.793  52.900  1.00  0.00     0.011 C 
ENDBRANCH  16  17
ENDBRANCH  15  16
ENDBRANCH  12  15
ENDBRANCH  10  11
BRANCH  10  20
HETATM   20  C23 UNL     1      27.841   6.315  48.260  1.00  0.00     0.323 C 
BRANCH  20  21
HETATM   21  N6  UNL     1      28.250   7.455  49.090  1.00  0.00     0.083 N 
HETATM   22  H33 UNL     1      29.210   7.709  48.747  1.00  0.00     0.313 HD
HETATM   23  H34 UNL     1      27.597   8.249  48.930  1.00  0.00     0.313 HD
ENDBRANCH  20  21
ENDBRANCH  10  20
ENDBRANCH   8   9
ENDBRANCH   1   7
BRANCH   6  24
HETATM   24  N4  UNL     1      27.512   1.441  53.368  1.00  0.00    -0.265 N 
HETATM   25  C21 UNL     1      28.847   0.817  53.389  1.00  0.00     0.199 A 
HETATM   26  C22 UNL     1      29.110   2.063  54.113  1.00  0.00     0.133 A 
HETATM   27  N5  UNL     1      27.935   2.591  54.085  1.00  0.00    -0.187 NA
ENDBRANCH   6  24
BRANCH   3  28
HETATM   28  N2  UNL     1      22.068   0.487  52.089  1.00  0.00    -0.377 N 
HETATM   29  C13 UNL     1      21.493   0.335  50.770  1.00  0.00     0.153 C 
HETATM   30  C14 UNL     1      20.315   1.244  50.525  1.00  0.00     0.291 C 
HETATM   31  N3  UNL     1      19.416   1.304  51.652  1.00  0.00     0.087 N 
HETATM   32  C15 UNL     1      18.377   2.294  51.472  1.00  0.00     0.310 C 
HETATM   33  C16 UNL     1      20.090   1.500  52.906  1.00  0.00     0.291 C 
HETATM   34  C17 UNL     1      21.041   0.311  53.093  1.00  0.00     0.153 C 
ENDBRANCH   3  28
TORSDOF 10
ENDMDL
MODEL 2
REMARK VINA RESULT:      -7.4      1.749      2.422
REMARK  10 active torsions:
REMARK  status: ('A' for Active; 'I' for Inactive)
REMARK    1  A    between atoms: C2_2  and  C4_4 
REMARK    2  A    between atoms: C4_4  and  O1_5 
REMARK    3  A    between atoms: O1_5  and  C5_6 
REMARK       I    between atoms: C5_6  and  N1_8 
REMARK    4  A    between atoms: N1_8  and  C6_9 
REMARK    5  A    between atoms: C6_9  and  C23_30 
REMARK    6  A    between atoms: C7_10  and  C8_11 
REMARK    7  A    between atoms: C9_12  and  C10_13 
REMARK    8  A    between atoms: C12_15  and  N2_16 
REMARK    9  A    between atoms: C20_25  and  N4_26 
REMARK   10  A    between atoms: C23_30  and  N6_31 
ROOT
HETATM    1  C10 UNL     1      24.743   1.289  52.495  1.00  0.00    -0.006 A 
HETATM    2  C11 UNL     1      23.382   1.473  52.491  1.00  0.00     0.043 A 
HETATM    3  C12 UNL     1      22.576   0.623  53.194  1.00  0.00     0.031 A 
HETATM    4  C18 UNL     1      23.218  -0.384  53.871  1.00  0.00     0.031 A 
HETATM    5  C19 UNL     1      24.583  -0.584  53.887  1.00  0.00     0.034 A 
HETATM    6  C20 UNL     1      25.401   0.294  53.162  1.00  0.00     0.063 A 
ENDROOT
BRANCH   1   7
HETATM    7  C9  UNL     1      25.531   2.234  51.757  1.00  0.00     0.014 C 
HETATM    8  C8  UNL     1      25.955   2.734  50.643  1.00  0.00     0.003 C 
BRANCH   8   9
HETATM    9  C7  UNL     1      26.780   3.728  50.027  1.00  0.00     0.027 C 
HETATM   10  C6  UNL     1      26.155   4.595  49.277  1.00  0.00     0.042 C 
BRANCH  10  11
HETATM   11  N1  UNL     1      24.751   4.574  49.069  1.00  0.00    -0.305 N 
HETATM   12  C5  UNL     1      23.844   5.292  49.916  1.00  0.00     0.364 C 
HETATM   13  O2  UNL     1      24.347   5.944  50.851  1.00  0.00    -0.238 OA
HETATM   14  H10 UNL     1      24.536   3.969  48.233  1.00  0.00     0.171 HD
BRANCH  12  15
HETATM   15  O1  UNL     1      22.544   5.185  49.606  1.00  0.00    -0.303 OA
BRANCH  15  16
HETATM   16  C4  UNL     1      21.653   4.159  49.834  1.00  0.00     0.184 C 
BRANCH  16  17
HETATM   17  C2  UNL     1      21.369   3.197  48.742  1.00  0.00     0.002 C 
HETATM   18  C1  UNL     1      22.296   1.987  49.006  1.00  0.00     0.011 C 
HETATM   19  C3  UNL     1      21.710   3.642  47.347  1.00  0.00     0.011 C 
ENDBRANCH  16  17
ENDBRANCH  15  16
ENDBRANCH  12  15
ENDBRANCH  10  11
BRANCH  10  20
HETATM   20  C23 UNL     1      26.980   5.630  48.627  1.00  0.00     0.323 C 
BRANCH  20  21
HETATM   21  N6  UNL     1      27.011   6.759  49.565  1.00  0.00     0.083 N 
HETATM   22  H33 UNL     1      26.541   7.548  49.056  1.00  0.00     0.313 HD
HETATM   23  H34 UNL     1      26.465   6.514  50.416  1.00  0.00     0.313 HD
ENDBRANCH  20  21
ENDBRANCH  10  20
ENDBRANCH   8   9
ENDBRANCH   1   7
BRANCH   6  24
HETATM   24  N4  UNL     1      26.774  -0.057  53.219  1.00  0.00    -0.265 N 
HETATM   25  C21 UNL     1      28.160   0.439  53.295  1.00  0.00     0.199 A 
HETATM   26  C22 UNL     1      28.382  -1.008  53.285  1.00  0.00     0.133 A 
HETATM   27  N5  UNL     1      27.163  -1.423  53.217  1.00  0.00    -0.187 NA
ENDBRANCH   6  24
BRANCH   3  28
HETATM   28  N2  UNL     1      21.162   0.775  53.220  1.00  0.00    -0.377 N 
HETATM   29  C13 UNL     1      20.241  -0.075  53.943  1.00  0.00     0.153 C 
HETATM   30  C14 UNL     1      19.158  -0.658  53.070  1.00  0.00     0.291 C 
HETATM   31  N3  UNL     1      18.607   0.308  52.150  1.00  0.00     0.087 N 
HETATM   32  C15 UNL     1      17.684  -0.294  51.213  1.00  0.00     0.310 C 
HETATM   33  C16 UNL     1      19.611   1.066  51.456  1.00  0.00     0.291 C 
HETATM   34  C17 UNL     1      20.428   1.808  52.521  1.00  0.00     0.153 C 
ENDBRANCH   3  28
TORSDOF 10
ENDMDL
MODEL 3
REMARK VINA RESULT:      -7.2      3.758      9.524
REMARK  10 active torsions:
REMARK  status: ('A' for Active; 'I' for Inactive)
REMARK    1  A    between atoms: C2_2  and  C4_4 
REMARK    2  A    between atoms: C4_4  and  O1_5 
REMARK    3  A    between atoms: O1_5  and  C5_6 
REMARK       I    between atoms: C5_6  and  N1_8 
REMARK    4  A    between atoms: N1_8  and  C6_9 
REMARK    5  A    between atoms: C6_9  and  C23_30 
REMARK    6  A    between atoms: C7_10  and  C8_11 
REMARK    7  A    between atoms: C9_12  and  C10_13 
REMARK    8  A    between atoms: C12_15  and  N2_16 
REMARK    9  A    between atoms: C20_25  and  N4_26 
REMARK   10  A    between atoms: C23_30  and  N6_31 
ROOT
HETATM    1  C10 UNL     1      28.349   5.860  48.362  1.00  0.00    -0.006 A 
HETATM    2  C11 UNL     1      29.509   5.163  48.128  1.00  0.00     0.043 A 
HETATM    3  C12 UNL     1      30.672   5.834  47.878  1.00  0.00     0.031 A 
HETATM    4  C18 UNL     1      30.581   7.205  47.882  1.00  0.00     0.031 A 
HETATM    5  C19 UNL     1      29.426   7.922  48.115  1.00  0.00     0.034 A 
HETATM    6  C20 UNL     1      28.238   7.223  48.369  1.00  0.00     0.063 A 
ENDROOT
BRANCH   1   7
HETATM    7  C9  UNL     1      27.170   5.091  48.642  1.00  0.00     0.014 C 
HETATM    8  C8  UNL     1      26.510   4.249  49.367  1.00  0.00     0.003 C 
BRANCH   8   9
HETATM    9  C7  UNL     1      25.278   3.539  49.535  1.00  0.00     0.027 C 
HETATM   10  C6  UNL     1      25.077   3.031  50.720  1.00  0.00     0.042 C 
BRANCH  10  11
HETATM   11  N1  UNL     1      26.002   3.159  51.788  1.00  0.00    -0.305 N 
HETATM   12  C5  UNL     1      26.877   2.089  52.173  1.00  0.00     0.364 C 
HETATM   13  O2  UNL     1      26.789   1.031  51.520  1.00  0.00    -0.238 OA
HETATM   14  H10 UNL     1      25.917   4.124  52.204  1.00  0.00     0.171 HD
BRANCH  12  15
HETATM   15  O1  UNL     1      27.700   2.345  53.199  1.00  0.00    -0.303 OA
BRANCH  15  16
HETATM   16  C4  UNL     1      28.877   1.736  53.575  1.00  0.00     0.184 C 
BRANCH  16  17
HETATM   17  C2  UNL     1      28.826   0.581  54.501  1.00  0.00     0.002 C 
HETATM   18  C1  UNL     1      29.421  -0.609  53.711  1.00  0.00     0.011 C 
HETATM   19  C3  UNL     1      27.459   0.115  54.922  1.00  0.00     0.011 C 
ENDBRANCH  16  17
ENDBRANCH  15  16
ENDBRANCH  12  15
ENDBRANCH  10  11
BRANCH  10  20
HETATM   20  C23 UNL     1      23.816   2.292  50.921  1.00  0.00     0.323 C 
BRANCH  20  21
HETATM   21  N6  UNL     1      23.238   2.825  52.161  1.00  0.00     0.083 N 
HETATM   22  H33 UNL     1      23.298   2.035  52.850  1.00  0.00     0.313 HD
HETATM   23  H34 UNL     1      23.813   3.626  52.492  1.00  0.00     0.313 HD
ENDBRANCH  20  21
ENDBRANCH  10  20
ENDBRANCH   8   9
ENDBRANCH   1   7
BRANCH   6  24
HETATM   24  N4  UNL     1      27.119   8.077  48.536  1.00  0.00    -0.265 N 
HETATM   25  C21 UNL     1      25.652   8.162  48.653  1.00  0.00     0.199 A 
HETATM   26  C22 UNL     1      26.023   9.573  48.777  1.00  0.00     0.133 A 
HETATM   27  N5  UNL     1      27.304   9.479  48.672  1.00  0.00    -0.187 NA
ENDBRANCH   6  24
BRANCH   3  28
HETATM   28  N2  UNL     1      31.896   5.155  47.632  1.00  0.00    -0.377 N 
HETATM   29  C13 UNL     1      33.217   5.692  47.877  1.00  0.00     0.153 C 
HETATM   30  C14 UNL     1      34.111   5.654  46.663  1.00  0.00     0.291 C 
HETATM   31  N3  UNL     1      34.011   4.410  45.939  1.00  0.00     0.087 N 
HETATM   32  C15 UNL     1      34.748   4.439  44.695  1.00  0.00     0.310 C 
HETATM   33  C16 UNL     1      32.655   3.992  45.715  1.00  0.00     0.291 C 
HETATM   34  C17 UNL     1      32.006   3.816  47.093  1.00  0.00     0.153 C 
ENDBRANCH   3  28
TORSDOF 10
ENDMDL
MODEL 4
REMARK VINA RESULT:      -7.0      2.844      5.817
REMARK  10 active torsions:
REMARK  status: ('A' for Active; 'I' for Inactive)
REMARK    1  A    between atoms: C2_2  and  C4_4 
REMARK    2  A    between atoms: C4_4  and  O1_5 
REMARK    3  A    between atoms: O1_5  and  C5_6 
REMARK       I    between atoms: C5_6  and  N1_8 
REMARK    4  A    between atoms: N1_8  and  C6_9 
REMARK    5  A    between atoms: C6_9  and  C23_30 
REMARK    6  A    between atoms: C7_10  and  C8_11 
REMARK    7  A    between atoms: C9_12  and  C10_13 
REMARK    8  A    between atoms: C12_15  and  N2_16 
REMARK    9  A    between atoms: C20_25  and  N4_26 
REMARK   10  A    between atoms: C23_30  and  N6_31 
ROOT
HETATM    1  C10 UNL     1      24.926   3.526  50.406  1.00  0.00    -0.006 A 
HETATM    2  C11 UNL     1      23.667   3.101  50.756  1.00  0.00     0.043 A 
HETATM    3  C12 UNL     1      22.572   3.613  50.120  1.00  0.00     0.031 A 
HETATM    4  C18 UNL     1      22.830   4.545  49.145  1.00  0.00     0.031 A 
HETATM    5  C19 UNL     1      24.086   4.983  48.781  1.00  0.00     0.034 A 
HETATM    6  C20 UNL     1      25.204   4.453  49.441  1.00  0.00     0.063 A 
ENDROOT
BRANCH   1   7
HETATM    7  C9  UNL     1      26.032   2.928  51.098  1.00  0.00     0.014 C 
HETATM    8  C8  UNL     1      26.523   2.255  52.086  1.00  0.00     0.003 C 
BRANCH   8   9
HETATM    9  C7  UNL     1      27.705   1.704  52.674  1.00  0.00     0.027 C 
HETATM   10  C6  UNL     1      27.528   1.045  53.787  1.00  0.00     0.042 C 
BRANCH  10  11
HETATM   11  N1  UNL     1      26.257   0.872  54.394  1.00  0.00    -0.305 N 
HETATM   12  C5  UNL     1      25.570  -0.387  54.379  1.00  0.00     0.364 C 
HETATM   13  O2  UNL     1      26.143  -1.332  53.806  1.00  0.00    -0.238 OA
HETATM   14  H10 UNL     1      25.951   1.786  54.821  1.00  0.00     0.171 HD
BRANCH  12  15
HETATM   15  O1  UNL     1      24.376  -0.410  54.990  1.00  0.00    -0.303 OA
BRANCH  15  16
HETATM   16  C4  UNL     1      23.464  -1.432  55.132  1.00  0.00     0.184 C 
BRANCH  16  17
HETATM   17  C2  UNL     1      22.140  -1.312  54.477  1.00  0.00     0.002 C 
HETATM   18  C1  UNL     1      22.441  -1.027  52.986  1.00  0.00     0.011 C 
HETATM   19  C3  UNL     1      21.272  -0.165  54.918  1.00  0.00     0.011 C 
ENDBRANCH  16  17
ENDBRANCH  15  16
ENDBRANCH  12  15
ENDBRANCH  10  11
BRANCH  10  20
HETATM   20  C23 UNL     1      28.730   0.468  54.417  1.00  0.00     0.323 C 
BRANCH  20  21
HETATM   21  N6  UNL     1      29.854   0.853  53.555  1.00  0.00     0.083 N 
HETATM   22  H33 UNL     1      29.988   1.881  53.726  1.00  0.00     0.313 HD
HETATM   23  H34 UNL     1      30.707   0.334  53.849  1.00  0.00     0.313 HD
ENDBRANCH  20  21
ENDBRANCH  10  20
ENDBRANCH   8   9
ENDBRANCH   1   7
BRANCH   6  24
HETATM   24  N4  UNL     1      26.425   5.028  49.008  1.00  0.00    -0.265 N 
HETATM   25  C21 UNL     1      27.812   4.772  48.580  1.00  0.00     0.199 A 
HETATM   26  C22 UNL     1      27.756   6.232  48.485  1.00  0.00     0.133 A 
HETATM   27  N5  UNL     1      26.541   6.436  48.864  1.00  0.00    -0.187 NA
ENDBRANCH   6  24
BRANCH   3  28
HETATM   28  N2  UNL     1      21.250   3.202  50.447  1.00  0.00    -0.377 N 
HETATM   29  C13 UNL     1      20.597   3.417  51.719  1.00  0.00     0.153 C 
HETATM   30  C14 UNL     1      20.070   2.148  52.341  1.00  0.00     0.291 C 
HETATM   31  N3  UNL     1      19.418   1.290  51.382  1.00  0.00     0.087 N 
HETATM   32  C15 UNL     1      19.056   0.010  51.950  1.00  0.00     0.310 C 
HETATM   33  C16 UNL     1      20.174   1.112  50.173  1.00  0.00     0.291 C 
HETATM   34  C17 UNL     1      20.356   2.502  49.550  1.00  0.00     0.153 C 
ENDBRANCH   3  28
TORSDOF 10
ENDMDL
MODEL 5
REMARK VINA RESULT:      -6.9      1.556      2.077
REMARK  10 active torsions:
REMARK  status: ('A' for Active; 'I' for Inactive)
REMARK    1  A    between atoms: C2_2  and  C4_4 
REMARK    2  A    between atoms: C4_4  and  O1_5 
REMARK    3  A    between atoms: O1_5  and  C5_6 
REMARK       I    between atoms: C5_6  and  N1_8 
REMARK    4  A    between atoms: N1_8  and  C6_9 
REMARK    5  A    between atoms: C6_9  and  C23_30 
REMARK    6  A    between atoms: C7_10  and  C8_11 
REMARK    7  A    between atoms: C9_12  and  C10_13 
REMARK    8  A    between atoms: C12_15  and  N2_16 
REMARK    9  A    between atoms: C20_25  and  N4_26 
REMARK   10  A    between atoms: C23_30  and  N6_31 
ROOT
HETATM    1  C10 UNL     1      24.624   2.485  50.686  1.00  0.00    -0.006 A 
HETATM    2  C11 UNL     1      23.348   2.740  50.247  1.00  0.00     0.043 A 
HETATM    3  C12 UNL     1      22.278   2.202  50.905  1.00  0.00     0.031 A 
HETATM    4  C18 UNL     1      22.580   1.420  51.993  1.00  0.00     0.031 A 
HETATM    5  C19 UNL     1      23.854   1.153  52.448  1.00  0.00     0.034 A 
HETATM    6  C20 UNL     1      24.945   1.710  51.765  1.00  0.00     0.063 A 
ENDROOT
BRANCH   1   7
HETATM    7  C9  UNL     1      25.699   3.102  49.963  1.00  0.00     0.014 C 
HETATM    8  C8  UNL     1      26.259   4.135  49.425  1.00  0.00     0.003 C 
BRANCH   8   9
HETATM    9  C7  UNL     1      27.391   4.629  48.702  1.00  0.00     0.027 C 
HETATM   10  C6  UNL     1      27.593   5.916  48.778  1.00  0.00     0.042 C 
BRANCH  10  11
HETATM   11  N1  UNL     1      26.759   6.791  49.523  1.00  0.00    -0.305 N 
HETATM   12  C5  UNL     1      25.666   7.499  48.921  1.00  0.00     0.364 C 
HETATM   13  O2  UNL     1      25.477   7.309  47.705  1.00  0.00    -0.238 OA
HETATM   14  H10 UNL     1      27.087   6.809  50.525  1.00  0.00     0.171 HD
BRANCH  12  15
HETATM   15  O1  UNL     1      24.961   8.292  49.740  1.00  0.00    -0.303 OA
BRANCH  15  16
HETATM   16  C4  UNL     1      24.005   7.980  50.682  1.00  0.00     0.184 C 
BRANCH  16  17
HETATM   17  C2  UNL     1      23.424   6.617  50.694  1.00  0.00     0.002 C 
HETATM   18  C1  UNL     1      21.890   6.823  50.720  1.00  0.00     0.011 C 
HETATM   19  C3  UNL     1      23.716   5.771  51.903  1.00  0.00     0.011 C 
ENDBRANCH  16  17
ENDBRANCH  15  16
ENDBRANCH  12  15
ENDBRANCH  10  11
BRANCH  10  20
HETATM   20  C23 UNL     1      28.752   6.453  48.041  1.00  0.00     0.323 C 
BRANCH  20  21
HETATM   21  N6  UNL     1      29.562   7.164  49.038  1.00  0.00     0.083 N 
HETATM   22  H33 UNL     1      30.556   7.034  48.724  1.00  0.00     0.313 HD
HETATM   23  H34 UNL     1      29.317   8.176  49.021  1.00  0.00     0.313 HD
ENDBRANCH  20  21
ENDBRANCH  10  20
ENDBRANCH   8   9
ENDBRANCH   1   7
BRANCH   6  24
HETATM   24  N4  UNL     1      26.194   1.312  52.304  1.00  0.00    -0.265 N 
HETATM   25  C21 UNL     1      27.484   1.760  52.859  1.00  0.00     0.199 A 
HETATM   26  C22 UNL     1      27.637   0.306  52.939  1.00  0.00     0.133 A 
HETATM   27  N5  UNL     1      26.504  -0.066  52.450  1.00  0.00    -0.187 NA
ENDBRANCH   6  24
BRANCH   3  28
HETATM   28  N2  UNL     1      20.940   2.439  50.487  1.00  0.00    -0.377 N 
HETATM   29  C13 UNL     1      20.100   3.525  50.943  1.00  0.00     0.153 C 
HETATM   30  C14 UNL     1      18.781   3.062  51.508  1.00  0.00     0.291 C 
HETATM   31  N3  UNL     1      18.171   2.023  50.713  1.00  0.00     0.087 N 
HETATM   32  C15 UNL     1      16.990   1.475  51.342  1.00  0.00     0.310 C 
HETATM   33  C16 UNL     1      19.085   0.975  50.353  1.00  0.00     0.291 C 
HETATM   34  C17 UNL     1      20.212   1.623  49.540  1.00  0.00     0.153 C 
ENDBRANCH   3  28
TORSDOF 10
ENDMDL
MODEL 6
REMARK VINA RESULT:      -6.8      2.947      7.999
REMARK  10 active torsions:
REMARK  status: ('A' for Active; 'I' for Inactive)
REMARK    1  A    between atoms: C2_2  and  C4_4 
REMARK    2  A    between atoms: C4_4  and  O1_5 
REMARK    3  A    between atoms: O1_5  and  C5_6 
REMARK       I    between atoms: C5_6  and  N1_8 
REMARK    4  A    between atoms: N1_8  and  C6_9 
REMARK    5  A    between atoms: C6_9  and  C23_30 
REMARK    6  A    between atoms: C7_10  and  C8_11 
REMARK    7  A    between atoms: C9_12  and  C10_13 
REMARK    8  A    between atoms: C12_15  and  N2_16 
REMARK    9  A    between atoms: C20_25  and  N4_26 
REMARK   10  A    between atoms: C23_30  and  N6_31 
ROOT
HETATM    1  C10 UNL     1      25.955   4.035  49.659  1.00  0.00    -0.006 A 
HETATM    2  C11 UNL     1      26.822   5.022  49.256  1.00  0.00     0.043 A 
HETATM    3  C12 UNL     1      26.339   6.165  48.685  1.00  0.00     0.031 A 
HETATM    4  C18 UNL     1      24.974   6.236  48.556  1.00  0.00     0.031 A 
HETATM    5  C19 UNL     1      24.088   5.256  48.955  1.00  0.00     0.034 A 
HETATM    6  C20 UNL     1      24.594   4.086  49.538  1.00  0.00     0.063 A 
ENDROOT
BRANCH   1   7
HETATM    7  C9  UNL     1      26.529   2.873  50.273  1.00  0.00     0.014 C 
HETATM    8  C8  UNL     1      26.585   2.004  51.229  1.00  0.00     0.003 C 
BRANCH   8   9
HETATM    9  C7  UNL     1      27.242   0.837  51.733  1.00  0.00     0.027 C 
HETATM   10  C6  UNL     1      26.464  -0.054  52.286  1.00  0.00     0.042 C 
BRANCH  10  11
HETATM   11  N1  UNL     1      25.058   0.101  52.392  1.00  0.00    -0.305 N 
HETATM   12  C5  UNL     1      24.357  -0.117  53.625  1.00  0.00     0.364 C 
HETATM   13  O2  UNL     1      25.044  -0.449  54.609  1.00  0.00    -0.238 OA
HETATM   14  H10 UNL     1      24.670   0.384  51.453  1.00  0.00     0.171 HD
BRANCH  12  15
HETATM   15  O1  UNL     1      23.029   0.064  53.583  1.00  0.00    -0.303 OA
BRANCH  15  16
HETATM   16  C4  UNL     1      22.034  -0.735  53.064  1.00  0.00     0.184 C 
BRANCH  16  17
HETATM   17  C2  UNL     1      20.664  -0.632  53.620  1.00  0.00     0.002 C 
HETATM   18  C1  UNL     1      19.805  -0.014  52.491  1.00  0.00     0.011 C 
HETATM   19  C3  UNL     1      20.481   0.295  54.791  1.00  0.00     0.011 C 
ENDBRANCH  16  17
ENDBRANCH  15  16
ENDBRANCH  12  15
ENDBRANCH  10  11
BRANCH  10  20
HETATM   20  C23 UNL     1      27.114  -1.267  52.818  1.00  0.00     0.323 C 
BRANCH  20  21
HETATM   21  N6  UNL     1      27.932  -0.815  53.950  1.00  0.00     0.083 N 
HETATM   22  H33 UNL     1      27.701   0.203  54.063  1.00  0.00     0.313 HD
HETATM   23  H34 UNL     1      27.653  -1.337  54.806  1.00  0.00     0.313 HD
ENDBRANCH  20  21
ENDBRANCH  10  20
ENDBRANCH   8   9
ENDBRANCH   1   7
BRANCH   6  24
HETATM   24  N4  UNL     1      23.583   3.142  49.850  1.00  0.00    -0.265 N 
HETATM   25  C21 UNL     1      22.711   2.071  49.335  1.00  0.00     0.199 A 
HETATM   26  C22 UNL     1      22.312   2.102  50.743  1.00  0.00     0.133 A 
HETATM   27  N5  UNL     1      23.082   3.042  51.174  1.00  0.00    -0.187 NA
ENDBRANCH   6  24
BRANCH   3  28
HETATM   28  N2  UNL     1      27.198   7.213  48.254  1.00  0.00    -0.377 N 
HETATM   29  C13 UNL     1      28.431   7.038  47.519  1.00  0.00     0.153 C 
HETATM   30  C14 UNL     1      29.618   7.692  48.181  1.00  0.00     0.291 C 
HETATM   31  N3  UNL     1      29.315   9.008  48.688  1.00  0.00     0.087 N 
HETATM   32  C15 UNL     1      30.406   9.563  49.457  1.00  0.00     0.310 C 
HETATM   33  C16 UNL     1      28.090   9.058  49.438  1.00  0.00     0.291 C 
HETATM   34  C17 UNL     1      26.966   8.622  48.490  1.00  0.00     0.153 C 
ENDBRANCH   3  28
TORSDOF 10
ENDMDL
MODEL 7
REMARK VINA RESULT:      -6.7      3.200      6.926
REMARK  10 active torsions:
REMARK  status: ('A' for Active; 'I' for Inactive)
REMARK    1  A    between atoms: C2_2  and  C4_4 
REMARK    2  A    between atoms: C4_4  and  O1_5 
REMARK    3  A    between atoms: O1_5  and  C5_6 
REMARK       I    between atoms: C5_6  and  N1_8 
REMARK    4  A    between atoms: N1_8  and  C6_9 
REMARK    5  A    between atoms: C6_9  and  C23_30 
REMARK    6  A    between atoms: C7_10  and  C8_11 
REMARK    7  A    between atoms: C9_12  and  C10_13 
REMARK    8  A    between atoms: C12_15  and  N2_16 
REMARK    9  A    between atoms: C20_25  and  N4_26 
REMARK   10  A    between atoms: C23_30  and  N6_31 
ROOT
HETATM    1  C10 UNL     1      25.009   3.400  50.509  1.00  0.00    -0.006 A 
HETATM    2  C11 UNL     1      25.904   2.915  51.431  1.00  0.00     0.043 A 
HETATM    3  C12 UNL     1      25.598   1.800  52.159  1.00  0.00     0.031 A 
HETATM    4  C18 UNL     1      24.374   1.236  51.898  1.00  0.00     0.031 A 
HETATM    5  C19 UNL     1      23.464   1.709  50.976  1.00  0.00     0.034 A 
HETATM    6  C20 UNL     1      23.787   2.854  50.235  1.00  0.00     0.063 A 
ENDROOT
BRANCH   1   7
HETATM    7  C9  UNL     1      25.406   4.560  49.762  1.00  0.00     0.014 C 
HETATM    8  C8  UNL     1      26.303   5.272  49.162  1.00  0.00     0.003 C 
BRANCH   8   9
HETATM    9  C7  UNL     1      26.567   6.468  48.421  1.00  0.00     0.027 C 
HETATM   10  C6  UNL     1      27.828   6.761  48.255  1.00  0.00     0.042 C 
BRANCH  10  11
HETATM   11  N1  UNL     1      28.886   5.965  48.765  1.00  0.00    -0.305 N 
HETATM   12  C5  UNL     1      30.128   5.806  48.065  1.00  0.00     0.364 C 
HETATM   13  O2  UNL     1      30.240   6.406  46.979  1.00  0.00    -0.238 OA
HETATM   14  H10 UNL     1      28.590   5.549  49.688  1.00  0.00     0.171 HD
BRANCH  12  15
HETATM   15  O1  UNL     1      31.041   5.026  48.661  1.00  0.00    -0.303 OA
BRANCH  15  16
HETATM   16  C4  UNL     1      32.311   4.671  48.262  1.00  0.00     0.184 C 
BRANCH  16  17
HETATM   17  C2  UNL     1      32.479   3.541  47.318  1.00  0.00     0.002 C 
HETATM   18  C1  UNL     1      33.804   2.854  47.727  1.00  0.00     0.011 C 
HETATM   19  C3  UNL     1      32.665   3.897  45.868  1.00  0.00     0.011 C 
ENDBRANCH  16  17
ENDBRANCH  15  16
ENDBRANCH  12  15
ENDBRANCH  10  11
BRANCH  10  20
HETATM   20  C23 UNL     1      28.131   7.989  47.496  1.00  0.00     0.323 C 
BRANCH  20  21
HETATM   21  N6  UNL     1      28.764   8.903  48.455  1.00  0.00     0.083 N 
HETATM   22  H33 UNL     1      27.967   9.414  48.910  1.00  0.00     0.313 HD
HETATM   23  H34 UNL     1      29.280   8.348  49.168  1.00  0.00     0.313 HD
ENDBRANCH  20  21
ENDBRANCH  10  20
ENDBRANCH   8   9
ENDBRANCH   1   7
BRANCH   6  24
HETATM   24  N4  UNL     1      22.744   3.263  49.366  1.00  0.00    -0.265 N 
HETATM   25  C21 UNL     1      21.497   4.038  49.233  1.00  0.00     0.199 A 
HETATM   26  C22 UNL     1      21.649   3.521  47.872  1.00  0.00     0.133 A 
HETATM   27  N5  UNL     1      22.739   2.846  48.008  1.00  0.00    -0.187 NA
ENDBRANCH   6  24
BRANCH   3  28
HETATM   28  N2  UNL     1      26.493   1.261  53.123  1.00  0.00    -0.377 N 
HETATM   29  C13 UNL     1      27.657   1.935  53.656  1.00  0.00     0.153 C 
HETATM   30  C14 UNL     1      28.929   1.138  53.503  1.00  0.00     0.291 C 
HETATM   31  N3  UNL     1      28.750  -0.258  53.822  1.00  0.00     0.087 N 
HETATM   32  C15 UNL     1      29.928  -1.042  53.523  1.00  0.00     0.310 C 
HETATM   33  C16 UNL     1      27.587  -0.836  53.206  1.00  0.00     0.291 C 
HETATM   34  C17 UNL     1      26.373  -0.052  53.719  1.00  0.00     0.153 C 
ENDBRANCH   3  28
TORSDOF 10
ENDMDL
MODEL 8
REMARK VINA RESULT:      -6.6      2.709      8.824
REMARK  10 active torsions:
REMARK  status: ('A' for Active; 'I' for Inactive)
REMARK    1  A    between atoms: C2_2  and  C4_4 
REMARK    2  A    between atoms: C4_4  and  O1_5 
REMARK    3  A    between atoms: O1_5  and  C5_6 
REMARK       I    between atoms: C5_6  and  N1_8 
REMARK    4  A    between atoms: N1_8  and  C6_9 
REMARK    5  A    between atoms: C6_9  and  C23_30 
REMARK    6  A    between atoms: C7_10  and  C8_11 
REMARK    7  A    between atoms: C9_12  and  C10_13 
REMARK    8  A    between atoms: C12_15  and  N2_16 
REMARK    9  A    between atoms: C20_25  and  N4_26 
REMARK   10  A    between atoms: C23_30  and  N6_31 
ROOT
HETATM    1  C10 UNL     1      25.361   5.919  49.157  1.00  0.00    -0.006 A 
HETATM    2  C11 UNL     1      26.668   5.715  48.787  1.00  0.00     0.043 A 
HETATM    3  C12 UNL     1      27.367   6.712  48.168  1.00  0.00     0.031 A 
HETATM    4  C18 UNL     1      26.677   7.881  47.959  1.00  0.00     0.031 A 
HETATM    5  C19 UNL     1      25.366   8.104  48.324  1.00  0.00     0.034 A 
HETATM    6  C20 UNL     1      24.658   7.074  48.958  1.00  0.00     0.063 A 
ENDROOT
BRANCH   1   7
HETATM    7  C9  UNL     1      24.696   4.837  49.825  1.00  0.00     0.014 C 
HETATM    8  C8  UNL     1      24.223   4.280  50.892  1.00  0.00     0.003 C 
BRANCH   8   9
HETATM    9  C7  UNL     1      23.549   3.141  51.436  1.00  0.00     0.027 C 
HETATM   10  C6  UNL     1      24.244   2.419  52.271  1.00  0.00     0.042 C 
BRANCH  10  11
HETATM   11  N1  UNL     1      25.583   2.721  52.633  1.00  0.00    -0.305 N 
HETATM   12  C5  UNL     1      26.705   2.087  52.003  1.00  0.00     0.364 C 
HETATM   13  O2  UNL     1      26.451   1.253  51.114  1.00  0.00    -0.238 OA
HETATM   14  H10 UNL     1      25.577   3.446  53.398  1.00  0.00     0.171 HD
BRANCH  12  15
HETATM   15  O1  UNL     1      27.914   2.466  52.442  1.00  0.00    -0.303 OA
BRANCH  15  16
HETATM   16  C4  UNL     1      28.704   1.946  53.444  1.00  0.00     0.184 C 
BRANCH  16  17
HETATM   17  C2  UNL     1      28.780   0.476  53.610  1.00  0.00     0.002 C 
HETATM   18  C1  UNL     1      28.288   0.197  55.051  1.00  0.00     0.011 C 
HETATM   19  C3  UNL     1      30.152  -0.139  53.550  1.00  0.00     0.011 C 
ENDBRANCH  16  17
ENDBRANCH  15  16
ENDBRANCH  12  15
ENDBRANCH  10  11
BRANCH  10  20
HETATM   20  C23 UNL     1      23.574   1.237  52.846  1.00  0.00     0.323 C 
BRANCH  20  21
HETATM   21  N6  UNL     1      22.724   0.702  51.775  1.00  0.00     0.083 N 
HETATM   22  H33 UNL     1      22.315   1.547  51.305  1.00  0.00     0.313 HD
HETATM   23  H34 UNL     1      23.314   0.175  51.099  1.00  0.00     0.313 HD
ENDBRANCH  20  21
ENDBRANCH  10  20
ENDBRANCH   8   9
ENDBRANCH   1   7
BRANCH   6  24
HETATM   24  N4  UNL     1      23.308   7.416  49.228  1.00  0.00    -0.265 N 
HETATM   25  C21 UNL     1      21.946   7.537  48.680  1.00  0.00     0.199 A 
HETATM   26  C22 UNL     1      21.725   7.947  50.068  1.00  0.00     0.133 A 
HETATM   27  N5  UNL     1      22.924   7.836  50.528  1.00  0.00    -0.187 NA
ENDBRANCH   6  24
BRANCH   3  28
HETATM   28  N2  UNL     1      28.721   6.547  47.768  1.00  0.00    -0.377 N 
HETATM   29  C13 UNL     1      29.580   5.447  48.149  1.00  0.00     0.153 C 
HETATM   30  C14 UNL     1      30.871   5.893  48.788  1.00  0.00     0.291 C 
HETATM   31  N3  UNL     1      31.471   7.013  48.105  1.00  0.00     0.087 N 
HETATM   32  C15 UNL     1      32.620   7.534  48.811  1.00  0.00     0.310 C 
HETATM   33  C16 UNL     1      30.536   8.065  47.813  1.00  0.00     0.291 C 
HETATM   34  C17 UNL     1      29.449   7.462  46.915  1.00  0.00     0.153 C 
ENDBRANCH   3  28
TORSDOF 10
ENDMDL
MODEL 9
REMARK VINA RESULT:      -6.5      2.345      5.419
REMARK  10 active torsions:
REMARK  status: ('A' for Active; 'I' for Inactive)
REMARK    1  A    between atoms: C2_2  and  C4_4 
REMARK    2  A    between atoms: C4_4  and  O1_5 
REMARK    3  A    between atoms: O1_5  and  C5_6 
REMARK       I    between atoms: C5_6  and  N1_8 
REMARK    4  A    between atoms: N1_8  and  C6_9 
REMARK    5  A    between atoms: C6_9  and  C23_30 
REMARK    6  A    between atoms: C7_10  and  C8_11 
REMARK    7  A    between atoms: C9_12  and  C10_13 
REMARK    8  A    between atoms: C12_15  and  N2_16 
REMARK    9  A    between atoms: C20_25  and  N4_26 
REMARK   10  A    between atoms: C23_30  and  N6_31 
ROOT
HETATM    1  C10 UNL     1      25.365   3.276  50.268  1.00  0.00    -0.006 A 
HETATM    2  C11 UNL     1      26.129   2.643  51.217  1.00  0.00     0.043 A 
HETATM    3  C12 UNL     1      25.572   1.682  52.013  1.00  0.00     0.031 A 
HETATM    4  C18 UNL     1      24.243   1.419  51.789  1.00  0.00     0.031 A 
HETATM    5  C19 UNL     1      23.461   2.044  50.841  1.00  0.00     0.034 A 
HETATM    6  C20 UNL     1      24.041   3.030  50.030  1.00  0.00     0.063 A 
ENDROOT
BRANCH   1   7
HETATM    7  C9  UNL     1      26.020   4.257  49.451  1.00  0.00     0.014 C 
HETATM    8  C8  UNL     1      26.359   5.477  49.193  1.00  0.00     0.003 C 
BRANCH   8   9
HETATM    9  C7  UNL     1      27.051   6.352  48.297  1.00  0.00     0.027 C 
HETATM   10  C6  UNL     1      26.387   7.407  47.912  1.00  0.00     0.042 C 
BRANCH  10  11
HETATM   11  N1  UNL     1      25.064   7.692  48.339  1.00  0.00    -0.305 N 
HETATM   12  C5  UNL     1      24.788   8.600  49.415  1.00  0.00     0.364 C 
HETATM   13  O2  UNL     1      25.770   9.136  49.962  1.00  0.00    -0.238 OA
HETATM   14  H10 UNL     1      24.385   7.140  47.750  1.00  0.00     0.171 HD
BRANCH  12  15
HETATM   15  O1  UNL     1      23.493   8.776  49.715  1.00  0.00    -0.303 OA
BRANCH  15  16
HETATM   16  C4  UNL     1      22.370   8.137  49.237  1.00  0.00     0.184 C 
BRANCH  16  17
HETATM   17  C2  UNL     1      21.306   7.742  50.191  1.00  0.00     0.002 C 
HETATM   18  C1  UNL     1      21.900   6.570  51.009  1.00  0.00     0.011 C 
HETATM   19  C3  UNL     1      20.040   7.190  49.597  1.00  0.00     0.011 C 
ENDBRANCH  16  17
ENDBRANCH  15  16
ENDBRANCH  12  15
ENDBRANCH  10  11
BRANCH  10  20
HETATM   20  C23 UNL     1      27.075   8.326  46.986  1.00  0.00     0.323 C 
BRANCH  20  21
HETATM   21  N6  UNL     1      28.030   9.078  47.810  1.00  0.00     0.083 N 
HETATM   22  H33 UNL     1      28.449   9.789  47.159  1.00  0.00     0.313 HD
HETATM   23  H34 UNL     1      27.518   9.561  48.576  1.00  0.00     0.313 HD
ENDBRANCH  20  21
ENDBRANCH  10  20
ENDBRANCH   8   9
ENDBRANCH   1   7
BRANCH   6  24
HETATM   24  N4  UNL     1      23.115   3.628  49.139  1.00  0.00    -0.265 N 
HETATM   25  C21 UNL     1      22.916   4.623  48.069  1.00  0.00     0.199 A 
HETATM   26  C22 UNL     1      21.564   4.074  48.194  1.00  0.00     0.133 A 
HETATM   27  N5  UNL     1      21.758   3.211  49.131  1.00  0.00    -0.187 NA
ENDBRANCH   6  24
BRANCH   3  28
HETATM   28  N2  UNL     1      26.324   0.999  53.008  1.00  0.00    -0.377 N 
HETATM   29  C13 UNL     1      27.346   1.594  53.843  1.00  0.00     0.153 C 
HETATM   30  C14 UNL     1      28.667   0.871  53.774  1.00  0.00     0.291 C 
HETATM   31  N3  UNL     1      28.517  -0.564  53.808  1.00  0.00     0.087 N 
HETATM   32  C15 UNL     1      29.770  -1.251  53.584  1.00  0.00     0.310 C 
HETATM   33  C16 UNL     1      27.505  -1.049  52.910  1.00  0.00     0.291 C 
HETATM   34  C17 UNL     1      26.181  -0.403  53.335  1.00  0.00     0.153 C 
ENDBRANCH   3  28
TORSDOF 10
ENDMDL
