MODEL 1
REMARK VINA RESULT:      -6.6      0.000      0.000
REMARK  12 active torsions:
REMARK  status: ('A' for Active; 'I' for Inactive)
REMARK    1  A    between atoms: C3_3  and  C4_5 
REMARK    2  A    between atoms: C4_5  and  C5_6 
REMARK    3  A    between atoms: C5_6  and  C6_7 
REMARK    4  A    between atoms: C9_12  and  C10_13 
REMARK    5  A    between atoms: C10_13  and  C11_14 
REMARK    6  A    between atoms: C11_14  and  C12_15 
REMARK    7  A    between atoms: C12_15  and  N3_16 
REMARK    8  A    between atoms: N3_16  and  C13_17 
REMARK    9  A    between atoms: C13_17  and  N4_19 
REMARK   10  A    between atoms: N4_19  and  C14_20 
REMARK   11  A    between atoms: C14_20  and  C15_21 
REMARK   12  A    between atoms: C15_21  and  N5_22 
ROOT
HETATM    1  C12 UNL     1      23.424   3.312  52.610  1.00  0.00     0.090 C 
ENDROOT
BRANCH   1   2
HETATM    2  C11 UNL     1      22.594   2.314  52.387  1.00  0.00     0.019 C 
BRANCH   2   3
HETATM    3  C10 UNL     1      22.767   0.900  52.221  1.00  0.00     0.034 C 
BRANCH   3   4
HETATM    4  C9  UNL     1      22.408   0.032  53.127  1.00  0.00     0.069 A 
HETATM    5  C6  UNL     1      21.199  -0.562  53.366  1.00  0.00     0.007 A 
HETATM    6  C7  UNL     1      21.027  -1.458  54.408  1.00  0.00     0.131 A 
HETATM    7  N1  UNL     1      22.058  -1.750  55.196  1.00  0.00    -0.253 NA
HETATM    8  C8  UNL     1      23.243  -1.184  54.979  1.00  0.00     0.233 A 
HETATM    9  N2  UNL     1      23.368  -0.342  53.984  1.00  0.00    -0.241 NA
BRANCH   5  10
HETATM   10  C5  UNL     1      20.238  -0.212  52.532  1.00  0.00    -0.006 C 
BRANCH  10  11
HETATM   11  C4  UNL     1      18.889  -0.069  51.980  1.00  0.00     0.075 C 
BRANCH  11  12
HETATM   12  C3  UNL     1      18.853   0.744  50.763  1.00  0.00    -0.005 A 
HETATM   13  C2  UNL     1      18.706   1.405  49.628  1.00  0.00     0.106 A 
HETATM   14  C1  UNL     1      19.885   2.288  49.817  1.00  0.00     0.031 C 
HETATM   15 CL1  UNL     1      17.392   0.032  49.965  1.00  0.00    -0.181 Cl
ENDBRANCH  11  12
ENDBRANCH  10  11
ENDBRANCH   5  10
ENDBRANCH   3   4
ENDBRANCH   2   3
ENDBRANCH   1   2
BRANCH   1  16
HETATM   16  N3  UNL     1      24.130   4.420  52.081  1.00  0.00    -0.343 N 
HETATM   17  H13 UNL     1      24.246   5.321  52.645  1.00  0.00     0.167 HD
BRANCH  16  18
HETATM   18  C13 UNL     1      24.752   4.488  50.798  1.00  0.00     0.171 C 
HETATM   19  S1  UNL     1      23.763   5.074  49.627  1.00  0.00    -0.041 SA
BRANCH  18  20
HETATM   20  N4  UNL     1      26.092   4.083  50.580  1.00  0.00    -0.365 N 
HETATM   21  H14 UNL     1      26.796   4.848  50.440  1.00  0.00     0.161 HD
BRANCH  20  22
HETATM   22  C14 UNL     1      26.451   2.651  50.546  1.00  0.00     0.152 C 
BRANCH  22  23
HETATM   23  C15 UNL     1      27.015   2.280  51.877  1.00  0.00     0.292 C 
BRANCH  23  24
HETATM   24  N5  UNL     1      26.394   1.198  52.541  1.00  0.00     0.094 N 
HETATM   25  C16 UNL     1      26.468   1.299  53.971  1.00  0.00     0.298 C 
HETATM   26  C17 UNL     1      27.396   0.245  54.511  1.00  0.00     0.198 C 
HETATM   27  O1  UNL     1      26.769  -0.972  54.286  1.00  0.00    -0.388 OA
HETATM   28  C18 UNL     1      26.598  -1.230  52.958  1.00  0.00     0.198 C 
HETATM   29  C19 UNL     1      26.770  -0.070  52.023  1.00  0.00     0.298 C 
ENDBRANCH  23  24
ENDBRANCH  22  23
ENDBRANCH  20  22
ENDBRANCH  18  20
ENDBRANCH  16  18
ENDBRANCH   1  16
TORSDOF 12
ENDMDL
MODEL 2
REMARK VINA RESULT:      -6.6      3.006      5.459
REMARK  12 active torsions:
REMARK  status: ('A' for Active; 'I' for Inactive)
REMARK    1  A    between atoms: C3_3  and  C4_5 
REMARK    2  A    between atoms: C4_5  and  C5_6 
REMARK    3  A    between atoms: C5_6  and  C6_7 
REMARK    4  A    between atoms: C9_12  and  C10_13 
REMARK    5  A    between atoms: C10_13  and  C11_14 
REMARK    6  A    between atoms: C11_14  and  C12_15 
REMARK    7  A    between atoms: C12_15  and  N3_16 
REMARK    8  A    between atoms: N3_16  and  C13_17 
REMARK    9  A    between atoms: C13_17  and  N4_19 
REMARK   10  A    between atoms: N4_19  and  C14_20 
REMARK   11  A    between atoms: C14_20  and  C15_21 
REMARK   12  A    between atoms: C15_21  and  N5_22 
ROOT
HETATM    1  C12 UNL     1      25.875   3.995  50.223  1.00  0.00     0.090 C 
ENDROOT
BRANCH   1   2
HETATM    2  C11 UNL     1      26.520   2.937  50.669  1.00  0.00     0.019 C 
BRANCH   2   3
HETATM    3  C10 UNL     1      26.118   1.760  51.384  1.00  0.00     0.034 C 
BRANCH   3   4
HETATM    4  C9  UNL     1      26.638   1.416  52.531  1.00  0.00     0.069 A 
HETATM    5  C6  UNL     1      26.101   0.729  53.585  1.00  0.00     0.007 A 
HETATM    6  C7  UNL     1      26.831   0.482  54.735  1.00  0.00     0.131 A 
HETATM    7  N1  UNL     1      28.085   0.920  54.819  1.00  0.00    -0.253 NA
HETATM    8  C8  UNL     1      28.626   1.589  53.804  1.00  0.00     0.233 A 
HETATM    9  N2  UNL     1      27.904   1.804  52.732  1.00  0.00    -0.241 NA
BRANCH   5  10
HETATM   10  C5  UNL     1      24.854   0.334  53.408  1.00  0.00    -0.006 C 
BRANCH  10  11
HETATM   11  C4  UNL     1      23.732  -0.534  53.045  1.00  0.00     0.075 C 
BRANCH  11  12
HETATM   12  C3  UNL     1      22.610  -0.441  53.981  1.00  0.00    -0.005 A 
HETATM   13  C2  UNL     1      21.675  -0.431  54.915  1.00  0.00     0.106 A 
HETATM   14  C1  UNL     1      20.692   0.360  54.132  1.00  0.00     0.031 C 
HETATM   15 CL1  UNL     1      23.296  -1.375  55.372  1.00  0.00    -0.181 Cl
ENDBRANCH  11  12
ENDBRANCH  10  11
ENDBRANCH   5  10
ENDBRANCH   3   4
ENDBRANCH   2   3
ENDBRANCH   1   2
BRANCH   1  16
HETATM   16  N3  UNL     1      25.538   5.357  50.415  1.00  0.00    -0.343 N 
HETATM   17  H13 UNL     1      26.112   6.137  49.961  1.00  0.00     0.167 HD
BRANCH  16  18
HETATM   18  C13 UNL     1      24.448   5.853  51.192  1.00  0.00     0.171 C 
HETATM   19  S1  UNL     1      23.989   7.372  50.769  1.00  0.00    -0.041 SA
BRANCH  18  20
HETATM   20  N4  UNL     1      23.838   5.094  52.220  1.00  0.00    -0.365 N 
HETATM   21  H14 UNL     1      24.405   4.941  53.088  1.00  0.00     0.161 HD
BRANCH  20  22
HETATM   22  C14 UNL     1      22.475   4.552  52.049  1.00  0.00     0.152 C 
BRANCH  22  23
HETATM   23  C15 UNL     1      22.537   3.071  52.225  1.00  0.00     0.292 C 
BRANCH  23  24
HETATM   24  N5  UNL     1      21.831   2.298  51.275  1.00  0.00     0.094 N 
HETATM   25  C16 UNL     1      22.680   1.749  50.256  1.00  0.00     0.298 C 
HETATM   26  C17 UNL     1      22.402   2.425  48.940  1.00  0.00     0.198 C 
HETATM   27  O1  UNL     1      21.124   2.033  48.568  1.00  0.00    -0.388 OA
HETATM   28  C18 UNL     1      20.175   2.461  49.448  1.00  0.00     0.198 C 
HETATM   29  C19 UNL     1      20.664   2.940  50.783  1.00  0.00     0.298 C 
ENDBRANCH  23  24
ENDBRANCH  22  23
ENDBRANCH  20  22
ENDBRANCH  18  20
ENDBRANCH  16  18
ENDBRANCH   1  16
TORSDOF 12
ENDMDL
MODEL 3
REMARK VINA RESULT:      -6.5      3.441      5.989
REMARK  12 active torsions:
REMARK  status: ('A' for Active; 'I' for Inactive)
REMARK    1  A    between atoms: C3_3  and  C4_5 
REMARK    2  A    between atoms: C4_5  and  C5_6 
REMARK    3  A    between atoms: C5_6  and  C6_7 
REMARK    4  A    between atoms: C9_12  and  C10_13 
REMARK    5  A    between atoms: C10_13  and  C11_14 
REMARK    6  A    between atoms: C11_14  and  C12_15 
REMARK    7  A    between atoms: C12_15  and  N3_16 
REMARK    8  A    between atoms: N3_16  and  C13_17 
REMARK    9  A    between atoms: C13_17  and  N4_19 
REMARK   10  A    between atoms: N4_19  and  C14_20 
REMARK   11  A    between atoms: C14_20  and  C15_21 
REMARK   12  A    between atoms: C15_21  and  N5_22 
ROOT
HETATM    1  C12 UNL     1      27.056   4.578  48.980  1.00  0.00     0.090 C 
ENDROOT
BRANCH   1   2
HETATM    2  C11 UNL     1      26.730   3.397  49.463  1.00  0.00     0.019 C 
BRANCH   2   3
HETATM    3  C10 UNL     1      25.763   2.951  50.423  1.00  0.00     0.034 C 
BRANCH   3   4
HETATM    4  C9  UNL     1      26.084   2.587  51.635  1.00  0.00     0.069 A 
HETATM    5  C6  UNL     1      25.299   2.279  52.712  1.00  0.00     0.007 A 
HETATM    6  C7  UNL     1      25.851   1.927  53.932  1.00  0.00     0.131 A 
HETATM    7  N1  UNL     1      27.175   1.884  54.062  1.00  0.00    -0.253 NA
HETATM    8  C8  UNL     1      27.956   2.178  53.025  1.00  0.00     0.233 A 
HETATM    9  N2  UNL     1      27.397   2.507  51.887  1.00  0.00    -0.241 NA
BRANCH   5  10
HETATM   10  C5  UNL     1      24.000   2.347  52.486  1.00  0.00    -0.006 C 
BRANCH  10  11
HETATM   11  C4  UNL     1      22.584   1.976  52.519  1.00  0.00     0.075 C 
BRANCH  11  12
HETATM   12  C3  UNL     1      22.366   0.588  52.931  1.00  0.00    -0.005 A 
HETATM   13  C2  UNL     1      22.062  -0.667  53.213  1.00  0.00     0.106 A 
HETATM   14  C1  UNL     1      23.135  -0.855  54.222  1.00  0.00     0.031 C 
HETATM   15 CL1  UNL     1      20.943   0.180  51.889  1.00  0.00    -0.181 Cl
ENDBRANCH  11  12
ENDBRANCH  10  11
ENDBRANCH   5  10
ENDBRANCH   3   4
ENDBRANCH   2   3
ENDBRANCH   1   2
BRANCH   1  16
HETATM   16  N3  UNL     1      27.149   5.975  49.200  1.00  0.00    -0.343 N 
HETATM   17  H13 UNL     1      28.094   6.475  49.180  1.00  0.00     0.167 HD
BRANCH  16  18
HETATM   18  C13 UNL     1      26.060   6.860  49.462  1.00  0.00     0.171 C 
HETATM   19  S1  UNL     1      25.299   7.372  48.100  1.00  0.00    -0.041 SA
BRANCH  18  20
HETATM   20  N4  UNL     1      25.691   7.247  50.773  1.00  0.00    -0.365 N 
HETATM   21  H14 UNL     1      26.473   7.485  51.429  1.00  0.00     0.161 HD
BRANCH  20  22
HETATM   22  C14 UNL     1      24.270   7.295  51.173  1.00  0.00     0.152 C 
BRANCH  22  23
HETATM   23  C15 UNL     1      23.801   5.896  51.396  1.00  0.00     0.292 C 
BRANCH  23  24
HETATM   24  N5  UNL     1      22.483   5.604  50.976  1.00  0.00     0.094 N 
HETATM   25  C16 UNL     1      22.437   4.714  49.851  1.00  0.00     0.298 C 
HETATM   26  C17 UNL     1      21.959   5.457  48.632  1.00  0.00     0.198 C 
HETATM   27  O1  UNL     1      20.630   5.775  48.871  1.00  0.00    -0.388 OA
HETATM   28  C18 UNL     1      20.481   6.613  49.936  1.00  0.00     0.198 C 
HETATM   29  C19 UNL     1      21.665   6.757  50.846  1.00  0.00     0.298 C 
ENDBRANCH  23  24
ENDBRANCH  22  23
ENDBRANCH  20  22
ENDBRANCH  18  20
ENDBRANCH  16  18
ENDBRANCH   1  16
TORSDOF 12
ENDMDL
MODEL 4
REMARK VINA RESULT:      -6.5      4.035      6.619
REMARK  12 active torsions:
REMARK  status: ('A' for Active; 'I' for Inactive)
REMARK    1  A    between atoms: C3_3  and  C4_5 
REMARK    2  A    between atoms: C4_5  and  C5_6 
REMARK    3  A    between atoms: C5_6  and  C6_7 
REMARK    4  A    between atoms: C9_12  and  C10_13 
REMARK    5  A    between atoms: C10_13  and  C11_14 
REMARK    6  A    between atoms: C11_14  and  C12_15 
REMARK    7  A    between atoms: C12_15  and  N3_16 
REMARK    8  A    between atoms: N3_16  and  C13_17 
REMARK    9  A    between atoms: C13_17  and  N4_19 
REMARK   10  A    between atoms: N4_19  and  C14_20 
REMARK   11  A    between atoms: C14_20  and  C15_21 
REMARK   12  A    between atoms: C15_21  and  N5_22 
ROOT
HETATM    1  C12 UNL     1      23.772   3.964  52.273  1.00  0.00     0.090 C 
ENDROOT
BRANCH   1   2
HETATM    2  C11 UNL     1      23.717   2.820  52.924  1.00  0.00     0.019 C 
BRANCH   2   3
HETATM    3  C10 UNL     1      23.478   1.463  52.525  1.00  0.00     0.034 C 
BRANCH   3   4
HETATM    4  C9  UNL     1      23.101   0.535  53.363  1.00  0.00     0.069 A 
HETATM    5  C6  UNL     1      23.797  -0.507  53.913  1.00  0.00     0.007 A 
HETATM    6  C7  UNL     1      23.193  -1.400  54.781  1.00  0.00     0.131 A 
HETATM    7  N1  UNL     1      21.908  -1.245  55.090  1.00  0.00    -0.253 NA
HETATM    8  C8  UNL     1      21.215  -0.237  54.566  1.00  0.00     0.233 A 
HETATM    9  N2  UNL     1      21.820   0.588  53.749  1.00  0.00    -0.241 NA
BRANCH   5  10
HETATM   10  C5  UNL     1      25.063  -0.577  53.550  1.00  0.00    -0.006 C 
BRANCH  10  11
HETATM   11  C4  UNL     1      26.302  -1.136  53.003  1.00  0.00     0.075 C 
BRANCH  11  12
HETATM   12  C3  UNL     1      27.503  -0.606  53.651  1.00  0.00    -0.005 A 
HETATM   13  C2  UNL     1      28.502  -0.047  54.311  1.00  0.00     0.106 A 
HETATM   14  C1  UNL     1      29.578  -0.800  53.617  1.00  0.00     0.031 C 
HETATM   15 CL1  UNL     1      26.739   0.569  54.797  1.00  0.00    -0.181 Cl
ENDBRANCH  11  12
ENDBRANCH  10  11
ENDBRANCH   5  10
ENDBRANCH   3   4
ENDBRANCH   2   3
ENDBRANCH   1   2
BRANCH   1  16
HETATM   16  N3  UNL     1      24.516   4.821  51.426  1.00  0.00    -0.343 N 
HETATM   17  H13 UNL     1      24.618   5.863  51.647  1.00  0.00     0.167 HD
BRANCH  16  18
HETATM   18  C13 UNL     1      25.198   4.441  50.231  1.00  0.00     0.171 C 
HETATM   19  S1  UNL     1      24.231   3.671  49.150  1.00  0.00    -0.041 SA
BRANCH  18  20
HETATM   20  N4  UNL     1      26.572   4.712  50.019  1.00  0.00    -0.365 N 
HETATM   21  H14 UNL     1      27.208   4.578  50.841  1.00  0.00     0.161 HD
BRANCH  20  22
HETATM   22  C14 UNL     1      27.055   5.168  48.700  1.00  0.00     0.152 C 
BRANCH  22  23
HETATM   23  C15 UNL     1      26.520   6.539  48.456  1.00  0.00     0.292 C 
BRANCH  23  24
HETATM   24  N5  UNL     1      26.922   7.540  49.371  1.00  0.00     0.094 N 
HETATM   25  C16 UNL     1      25.833   8.361  49.818  1.00  0.00     0.298 C 
HETATM   26  C17 UNL     1      25.972   9.748  49.250  1.00  0.00     0.198 C 
HETATM   27  O1  UNL     1      27.090  10.302  49.857  1.00  0.00    -0.388 OA
HETATM   28  C18 UNL     1      28.234   9.626  49.551  1.00  0.00     0.198 C 
HETATM   29  C19 UNL     1      28.067   8.264  48.945  1.00  0.00     0.298 C 
ENDBRANCH  23  24
ENDBRANCH  22  23
ENDBRANCH  20  22
ENDBRANCH  18  20
ENDBRANCH  16  18
ENDBRANCH   1  16
TORSDOF 12
ENDMDL
MODEL 5
REMARK VINA RESULT:      -6.5      5.543      7.685
REMARK  12 active torsions:
REMARK  status: ('A' for Active; 'I' for Inactive)
REMARK    1  A    between atoms: C3_3  and  C4_5 
REMARK    2  A    between atoms: C4_5  and  C5_6 
REMARK    3  A    between atoms: C5_6  and  C6_7 
REMARK    4  A    between atoms: C9_12  and  C10_13 
REMARK    5  A    between atoms: C10_13  and  C11_14 
REMARK    6  A    between atoms: C11_14  and  C12_15 
REMARK    7  A    between atoms: C12_15  and  N3_16 
REMARK    8  A    between atoms: N3_16  and  C13_17 
REMARK    9  A    between atoms: C13_17  and  N4_19 
REMARK   10  A    between atoms: N4_19  and  C14_20 
REMARK   11  A    between atoms: C14_20  and  C15_21 
REMARK   12  A    between atoms: C15_21  and  N5_22 
ROOT
HETATM    1  C12 UNL     1      27.094   4.359  48.970  1.00  0.00     0.090 C 
ENDROOT
BRANCH   1   2
HETATM    2  C11 UNL     1      26.417   3.389  49.549  1.00  0.00     0.019 C 
BRANCH   2   3
HETATM    3  C10 UNL     1      26.442   2.811  50.862  1.00  0.00     0.034 C 
BRANCH   3   4
HETATM    4  C9  UNL     1      25.365   2.406  51.477  1.00  0.00     0.069 A 
HETATM    5  C6  UNL     1      25.099   1.237  52.137  1.00  0.00     0.007 A 
HETATM    6  C7  UNL     1      23.864   0.998  52.715  1.00  0.00     0.131 A 
HETATM    7  N1  UNL     1      22.912   1.924  52.631  1.00  0.00    -0.253 NA
HETATM    8  C8  UNL     1      23.152   3.069  51.995  1.00  0.00     0.233 A 
HETATM    9  N2  UNL     1      24.332   3.259  51.460  1.00  0.00    -0.241 NA
BRANCH   5  10
HETATM   10  C5  UNL     1      26.103   0.382  52.170  1.00  0.00    -0.006 C 
BRANCH  10  11
HETATM   11  C4  UNL     1      27.143  -0.488  52.724  1.00  0.00     0.075 C 
BRANCH  11  12
HETATM   12  C3  UNL     1      28.266   0.257  53.297  1.00  0.00    -0.005 A 
HETATM   13  C2  UNL     1      29.346   0.808  53.823  1.00  0.00     0.106 A 
HETATM   14  C1  UNL     1      28.817   2.195  53.831  1.00  0.00     0.031 C 
HETATM   15 CL1  UNL     1      29.432  -1.102  53.559  1.00  0.00    -0.181 Cl
ENDBRANCH  11  12
ENDBRANCH  10  11
ENDBRANCH   5  10
ENDBRANCH   3   4
ENDBRANCH   2   3
ENDBRANCH   1   2
BRANCH   1  16
HETATM   16  N3  UNL     1      28.156   5.293  49.057  1.00  0.00    -0.343 N 
HETATM   17  H13 UNL     1      28.911   5.201  49.810  1.00  0.00     0.167 HD
BRANCH  16  18
HETATM   18  C13 UNL     1      28.361   6.418  48.204  1.00  0.00     0.171 C 
HETATM   19  S1  UNL     1      27.088   7.455  48.181  1.00  0.00    -0.041 SA
BRANCH  18  20
HETATM   20  N4  UNL     1      29.553   6.603  47.460  1.00  0.00    -0.365 N 
HETATM   21  H14 UNL     1      29.501   6.393  46.434  1.00  0.00     0.161 HD
BRANCH  20  22
HETATM   22  C14 UNL     1      30.791   7.060  48.123  1.00  0.00     0.152 C 
BRANCH  22  23
HETATM   23  C15 UNL     1      31.953   6.463  47.402  1.00  0.00     0.292 C 
BRANCH  23  24
HETATM   24  N5  UNL     1      32.621   5.406  48.060  1.00  0.00     0.094 N 
HETATM   25  C16 UNL     1      33.751   5.848  48.828  1.00  0.00     0.298 C 
HETATM   26  C17 UNL     1      35.025   5.376  48.180  1.00  0.00     0.198 C 
HETATM   27  O1  UNL     1      35.039   3.996  48.316  1.00  0.00    -0.388 OA
HETATM   28  C18 UNL     1      34.007   3.400  47.654  1.00  0.00     0.198 C 
HETATM   29  C19 UNL     1      32.885   4.294  47.216  1.00  0.00     0.298 C 
ENDBRANCH  23  24
ENDBRANCH  22  23
ENDBRANCH  20  22
ENDBRANCH  18  20
ENDBRANCH  16  18
ENDBRANCH   1  16
TORSDOF 12
ENDMDL
MODEL 6
REMARK VINA RESULT:      -6.5      4.292      6.409
REMARK  12 active torsions:
REMARK  status: ('A' for Active; 'I' for Inactive)
REMARK    1  A    between atoms: C3_3  and  C4_5 
REMARK    2  A    between atoms: C4_5  and  C5_6 
REMARK    3  A    between atoms: C5_6  and  C6_7 
REMARK    4  A    between atoms: C9_12  and  C10_13 
REMARK    5  A    between atoms: C10_13  and  C11_14 
REMARK    6  A    between atoms: C11_14  and  C12_15 
REMARK    7  A    between atoms: C12_15  and  N3_16 
REMARK    8  A    between atoms: N3_16  and  C13_17 
REMARK    9  A    between atoms: C13_17  and  N4_19 
REMARK   10  A    between atoms: N4_19  and  C14_20 
REMARK   11  A    between atoms: C14_20  and  C15_21 
REMARK   12  A    between atoms: C15_21  and  N5_22 
ROOT
HETATM    1  C12 UNL     1      26.202   3.881  50.161  1.00  0.00     0.090 C 
ENDROOT
BRANCH   1   2
HETATM    2  C11 UNL     1      26.859   2.851  50.653  1.00  0.00     0.019 C 
BRANCH   2   3
HETATM    3  C10 UNL     1      26.473   1.712  51.435  1.00  0.00     0.034 C 
BRANCH   3   4
HETATM    4  C9  UNL     1      27.047   1.403  52.566  1.00  0.00     0.069 A 
HETATM    5  C6  UNL     1      26.665   0.536  53.554  1.00  0.00     0.007 A 
HETATM    6  C7  UNL     1      27.424   0.366  54.699  1.00  0.00     0.131 A 
HETATM    7  N1  UNL     1      28.550   1.059  54.846  1.00  0.00    -0.253 NA
HETATM    8  C8  UNL     1      28.939   1.906  53.896  1.00  0.00     0.233 A 
HETATM    9  N2  UNL     1      28.196   2.041  52.827  1.00  0.00    -0.241 NA
BRANCH   5  10
HETATM   10  C5  UNL     1      25.537  -0.107  53.317  1.00  0.00    -0.006 C 
BRANCH  10  11
HETATM   11  C4  UNL     1      24.115  -0.447  53.388  1.00  0.00     0.075 C 
BRANCH  11  12
HETATM   12  C3  UNL     1      23.245   0.632  52.917  1.00  0.00    -0.005 A 
HETATM   13  C2  UNL     1      22.362   1.508  52.469  1.00  0.00     0.106 A 
HETATM   14  C1  UNL     1      23.240   2.695  52.626  1.00  0.00     0.031 C 
HETATM   15 CL1  UNL     1      21.767  -0.328  52.500  1.00  0.00    -0.181 Cl
ENDBRANCH  11  12
ENDBRANCH  10  11
ENDBRANCH   5  10
ENDBRANCH   3   4
ENDBRANCH   2   3
ENDBRANCH   1   2
BRANCH   1  16
HETATM   16  N3  UNL     1      25.669   5.174  50.383  1.00  0.00    -0.343 N 
HETATM   17  H13 UNL     1      25.062   5.382  51.239  1.00  0.00     0.167 HD
BRANCH  16  18
HETATM   18  C13 UNL     1      25.856   6.317  49.549  1.00  0.00     0.171 C 
HETATM   19  S1  UNL     1      24.548   6.663  48.619  1.00  0.00    -0.041 SA
BRANCH  18  20
HETATM   20  N4  UNL     1      27.059   7.065  49.540  1.00  0.00    -0.365 N 
HETATM   21  H14 UNL     1      27.241   7.670  50.377  1.00  0.00     0.161 HD
BRANCH  20  22
HETATM   22  C14 UNL     1      27.988   6.984  48.394  1.00  0.00     0.152 C 
BRANCH  22  23
HETATM   23  C15 UNL     1      29.020   8.050  48.555  1.00  0.00     0.292 C 
BRANCH  23  24
HETATM   24  N5  UNL     1      30.342   7.699  48.197  1.00  0.00     0.094 N 
HETATM   25  C16 UNL     1      30.582   6.285  48.255  1.00  0.00     0.298 C 
HETATM   26  C17 UNL     1      31.508   5.970  49.399  1.00  0.00     0.198 C 
HETATM   27  O1  UNL     1      32.738   6.513  49.060  1.00  0.00    -0.388 OA
HETATM   28  C18 UNL     1      32.692   7.870  48.943  1.00  0.00     0.198 C 
HETATM   29  C19 UNL     1      31.329   8.488  48.845  1.00  0.00     0.298 C 
ENDBRANCH  23  24
ENDBRANCH  22  23
ENDBRANCH  20  22
ENDBRANCH  18  20
ENDBRANCH  16  18
ENDBRANCH   1  16
TORSDOF 12
ENDMDL
MODEL 7
REMARK VINA RESULT:      -6.5      4.656      7.052
REMARK  12 active torsions:
REMARK  status: ('A' for Active; 'I' for Inactive)
REMARK    1  A    between atoms: C3_3  and  C4_5 
REMARK    2  A    between atoms: C4_5  and  C5_6 
REMARK    3  A    between atoms: C5_6  and  C6_7 
REMARK    4  A    between atoms: C9_12  and  C10_13 
REMARK    5  A    between atoms: C10_13  and  C11_14 
REMARK    6  A    between atoms: C11_14  and  C12_15 
REMARK    7  A    between atoms: C12_15  and  N3_16 
REMARK    8  A    between atoms: N3_16  and  C13_17 
REMARK    9  A    between atoms: C13_17  and  N4_19 
REMARK   10  A    between atoms: N4_19  and  C14_20 
REMARK   11  A    between atoms: C14_20  and  C15_21 
REMARK   12  A    between atoms: C15_21  and  N5_22 
ROOT
HETATM    1  C12 UNL     1      26.941   4.050  49.354  1.00  0.00     0.090 C 
ENDROOT
BRANCH   1   2
HETATM    2  C11 UNL     1      26.533   2.968  49.985  1.00  0.00     0.019 C 
BRANCH   2   3
HETATM    3  C10 UNL     1      25.829   2.745  51.215  1.00  0.00     0.034 C 
BRANCH   3   4
HETATM    4  C9  UNL     1      26.357   2.115  52.229  1.00  0.00     0.069 A 
HETATM    5  C6  UNL     1      25.836   1.157  53.055  1.00  0.00     0.007 A 
HETATM    6  C7  UNL     1      26.573   0.624  54.099  1.00  0.00     0.131 A 
HETATM    7  N1  UNL     1      27.817   1.049  54.305  1.00  0.00    -0.253 NA
HETATM    8  C8  UNL     1      28.343   1.978  53.511  1.00  0.00     0.233 A 
HETATM    9  N2  UNL     1      27.615   2.460  52.534  1.00  0.00    -0.241 NA
BRANCH   5  10
HETATM   10  C5  UNL     1      24.598   0.798  52.771  1.00  0.00    -0.006 C 
BRANCH  10  11
HETATM   11  C4  UNL     1      23.145   0.897  52.618  1.00  0.00     0.075 C 
BRANCH  11  12
HETATM   12  C3  UNL     1      22.410   0.187  53.666  1.00  0.00    -0.005 A 
HETATM   13  C2  UNL     1      21.635  -0.376  54.577  1.00  0.00     0.106 A 
HETATM   14  C1  UNL     1      22.675  -1.293  55.109  1.00  0.00     0.031 C 
HETATM   15 CL1  UNL     1      20.795   0.990  53.503  1.00  0.00    -0.181 Cl
ENDBRANCH  11  12
ENDBRANCH  10  11
ENDBRANCH   5  10
ENDBRANCH   3   4
ENDBRANCH   2   3
ENDBRANCH   1   2
BRANCH   1  16
HETATM   16  N3  UNL     1      27.054   5.462  49.355  1.00  0.00    -0.343 N 
HETATM   17  H13 UNL     1      27.979   5.942  49.117  1.00  0.00     0.167 HD
BRANCH  16  18
HETATM   18  C13 UNL     1      26.011   6.390  49.652  1.00  0.00     0.171 C 
HETATM   19  S1  UNL     1      24.630   6.105  48.811  1.00  0.00    -0.041 SA
BRANCH  18  20
HETATM   20  N4  UNL     1      26.173   7.445  50.583  1.00  0.00    -0.365 N 
HETATM   21  H14 UNL     1      26.307   7.169  51.586  1.00  0.00     0.161 HD
BRANCH  20  22
HETATM   22  C14 UNL     1      26.140   8.854  50.139  1.00  0.00     0.152 C 
BRANCH  22  23
HETATM   23  C15 UNL     1      27.511   9.422  50.290  1.00  0.00     0.292 C 
BRANCH  23  24
HETATM   24  N5  UNL     1      28.267   9.555  49.103  1.00  0.00     0.094 N 
HETATM   25  C16 UNL     1      29.363   8.630  49.030  1.00  0.00     0.298 C 
HETATM   26  C17 UNL     1      30.667   9.372  49.164  1.00  0.00     0.198 C 
HETATM   27  O1  UNL     1      30.792  10.143  48.018  1.00  0.00    -0.388 OA
HETATM   28  C18 UNL     1      29.806  11.078  47.912  1.00  0.00     0.198 C 
HETATM   29  C19 UNL     1      28.612  10.899  48.803  1.00  0.00     0.298 C 
ENDBRANCH  23  24
ENDBRANCH  22  23
ENDBRANCH  20  22
ENDBRANCH  18  20
ENDBRANCH  16  18
ENDBRANCH   1  16
TORSDOF 12
ENDMDL
MODEL 8
REMARK VINA RESULT:      -6.4      4.573      6.478
REMARK  12 active torsions:
REMARK  status: ('A' for Active; 'I' for Inactive)
REMARK    1  A    between atoms: C3_3  and  C4_5 
REMARK    2  A    between atoms: C4_5  and  C5_6 
REMARK    3  A    between atoms: C5_6  and  C6_7 
REMARK    4  A    between atoms: C9_12  and  C10_13 
REMARK    5  A    between atoms: C10_13  and  C11_14 
REMARK    6  A    between atoms: C11_14  and  C12_15 
REMARK    7  A    between atoms: C12_15  and  N3_16 
REMARK    8  A    between atoms: N3_16  and  C13_17 
REMARK    9  A    between atoms: C13_17  and  N4_19 
REMARK   10  A    between atoms: N4_19  and  C14_20 
REMARK   11  A    between atoms: C14_20  and  C15_21 
REMARK   12  A    between atoms: C15_21  and  N5_22 
ROOT
HETATM    1  C12 UNL     1      26.255   3.905  49.718  1.00  0.00     0.090 C 
ENDROOT
BRANCH   1   2
HETATM    2  C11 UNL     1      26.237   3.223  50.845  1.00  0.00     0.019 C 
BRANCH   2   3
HETATM    3  C10 UNL     1      26.585   1.875  51.193  1.00  0.00     0.034 C 
BRANCH   3   4
HETATM    4  C9  UNL     1      26.945   1.526  52.398  1.00  0.00     0.069 A 
HETATM    5  C6  UNL     1      26.224   0.974  53.421  1.00  0.00     0.007 A 
HETATM    6  C7  UNL     1      26.804   0.692  54.645  1.00  0.00     0.131 A 
HETATM    7  N1  UNL     1      28.093   0.962  54.835  1.00  0.00    -0.253 NA
HETATM    8  C8  UNL     1      28.813   1.498  53.852  1.00  0.00     0.233 A 
HETATM    9  N2  UNL     1      28.229   1.751  52.707  1.00  0.00    -0.241 NA
BRANCH   5  10
HETATM   10  C5  UNL     1      24.956   0.740  53.138  1.00  0.00    -0.006 C 
BRANCH  10  11
HETATM   11  C4  UNL     1      23.563   1.007  52.773  1.00  0.00     0.075 C 
BRANCH  11  12
HETATM   12  C3  UNL     1      22.641  -0.032  53.238  1.00  0.00    -0.005 A 
HETATM   13  C2  UNL     1      21.741  -0.953  53.536  1.00  0.00     0.106 A 
HETATM   14  C1  UNL     1      22.303  -1.281  54.871  1.00  0.00     0.031 C 
HETATM   15 CL1  UNL     1      21.521  -0.104  51.817  1.00  0.00    -0.181 Cl
ENDBRANCH  11  12
ENDBRANCH  10  11
ENDBRANCH   5  10
ENDBRANCH   3   4
ENDBRANCH   2   3
ENDBRANCH   1   2
BRANCH   1  16
HETATM   16  N3  UNL     1      26.196   5.172  49.087  1.00  0.00    -0.343 N 
HETATM   17  H13 UNL     1      25.258   5.638  48.873  1.00  0.00     0.167 HD
BRANCH  16  18
HETATM   18  C13 UNL     1      27.312   5.962  48.677  1.00  0.00     0.171 C 
HETATM   19  S1  UNL     1      26.879   7.356  47.925  1.00  0.00    -0.041 SA
BRANCH  18  20
HETATM   20  N4  UNL     1      28.652   5.563  48.905  1.00  0.00    -0.365 N 
HETATM   21  H14 UNL     1      28.849   5.079  49.814  1.00  0.00     0.161 HD
BRANCH  20  22
HETATM   22  C14 UNL     1      29.700   5.836  47.900  1.00  0.00     0.152 C 
BRANCH  22  23
HETATM   23  C15 UNL     1      30.951   6.212  48.622  1.00  0.00     0.292 C 
BRANCH  23  24
HETATM   24  N5  UNL     1      32.166   5.919  47.962  1.00  0.00     0.094 N 
HETATM   25  C16 UNL     1      32.083   4.756  47.124  1.00  0.00     0.298 C 
HETATM   26  C17 UNL     1      32.896   3.638  47.719  1.00  0.00     0.198 C 
HETATM   27  O1  UNL     1      34.222   4.033  47.625  1.00  0.00    -0.388 OA
HETATM   28  C18 UNL     1      34.483   5.153  48.358  1.00  0.00     0.198 C 
HETATM   29  C19 UNL     1      33.294   5.941  48.825  1.00  0.00     0.298 C 
ENDBRANCH  23  24
ENDBRANCH  22  23
ENDBRANCH  20  22
ENDBRANCH  18  20
ENDBRANCH  16  18
ENDBRANCH   1  16
TORSDOF 12
ENDMDL
MODEL 9
REMARK VINA RESULT:      -6.4      4.707      6.873
REMARK  12 active torsions:
REMARK  status: ('A' for Active; 'I' for Inactive)
REMARK    1  A    between atoms: C3_3  and  C4_5 
REMARK    2  A    between atoms: C4_5  and  C5_6 
REMARK    3  A    between atoms: C5_6  and  C6_7 
REMARK    4  A    between atoms: C9_12  and  C10_13 
REMARK    5  A    between atoms: C10_13  and  C11_14 
REMARK    6  A    between atoms: C11_14  and  C12_15 
REMARK    7  A    between atoms: C12_15  and  N3_16 
REMARK    8  A    between atoms: N3_16  and  C13_17 
REMARK    9  A    between atoms: C13_17  and  N4_19 
REMARK   10  A    between atoms: N4_19  and  C14_20 
REMARK   11  A    between atoms: C14_20  and  C15_21 
REMARK   12  A    between atoms: C15_21  and  N5_22 
ROOT
HETATM    1  C12 UNL     1      26.357   3.175  49.960  1.00  0.00     0.090 C 
ENDROOT
BRANCH   1   2
HETATM    2  C11 UNL     1      26.121   2.318  50.932  1.00  0.00     0.019 C 
BRANCH   2   3
HETATM    3  C10 UNL     1      25.300   2.355  52.107  1.00  0.00     0.034 C 
BRANCH   3   4
HETATM    4  C9  UNL     1      24.365   1.476  52.345  1.00  0.00     0.069 A 
HETATM    5  C6  UNL     1      24.381   0.339  53.107  1.00  0.00     0.007 A 
HETATM    6  C7  UNL     1      23.267  -0.475  53.213  1.00  0.00     0.131 A 
HETATM    7  N1  UNL     1      22.153  -0.149  52.563  1.00  0.00    -0.253 NA
HETATM    8  C8  UNL     1      22.117   0.954  51.818  1.00  0.00     0.233 A 
HETATM    9  N2  UNL     1      23.191   1.700  51.741  1.00  0.00    -0.241 NA
BRANCH   5  10
HETATM   10  C5  UNL     1      25.527   0.099  53.716  1.00  0.00    -0.006 C 
BRANCH  10  11
HETATM   11  C4  UNL     1      26.608   0.221  54.696  1.00  0.00     0.075 C 
BRANCH  11  12
HETATM   12  C3  UNL     1      27.857   0.714  54.112  1.00  0.00    -0.005 A 
HETATM   13  C2  UNL     1      29.019   1.024  53.563  1.00  0.00     0.106 A 
HETATM   14  C1  UNL     1      28.859   2.494  53.703  1.00  0.00     0.031 C 
HETATM   15 CL1  UNL     1      28.633  -0.863  53.678  1.00  0.00    -0.181 Cl
ENDBRANCH  11  12
ENDBRANCH  10  11
ENDBRANCH   5  10
ENDBRANCH   3   4
ENDBRANCH   2   3
ENDBRANCH   1   2
BRANCH   1  16
HETATM   16  N3  UNL     1      27.104   4.289  49.505  1.00  0.00    -0.343 N 
HETATM   17  H13 UNL     1      28.159   4.219  49.345  1.00  0.00     0.167 HD
BRANCH  16  18
HETATM   18  C13 UNL     1      26.586   5.586  49.210  1.00  0.00     0.171 C 
HETATM   19  S1  UNL     1      24.955   5.606  49.022  1.00  0.00    -0.041 SA
BRANCH  18  20
HETATM   20  N4  UNL     1      27.415   6.729  49.094  1.00  0.00    -0.365 N 
HETATM   21  H14 UNL     1      27.365   7.425  49.876  1.00  0.00     0.161 HD
BRANCH  20  22
HETATM   22  C14 UNL     1      28.287   6.911  47.916  1.00  0.00     0.152 C 
BRANCH  22  23
HETATM   23  C15 UNL     1      29.606   7.426  48.388  1.00  0.00     0.292 C 
BRANCH  23  24
HETATM   24  N5  UNL     1      30.542   6.454  48.809  1.00  0.00     0.094 N 
HETATM   25  C16 UNL     1      31.730   7.028  49.374  1.00  0.00     0.298 C 
HETATM   26  C17 UNL     1      32.897   6.800  48.450  1.00  0.00     0.198 C 
HETATM   27  O1  UNL     1      33.137   5.433  48.463  1.00  0.00    -0.388 OA
HETATM   28  C18 UNL     1      32.087   4.718  47.969  1.00  0.00     0.198 C 
HETATM   29  C19 UNL     1      30.782   5.445  47.839  1.00  0.00     0.298 C 
ENDBRANCH  23  24
ENDBRANCH  22  23
ENDBRANCH  20  22
ENDBRANCH  18  20
ENDBRANCH  16  18
ENDBRANCH   1  16
TORSDOF 12
ENDMDL
