MODEL 1
REMARK VINA RESULT:      -7.5      0.000      0.000
REMARK  6 active torsions:
REMARK  status: ('A' for Active; 'I' for Inactive)
REMARK    1  A    between atoms: N1_2  and  C2_3 
REMARK    2  A    between atoms: C2_3  and  C9_11 
REMARK    3  A    between atoms: C3_4  and  C4_5 
REMARK    4  A    between atoms: C9_11  and  C10_12 
REMARK    5  A    between atoms: C10_12  and  C11_13 
REMARK       I    between atoms: C11_13  and  N2_15 
REMARK    6  A    between atoms: N2_15  and  C12_16 
ROOT
HETATM    1  C9  UNL     1      23.791   1.934  52.547  1.00  0.00     0.066 C 
ENDROOT
BRANCH   1   2
HETATM    2  C2  UNL     1      24.575   0.734  52.831  1.00  0.00     0.005 C 
HETATM    3  C3  UNL     1      25.733   0.461  52.265  1.00  0.00     0.027 C 
BRANCH   2   4
HETATM    4  N1  UNL     1      24.166  -0.272  53.756  1.00  0.00    -0.397 N 
HETATM    5  C1  UNL     1      22.917  -0.811  53.327  1.00  0.00     0.146 C 
HETATM    6  H4  UNL     1      24.792  -0.479  54.586  1.00  0.00     0.158 HD
ENDBRANCH   2   4
BRANCH   3   7
HETATM    7  C4  UNL     1      26.442  -0.767  52.614  1.00  0.00     0.039 C 
HETATM    8  C5  UNL     1      27.693  -0.705  53.039  1.00  0.00     0.069 A 
HETATM    9  C6  UNL     1      28.496   0.501  53.209  1.00  0.00     0.035 A 
HETATM   10  O1  UNL     1      28.489  -1.780  53.405  1.00  0.00    -0.348 OA
HETATM   11  C7  UNL     1      29.692   0.097  53.654  1.00  0.00     0.002 A 
HETATM   12  C8  UNL     1      29.775  -1.361  53.810  1.00  0.00     0.203 A 
ENDBRANCH   3   7
ENDBRANCH   1   2
BRANCH   1  13
HETATM   13  C10 UNL     1      23.149   1.952  51.193  1.00  0.00     0.109 C 
BRANCH  13  14
HETATM   14  C11 UNL     1      23.864   2.792  50.197  1.00  0.00     0.222 C 
HETATM   15  O2  UNL     1      23.739   3.010  48.945  1.00  0.00    -0.273 OA
HETATM   16  N2  UNL     1      24.940   3.524  50.790  1.00  0.00    -0.327 N 
HETATM   17  H15 UNL     1      25.262   3.535  51.784  1.00  0.00     0.169 HD
BRANCH  16  18
HETATM   18  C12 UNL     1      25.755   4.394  49.997  1.00  0.00     0.034 A 
HETATM   19  C13 UNL     1      26.890   3.997  49.333  1.00  0.00     0.029 A 
HETATM   20  C14 UNL     1      27.612   4.917  48.591  1.00  0.00     0.002 A 
HETATM   21  C15 UNL     1      27.160   6.230  48.539  1.00  0.00     0.000 A 
HETATM   22  C16 UNL     1      26.018   6.645  49.203  1.00  0.00     0.002 A 
HETATM   23  C17 UNL     1      25.318   5.705  49.936  1.00  0.00     0.029 A 
ENDBRANCH  16  18
ENDBRANCH  13  14
ENDBRANCH   1  13
TORSDOF 6
ENDMDL
MODEL 2
REMARK VINA RESULT:      -7.3      3.270      7.616
REMARK  6 active torsions:
REMARK  status: ('A' for Active; 'I' for Inactive)
REMARK    1  A    between atoms: N1_2  and  C2_3 
REMARK    2  A    between atoms: C2_3  and  C9_11 
REMARK    3  A    between atoms: C3_4  and  C4_5 
REMARK    4  A    between atoms: C9_11  and  C10_12 
REMARK    5  A    between atoms: C10_12  and  C11_13 
REMARK       I    between atoms: C11_13  and  N2_15 
REMARK    6  A    between atoms: N2_15  and  C12_16 
ROOT
HETATM    1  C9  UNL     1      23.543   0.841  52.465  1.00  0.00     0.066 C 
ENDROOT
BRANCH   1   2
HETATM    2  C2  UNL     1      22.277   0.863  51.734  1.00  0.00     0.005 C 
HETATM    3  C3  UNL     1      21.173   0.281  52.158  1.00  0.00     0.027 C 
BRANCH   2   4
HETATM    4  N1  UNL     1      22.103   1.521  50.481  1.00  0.00    -0.397 N 
HETATM    5  C1  UNL     1      23.246   2.336  50.227  1.00  0.00     0.146 C 
HETATM    6  H4  UNL     1      21.213   1.340  49.935  1.00  0.00     0.158 HD
ENDBRANCH   2   4
BRANCH   3   7
HETATM    7  C4  UNL     1      19.956   0.359  51.356  1.00  0.00     0.039 C 
HETATM    8  C5  UNL     1      18.836  -0.184  51.805  1.00  0.00     0.069 A 
HETATM    9  C6  UNL     1      18.657  -0.890  53.069  1.00  0.00     0.035 A 
HETATM   10  O1  UNL     1      17.610  -0.189  51.157  1.00  0.00    -0.348 OA
HETATM   11  C7  UNL     1      17.373  -1.268  53.110  1.00  0.00     0.002 A 
HETATM   12  C8  UNL     1      16.624  -0.856  51.917  1.00  0.00     0.203 A 
ENDBRANCH   3   7
ENDBRANCH   1   2
BRANCH   1  13
HETATM   13  C10 UNL     1      23.612  -0.182  53.558  1.00  0.00     0.109 C 
BRANCH  13  14
HETATM   14  C11 UNL     1      24.996  -0.522  53.979  1.00  0.00     0.222 C 
HETATM   15  O2  UNL     1      25.529  -0.970  55.050  1.00  0.00    -0.273 OA
HETATM   16  N2  UNL     1      25.945  -0.289  52.936  1.00  0.00    -0.327 N 
HETATM   17  H15 UNL     1      25.786   0.071  51.968  1.00  0.00     0.169 HD
BRANCH  16  18
HETATM   18  C12 UNL     1      27.337  -0.555  53.141  1.00  0.00     0.034 A 
HETATM   19  C13 UNL     1      27.913  -1.796  53.014  1.00  0.00     0.029 A 
HETATM   20  C14 UNL     1      29.271  -1.951  53.235  1.00  0.00     0.002 A 
HETATM   21  C15 UNL     1      30.021  -0.833  53.581  1.00  0.00     0.000 A 
HETATM   22  C16 UNL     1      29.454   0.424  53.712  1.00  0.00     0.002 A 
HETATM   23  C17 UNL     1      28.095   0.549  53.486  1.00  0.00     0.029 A 
ENDBRANCH  16  18
ENDBRANCH  13  14
ENDBRANCH   1  13
TORSDOF 6
ENDMDL
MODEL 3
REMARK VINA RESULT:      -7.2      1.682      6.143
REMARK  6 active torsions:
REMARK  status: ('A' for Active; 'I' for Inactive)
REMARK    1  A    between atoms: N1_2  and  C2_3 
REMARK    2  A    between atoms: C2_3  and  C9_11 
REMARK    3  A    between atoms: C3_4  and  C4_5 
REMARK    4  A    between atoms: C9_11  and  C10_12 
REMARK    5  A    between atoms: C10_12  and  C11_13 
REMARK       I    between atoms: C11_13  and  N2_15 
REMARK    6  A    between atoms: N2_15  and  C12_16 
ROOT
HETATM    1  C9  UNL     1      22.800   0.550  53.470  1.00  0.00     0.066 C 
ENDROOT
BRANCH   1   2
HETATM    2  C2  UNL     1      22.772   1.673  52.535  1.00  0.00     0.005 C 
HETATM    3  C3  UNL     1      23.734   1.938  51.674  1.00  0.00     0.027 C 
BRANCH   2   4
HETATM    4  N1  UNL     1      21.694   2.603  52.455  1.00  0.00    -0.397 N 
HETATM    5  C1  UNL     1      20.471   1.914  52.712  1.00  0.00     0.146 C 
HETATM    6  H4  UNL     1      21.916   3.615  52.229  1.00  0.00     0.158 HD
ENDBRANCH   2   4
BRANCH   3   7
HETATM    7  C4  UNL     1      23.614   3.085  50.779  1.00  0.00     0.039 C 
HETATM    8  C5  UNL     1      24.697   3.595  50.216  1.00  0.00     0.069 A 
HETATM    9  C6  UNL     1      26.069   3.131  50.388  1.00  0.00     0.035 A 
HETATM   10  O1  UNL     1      24.737   4.678  49.349  1.00  0.00    -0.348 OA
HETATM   11  C7  UNL     1      26.835   3.935  49.639  1.00  0.00     0.002 A 
HETATM   12  C8  UNL     1      26.057   4.961  48.933  1.00  0.00     0.203 A 
ENDBRANCH   3   7
ENDBRANCH   1   2
BRANCH   1  13
HETATM   13  C10 UNL     1      23.607  -0.625  53.007  1.00  0.00     0.109 C 
BRANCH  13  14
HETATM   14  C11 UNL     1      24.968  -0.694  53.599  1.00  0.00     0.222 C 
HETATM   15  O2  UNL     1      25.433  -0.904  54.770  1.00  0.00    -0.273 OA
HETATM   16  N2  UNL     1      25.988  -0.473  52.622  1.00  0.00    -0.327 N 
HETATM   17  H15 UNL     1      25.891  -0.280  51.600  1.00  0.00     0.169 HD
BRANCH  16  18
HETATM   18  C12 UNL     1      27.371  -0.498  52.991  1.00  0.00     0.034 A 
HETATM   19  C13 UNL     1      28.091   0.612  53.363  1.00  0.00     0.029 A 
HETATM   20  C14 UNL     1      29.428   0.483  53.703  1.00  0.00     0.002 A 
HETATM   21  C15 UNL     1      30.007  -0.780  53.658  1.00  0.00     0.000 A 
HETATM   22  C16 UNL     1      29.294  -1.906  53.285  1.00  0.00     0.002 A 
HETATM   23  C17 UNL     1      27.961  -1.748  52.950  1.00  0.00     0.029 A 
ENDBRANCH  16  18
ENDBRANCH  13  14
ENDBRANCH   1  13
TORSDOF 6
ENDMDL
MODEL 4
REMARK VINA RESULT:      -7.2      1.852      5.577
REMARK  6 active torsions:
REMARK  status: ('A' for Active; 'I' for Inactive)
REMARK    1  A    between atoms: N1_2  and  C2_3 
REMARK    2  A    between atoms: C2_3  and  C9_11 
REMARK    3  A    between atoms: C3_4  and  C4_5 
REMARK    4  A    between atoms: C9_11  and  C10_12 
REMARK    5  A    between atoms: C10_12  and  C11_13 
REMARK       I    between atoms: C11_13  and  N2_15 
REMARK    6  A    between atoms: N2_15  and  C12_16 
ROOT
HETATM    1  C9  UNL     1      24.141   3.289  49.314  1.00  0.00     0.066 C 
ENDROOT
BRANCH   1   2
HETATM    2  C2  UNL     1      25.308   3.295  50.194  1.00  0.00     0.005 C 
HETATM    3  C3  UNL     1      25.708   2.251  50.891  1.00  0.00     0.027 C 
BRANCH   2   4
HETATM    4  N1  UNL     1      26.139   4.437  50.390  1.00  0.00    -0.397 N 
HETATM    5  C1  UNL     1      26.545   4.935  49.116  1.00  0.00     0.146 C 
HETATM    6  H4  UNL     1      26.340   4.751  51.382  1.00  0.00     0.158 HD
ENDBRANCH   2   4
BRANCH   3   7
HETATM    7  C4  UNL     1      26.888   2.356  51.744  1.00  0.00     0.039 C 
HETATM    8  C5  UNL     1      27.341   1.285  52.375  1.00  0.00     0.069 A 
HETATM    9  C6  UNL     1      26.778  -0.060  52.322  1.00  0.00     0.035 A 
HETATM   10  O1  UNL     1      28.445   1.232  53.213  1.00  0.00    -0.348 OA
HETATM   11  C7  UNL     1      27.549  -0.822  53.107  1.00  0.00     0.002 A 
HETATM   12  C8  UNL     1      28.649  -0.069  53.722  1.00  0.00     0.203 A 
ENDBRANCH   3   7
ENDBRANCH   1   2
BRANCH   1  13
HETATM   13  C10 UNL     1      22.825   3.396  50.024  1.00  0.00     0.109 C 
BRANCH  13  14
HETATM   14  C11 UNL     1      22.392   2.137  50.684  1.00  0.00     0.222 C 
HETATM   15  O2  UNL     1      21.978   1.000  50.275  1.00  0.00    -0.273 OA
HETATM   16  N2  UNL     1      22.458   2.230  52.109  1.00  0.00    -0.327 N 
HETATM   17  H15 UNL     1      22.759   3.034  52.704  1.00  0.00     0.169 HD
BRANCH  16  18
HETATM   18  C12 UNL     1      22.082   1.120  52.932  1.00  0.00     0.034 A 
HETATM   19  C13 UNL     1      20.808   0.905  53.403  1.00  0.00     0.029 A 
HETATM   20  C14 UNL     1      20.545  -0.201  54.194  1.00  0.00     0.002 A 
HETATM   21  C15 UNL     1      21.588  -1.070  54.491  1.00  0.00     0.000 A 
HETATM   22  C16 UNL     1      22.875  -0.865  54.024  1.00  0.00     0.002 A 
HETATM   23  C17 UNL     1      23.109   0.247  53.236  1.00  0.00     0.029 A 
ENDBRANCH  16  18
ENDBRANCH  13  14
ENDBRANCH   1  13
TORSDOF 6
ENDMDL
MODEL 5
REMARK VINA RESULT:      -7.1      2.452      5.598
REMARK  6 active torsions:
REMARK  status: ('A' for Active; 'I' for Inactive)
REMARK    1  A    between atoms: N1_2  and  C2_3 
REMARK    2  A    between atoms: C2_3  and  C9_11 
REMARK    3  A    between atoms: C3_4  and  C4_5 
REMARK    4  A    between atoms: C9_11  and  C10_12 
REMARK    5  A    between atoms: C10_12  and  C11_13 
REMARK       I    between atoms: C11_13  and  N2_15 
REMARK    6  A    between atoms: N2_15  and  C12_16 
ROOT
HETATM    1  C9  UNL     1      23.743   3.361  49.781  1.00  0.00     0.066 C 
ENDROOT
BRANCH   1   2
HETATM    2  C2  UNL     1      22.664   2.623  50.435  1.00  0.00     0.005 C 
HETATM    3  C3  UNL     1      22.767   1.371  50.834  1.00  0.00     0.027 C 
BRANCH   2   4
HETATM    4  N1  UNL     1      21.383   3.183  50.711  1.00  0.00    -0.397 N 
HETATM    5  C1  UNL     1      20.915   3.859  49.545  1.00  0.00     0.146 C 
HETATM    6  H4  UNL     1      20.966   3.040  51.675  1.00  0.00     0.158 HD
ENDBRANCH   2   4
BRANCH   3   7
HETATM    7  C4  UNL     1      21.631   0.718  51.478  1.00  0.00     0.039 C 
HETATM    8  C5  UNL     1      21.814   0.033  52.595  1.00  0.00     0.069 A 
HETATM    9  C6  UNL     1      23.077  -0.164  53.299  1.00  0.00     0.035 A 
HETATM   10  O1  UNL     1      20.837  -0.637  53.316  1.00  0.00    -0.348 OA
HETATM   11  C7  UNL     1      22.797  -0.917  54.370  1.00  0.00     0.002 A 
HETATM   12  C8  UNL     1      21.374  -1.267  54.459  1.00  0.00     0.203 A 
ENDBRANCH   3   7
ENDBRANCH   1   2
BRANCH   1  13
HETATM   13  C10 UNL     1      24.746   3.961  50.720  1.00  0.00     0.109 C 
BRANCH  13  14
HETATM   14  C11 UNL     1      25.917   3.087  50.991  1.00  0.00     0.222 C 
HETATM   15  O2  UNL     1      26.914   2.677  50.306  1.00  0.00    -0.273 OA
HETATM   16  N2  UNL     1      25.919   2.596  52.334  1.00  0.00    -0.327 N 
HETATM   17  H15 UNL     1      25.232   2.772  53.101  1.00  0.00     0.169 HD
BRANCH  16  18
HETATM   18  C12 UNL     1      26.966   1.736  52.795  1.00  0.00     0.034 A 
HETATM   19  C13 UNL     1      28.109   2.176  53.420  1.00  0.00     0.029 A 
HETATM   20  C14 UNL     1      29.065   1.262  53.830  1.00  0.00     0.002 A 
HETATM   21  C15 UNL     1      28.838  -0.089  53.596  1.00  0.00     0.000 A 
HETATM   22  C16 UNL     1      27.691  -0.547  52.968  1.00  0.00     0.002 A 
HETATM   23  C17 UNL     1      26.754   0.388  52.569  1.00  0.00     0.029 A 
ENDBRANCH  16  18
ENDBRANCH  13  14
ENDBRANCH   1  13
TORSDOF 6
ENDMDL
MODEL 6
REMARK VINA RESULT:      -6.9      2.691      6.903
REMARK  6 active torsions:
REMARK  status: ('A' for Active; 'I' for Inactive)
REMARK    1  A    between atoms: N1_2  and  C2_3 
REMARK    2  A    between atoms: C2_3  and  C9_11 
REMARK    3  A    between atoms: C3_4  and  C4_5 
REMARK    4  A    between atoms: C9_11  and  C10_12 
REMARK    5  A    between atoms: C10_12  and  C11_13 
REMARK       I    between atoms: C11_13  and  N2_15 
REMARK    6  A    between atoms: N2_15  and  C12_16 
ROOT
HETATM    1  C9  UNL     1      23.187   0.952  53.067  1.00  0.00     0.066 C 
ENDROOT
BRANCH   1   2
HETATM    2  C2  UNL     1      22.540   0.973  51.756  1.00  0.00     0.005 C 
HETATM    3  C3  UNL     1      22.948   1.715  50.747  1.00  0.00     0.027 C 
BRANCH   2   4
HETATM    4  N1  UNL     1      21.395   0.188  51.432  1.00  0.00    -0.397 N 
HETATM    5  C1  UNL     1      20.307   0.598  52.260  1.00  0.00     0.146 C 
HETATM    6  H4  UNL     1      21.485  -0.548  50.675  1.00  0.00     0.158 HD
ENDBRANCH   2   4
BRANCH   3   7
HETATM    7  C4  UNL     1      22.234   1.667  49.474  1.00  0.00     0.039 C 
HETATM    8  C5  UNL     1      22.275   2.707  48.658  1.00  0.00     0.069 A 
HETATM    9  C6  UNL     1      22.981   3.963  48.883  1.00  0.00     0.035 A 
HETATM   10  O1  UNL     1      21.650   2.806  47.423  1.00  0.00    -0.348 OA
HETATM   11  C7  UNL     1      22.749   4.724  47.805  1.00  0.00     0.002 A 
HETATM   12  C8  UNL     1      21.899   4.054  46.813  1.00  0.00     0.203 A 
ENDBRANCH   3   7
ENDBRANCH   1   2
BRANCH   1  13
HETATM   13  C10 UNL     1      23.485  -0.420  53.592  1.00  0.00     0.109 C 
BRANCH  13  14
HETATM   14  C11 UNL     1      24.897  -0.611  54.014  1.00  0.00     0.222 C 
HETATM   15  O2  UNL     1      25.477  -0.936  55.105  1.00  0.00    -0.273 OA
HETATM   16  N2  UNL     1      25.812  -0.373  52.942  1.00  0.00    -0.327 N 
HETATM   17  H15 UNL     1      25.613  -0.097  51.954  1.00  0.00     0.169 HD
BRANCH  16  18
HETATM   18  C12 UNL     1      27.224  -0.505  53.143  1.00  0.00     0.034 A 
HETATM   19  C13 UNL     1      27.911  -1.691  53.040  1.00  0.00     0.029 A 
HETATM   20  C14 UNL     1      29.279  -1.715  53.254  1.00  0.00     0.002 A 
HETATM   21  C15 UNL     1      29.924  -0.525  53.570  1.00  0.00     0.000 A 
HETATM   22  C16 UNL     1      29.244   0.677  53.677  1.00  0.00     0.002 A 
HETATM   23  C17 UNL     1      27.879   0.671  53.458  1.00  0.00     0.029 A 
ENDBRANCH  16  18
ENDBRANCH  13  14
ENDBRANCH   1  13
TORSDOF 6
ENDMDL
MODEL 7
REMARK VINA RESULT:      -6.7      3.024      7.111
REMARK  6 active torsions:
REMARK  status: ('A' for Active; 'I' for Inactive)
REMARK    1  A    between atoms: N1_2  and  C2_3 
REMARK    2  A    between atoms: C2_3  and  C9_11 
REMARK    3  A    between atoms: C3_4  and  C4_5 
REMARK    4  A    between atoms: C9_11  and  C10_12 
REMARK    5  A    between atoms: C10_12  and  C11_13 
REMARK       I    between atoms: C11_13  and  N2_15 
REMARK    6  A    between atoms: N2_15  and  C12_16 
ROOT
HETATM    1  C9  UNL     1      24.136   3.774  50.252  1.00  0.00     0.066 C 
ENDROOT
BRANCH   1   2
HETATM    2  C2  UNL     1      25.534   3.794  49.825  1.00  0.00     0.005 C 
HETATM    3  C3  UNL     1      26.101   4.814  49.214  1.00  0.00     0.027 C 
BRANCH   2   4
HETATM    4  N1  UNL     1      26.433   2.706  50.027  1.00  0.00    -0.397 N 
HETATM    5  C1  UNL     1      26.526   2.440  51.426  1.00  0.00     0.146 C 
HETATM    6  H4  UNL     1      26.889   2.264  49.179  1.00  0.00     0.158 HD
ENDBRANCH   2   4
BRANCH   3   7
HETATM    7  C4  UNL     1      27.507   4.738  48.826  1.00  0.00     0.039 C 
HETATM    8  C5  UNL     1      28.084   5.776  48.242  1.00  0.00     0.069 A 
HETATM    9  C6  UNL     1      27.459   7.053  47.920  1.00  0.00     0.035 A 
HETATM   10  O1  UNL     1      29.404   5.850  47.820  1.00  0.00    -0.348 OA
HETATM   11  C7  UNL     1      28.406   7.801  47.341  1.00  0.00     0.002 A 
HETATM   12  C8  UNL     1      29.693   7.102  47.237  1.00  0.00     0.203 A 
ENDBRANCH   3   7
ENDBRANCH   1   2
BRANCH   1  13
HETATM   13  C10 UNL     1      23.273   2.797  49.512  1.00  0.00     0.109 C 
BRANCH  13  14
HETATM   14  C11 UNL     1      22.635   1.775  50.382  1.00  0.00     0.222 C 
HETATM   15  O2  UNL     1      21.886   0.761  50.182  1.00  0.00    -0.273 OA
HETATM   16  N2  UNL     1      22.938   1.986  51.764  1.00  0.00    -0.327 N 
HETATM   17  H15 UNL     1      23.522   2.731  52.205  1.00  0.00     0.169 HD
BRANCH  16  18
HETATM   18  C12 UNL     1      22.419   1.107  52.767  1.00  0.00     0.034 A 
HETATM   19  C13 UNL     1      21.143   1.181  53.273  1.00  0.00     0.029 A 
HETATM   20  C14 UNL     1      20.734   0.283  54.245  1.00  0.00     0.002 A 
HETATM   21  C15 UNL     1      21.636  -0.679  54.683  1.00  0.00     0.000 A 
HETATM   22  C16 UNL     1      22.924  -0.766  54.182  1.00  0.00     0.002 A 
HETATM   23  C17 UNL     1      23.305   0.144  53.213  1.00  0.00     0.029 A 
ENDBRANCH  16  18
ENDBRANCH  13  14
ENDBRANCH   1  13
TORSDOF 6
ENDMDL
MODEL 8
REMARK VINA RESULT:      -6.7      3.069      7.410
REMARK  6 active torsions:
REMARK  status: ('A' for Active; 'I' for Inactive)
REMARK    1  A    between atoms: N1_2  and  C2_3 
REMARK    2  A    between atoms: C2_3  and  C9_11 
REMARK    3  A    between atoms: C3_4  and  C4_5 
REMARK    4  A    between atoms: C9_11  and  C10_12 
REMARK    5  A    between atoms: C10_12  and  C11_13 
REMARK       I    between atoms: C11_13  and  N2_15 
REMARK    6  A    between atoms: N2_15  and  C12_16 
ROOT
HETATM    1  C9  UNL     1      25.115   3.177  49.880  1.00  0.00     0.066 C 
ENDROOT
BRANCH   1   2
HETATM    2  C2  UNL     1      25.554   4.489  49.409  1.00  0.00     0.005 C 
HETATM    3  C3  UNL     1      26.780   4.753  49.004  1.00  0.00     0.027 C 
BRANCH   2   4
HETATM    4  N1  UNL     1      24.697   5.627  49.339  1.00  0.00    -0.397 N 
HETATM    5  C1  UNL     1      24.022   5.773  50.588  1.00  0.00     0.146 C 
HETATM    6  H4  UNL     1      24.666   6.181  48.436  1.00  0.00     0.158 HD
ENDBRANCH   2   4
BRANCH   3   7
HETATM    7  C4  UNL     1      27.122   6.098  48.552  1.00  0.00     0.039 C 
HETATM    8  C5  UNL     1      28.358   6.366  48.163  1.00  0.00     0.069 A 
HETATM    9  C6  UNL     1      29.481   5.436  48.130  1.00  0.00     0.035 A 
HETATM   10  O1  UNL     1      28.828   7.590  47.711  1.00  0.00    -0.348 OA
HETATM   11  C7  UNL     1      30.532   6.131  47.675  1.00  0.00     0.002 A 
HETATM   12  C8  UNL     1      30.199   7.530  47.378  1.00  0.00     0.203 A 
ENDBRANCH   3   7
ENDBRANCH   1   2
BRANCH   1  13
HETATM   13  C10 UNL     1      25.789   2.708  51.134  1.00  0.00     0.109 C 
BRANCH  13  14
HETATM   14  C11 UNL     1      24.848   2.347  52.226  1.00  0.00     0.222 C 
HETATM   15  O2  UNL     1      24.514   2.874  53.340  1.00  0.00    -0.273 OA
HETATM   16  N2  UNL     1      24.161   1.122  51.956  1.00  0.00    -0.327 N 
HETATM   17  H15 UNL     1      24.239   0.491  51.128  1.00  0.00     0.169 HD
BRANCH  16  18
HETATM   18  C12 UNL     1      23.207   0.599  52.887  1.00  0.00     0.034 A 
HETATM   19  C13 UNL     1      21.907   1.033  52.986  1.00  0.00     0.029 A 
HETATM   20  C14 UNL     1      21.060   0.463  53.922  1.00  0.00     0.002 A 
HETATM   21  C15 UNL     1      21.556  -0.544  54.742  1.00  0.00     0.000 A 
HETATM   22  C16 UNL     1      22.864  -0.991  54.653  1.00  0.00     0.002 A 
HETATM   23  C17 UNL     1      23.687  -0.403  53.710  1.00  0.00     0.029 A 
ENDBRANCH  16  18
ENDBRANCH  13  14
ENDBRANCH   1  13
TORSDOF 6
ENDMDL
MODEL 9
REMARK VINA RESULT:      -6.7      3.219      7.194
REMARK  6 active torsions:
REMARK  status: ('A' for Active; 'I' for Inactive)
REMARK    1  A    between atoms: N1_2  and  C2_3 
REMARK    2  A    between atoms: C2_3  and  C9_11 
REMARK    3  A    between atoms: C3_4  and  C4_5 
REMARK    4  A    between atoms: C9_11  and  C10_12 
REMARK    5  A    between atoms: C10_12  and  C11_13 
REMARK       I    between atoms: C11_13  and  N2_15 
REMARK    6  A    between atoms: N2_15  and  C12_16 
ROOT
HETATM    1  C9  UNL     1      26.187   4.596  49.008  1.00  0.00     0.066 C 
ENDROOT
BRANCH   1   2
HETATM    2  C2  UNL     1      27.252   5.586  48.861  1.00  0.00     0.005 C 
HETATM    3  C3  UNL     1      28.424   5.330  48.316  1.00  0.00     0.027 C 
BRANCH   2   4
HETATM    4  N1  UNL     1      27.133   6.940  49.293  1.00  0.00    -0.397 N 
HETATM    5  C1  UNL     1      26.229   7.622  48.425  1.00  0.00     0.146 C 
HETATM    6  H4  UNL     1      27.689   7.250  50.140  1.00  0.00     0.158 HD
ENDBRANCH   2   4
BRANCH   3   7
HETATM    7  C4  UNL     1      29.426   6.388  48.215  1.00  0.00     0.039 C 
HETATM    8  C5  UNL     1      30.666   6.087  47.868  1.00  0.00     0.069 A 
HETATM    9  C6  UNL     1      31.187   4.760  47.558  1.00  0.00     0.035 A 
HETATM   10  O1  UNL     1      31.719   6.980  47.731  1.00  0.00    -0.348 OA
HETATM   11  C7  UNL     1      32.482   4.923  47.262  1.00  0.00     0.002 A 
HETATM   12  C8  UNL     1      32.909   6.325  47.348  1.00  0.00     0.203 A 
ENDBRANCH   3   7
ENDBRANCH   1   2
BRANCH   1  13
HETATM   13  C10 UNL     1      25.364   4.747  50.252  1.00  0.00     0.109 C 
BRANCH  13  14
HETATM   14  C11 UNL     1      25.453   3.589  51.178  1.00  0.00     0.222 C 
HETATM   15  O2  UNL     1      24.634   2.988  51.952  1.00  0.00    -0.273 OA
HETATM   16  N2  UNL     1      26.765   3.022  51.201  1.00  0.00    -0.327 N 
HETATM   17  H15 UNL     1      27.618   3.312  50.672  1.00  0.00     0.169 HD
BRANCH  16  18
HETATM   18  C12 UNL     1      27.059   1.894  52.033  1.00  0.00     0.034 A 
HETATM   19  C13 UNL     1      26.610   0.618  51.790  1.00  0.00     0.029 A 
HETATM   20  C14 UNL     1      26.949  -0.408  52.657  1.00  0.00     0.002 A 
HETATM   21  C15 UNL     1      27.745  -0.113  53.758  1.00  0.00     0.000 A 
HETATM   22  C16 UNL     1      28.204   1.168  54.014  1.00  0.00     0.002 A 
HETATM   23  C17 UNL     1      27.850   2.172  53.133  1.00  0.00     0.029 A 
ENDBRANCH  16  18
ENDBRANCH  13  14
ENDBRANCH   1  13
TORSDOF 6
ENDMDL
