MODEL 1
REMARK VINA RESULT:      -8.2      0.000      0.000
REMARK  6 active torsions:
REMARK  status: ('A' for Active; 'I' for Inactive)
REMARK    1  A    between atoms: N1_7  and  C7_8 
REMARK    2  A    between atoms: C7_8  and  N2_9 
REMARK    3  A    between atoms: N2_9  and  C8_10 
REMARK    4  A    between atoms: C8_10  and  N3_12 
REMARK    5  A    between atoms: N3_12  and  C9_13 
REMARK    6  A    between atoms: N6_21  and  C15_22 
ROOT
HETATM    1  C9  UNL     1      23.356   4.448  50.850  1.00  0.00     0.029 C 
HETATM    2  C10 UNL     1      22.164   4.406  50.305  1.00  0.00     0.026 C 
HETATM    3  C11 UNL     1      21.041   5.263  50.792  1.00  0.00     0.029 C 
HETATM    4  C12 UNL     1      20.358   4.587  49.923  1.00  0.00     0.370 A 
HETATM    5  N4  UNL     1      19.006   4.472  49.407  1.00  0.00     0.352 N 
HETATM    6  C13 UNL     1      18.341   3.473  50.096  1.00  0.00     0.398 A 
HETATM    7  N5  UNL     1      19.631   3.520  50.652  1.00  0.00    -0.206 N 
HETATM    8  C14 UNL     1      19.879   3.580  51.911  1.00  0.00     0.158 C 
HETATM    9  N6  UNL     1      21.367   3.623  52.134  1.00  0.00    -0.342 N 
HETATM   10  C21 UNL     1      22.753   4.131  52.218  1.00  0.00     0.186 C 
ENDROOT
BRANCH   1  11
HETATM   11  N3  UNL     1      24.723   4.387  51.343  1.00  0.00    -0.335 N 
HETATM   12  H16 UNL     1      25.131   4.946  52.114  1.00  0.00     0.168 HD
BRANCH  11  13
HETATM   13  C8  UNL     1      25.591   3.473  50.673  1.00  0.00     0.173 C 
HETATM   14  S1  UNL     1      26.644   3.891  49.493  1.00  0.00    -0.041 SA
BRANCH  13  15
HETATM   15  N2  UNL     1      25.605   2.096  51.015  1.00  0.00    -0.342 N 
HETATM   16  H15 UNL     1      24.828   1.441  50.876  1.00  0.00     0.163 HD
BRANCH  15  17
HETATM   17  C7  UNL     1      26.779   1.476  51.620  1.00  0.00     0.397 C 
BRANCH  17  18
HETATM   18  N1  UNL     1      26.513   1.399  53.044  1.00  0.00     0.110 N 
HETATM   19  C2  UNL     1      26.739   0.065  53.563  1.00  0.00     0.221 C 
HETATM   20  C1  UNL     1      26.791  -0.993  52.490  1.00  0.00     0.043 C 
HETATM   21  C3  UNL     1      27.913   0.012  54.511  1.00  0.00     0.035 C 
HETATM   22  C4  UNL     1      29.113   0.719  53.951  1.00  0.00     0.004 C 
HETATM   23  C5  UNL     1      28.752   2.163  53.691  1.00  0.00     0.030 C 
HETATM   24  C6  UNL     1      27.262   2.398  53.780  1.00  0.00     0.275 C 
ENDBRANCH  17  18
ENDBRANCH  15  17
ENDBRANCH  13  15
ENDBRANCH  11  13
ENDBRANCH   1  11
BRANCH   9  25
HETATM   25  C15 UNL     1      21.399   2.213  52.483  1.00  0.00     0.036 A 
HETATM   26  C16 UNL     1      22.655   1.588  52.651  1.00  0.00     0.033 A 
HETATM   27  C17 UNL     1      22.931   0.284  53.003  1.00  0.00     0.046 A 
HETATM   28  C18 UNL     1      21.845  -0.512  53.216  1.00  0.00     0.138 A 
HETATM   29  F1  UNL     1      21.981  -1.809  53.564  1.00  0.00    -0.204 F 
HETATM   30  C19 UNL     1      20.560  -0.059  53.093  1.00  0.00     0.074 A 
HETATM   31 CL1  UNL     1      19.092  -0.956  53.333  1.00  0.00    -0.081 Cl
HETATM   32  C20 UNL     1      20.418   1.254  52.739  1.00  0.00     0.056 A 
ENDBRANCH   9  25
TORSDOF 6
ENDMDL
MODEL 2
REMARK VINA RESULT:      -8.1      3.529      4.901
REMARK  6 active torsions:
REMARK  status: ('A' for Active; 'I' for Inactive)
REMARK    1  A    between atoms: N1_7  and  C7_8 
REMARK    2  A    between atoms: C7_8  and  N2_9 
REMARK    3  A    between atoms: N2_9  and  C8_10 
REMARK    4  A    between atoms: C8_10  and  N3_12 
REMARK    5  A    between atoms: N3_12  and  C9_13 
REMARK    6  A    between atoms: N6_21  and  C15_22 
ROOT
HETATM    1  C9  UNL     1      22.153   1.422  52.060  1.00  0.00     0.029 C 
HETATM    2  C10 UNL     1      21.412   1.768  51.036  1.00  0.00     0.026 C 
HETATM    3  C11 UNL     1      21.419   0.996  49.757  1.00  0.00     0.029 C 
HETATM    4  C12 UNL     1      20.641   1.952  49.358  1.00  0.00     0.370 A 
HETATM    5  N4  UNL     1      19.914   2.384  48.179  1.00  0.00     0.352 N 
HETATM    6  C13 UNL     1      20.695   3.277  47.467  1.00  0.00     0.398 A 
HETATM    7  N5  UNL     1      21.466   2.910  48.583  1.00  0.00    -0.206 N 
HETATM    8  C14 UNL     1      22.687   2.517  48.526  1.00  0.00     0.158 C 
HETATM    9  N6  UNL     1      23.184   2.203  49.912  1.00  0.00    -0.342 N 
HETATM   10  C21 UNL     1      23.406   1.491  51.188  1.00  0.00     0.186 C 
ENDROOT
BRANCH   1  11
HETATM   11  N3  UNL     1      22.908   1.163  53.275  1.00  0.00    -0.335 N 
HETATM   12  H16 UNL     1      23.320   1.868  53.913  1.00  0.00     0.168 HD
BRANCH  11  13
HETATM   13  C8  UNL     1      23.115  -0.211  53.605  1.00  0.00     0.173 C 
HETATM   14  S1  UNL     1      21.925  -1.254  54.018  1.00  0.00    -0.041 SA
BRANCH  13  15
HETATM   15  N2  UNL     1      24.414  -0.780  53.576  1.00  0.00    -0.342 N 
HETATM   16  H15 UNL     1      24.647  -1.713  53.218  1.00  0.00     0.163 HD
BRANCH  15  17
HETATM   17  C7  UNL     1      25.574  -0.050  54.077  1.00  0.00     0.397 C 
BRANCH  17  18
HETATM   18  N1  UNL     1      26.396   0.255  52.921  1.00  0.00     0.110 N 
HETATM   19  C2  UNL     1      26.778   1.652  52.886  1.00  0.00     0.221 C 
HETATM   20  C1  UNL     1      25.935   2.525  53.780  1.00  0.00     0.043 C 
HETATM   21  C3  UNL     1      28.262   1.844  53.089  1.00  0.00     0.035 C 
HETATM   22  C4  UNL     1      28.771   1.045  54.254  1.00  0.00     0.004 C 
HETATM   23  C5  UNL     1      28.492  -0.418  54.003  1.00  0.00     0.030 C 
HETATM   24  C6  UNL     1      27.547  -0.621  52.841  1.00  0.00     0.275 C 
ENDBRANCH  17  18
ENDBRANCH  15  17
ENDBRANCH  13  15
ENDBRANCH  11  13
ENDBRANCH   1  11
BRANCH   9  25
HETATM   25  C15 UNL     1      23.892   3.470  49.992  1.00  0.00     0.036 A 
HETATM   26  C16 UNL     1      25.233   3.521  49.551  1.00  0.00     0.033 A 
HETATM   27  C17 UNL     1      26.087   4.602  49.506  1.00  0.00     0.046 A 
HETATM   28  C18 UNL     1      25.567   5.783  49.948  1.00  0.00     0.138 A 
HETATM   29  F1  UNL     1      26.302   6.916  49.956  1.00  0.00    -0.204 F 
HETATM   30  C19 UNL     1      24.284   5.901  50.407  1.00  0.00     0.074 A 
HETATM   31 CL1  UNL     1      23.496   7.333  50.997  1.00  0.00    -0.081 Cl
HETATM   32  C20 UNL     1      23.537   4.756  50.402  1.00  0.00     0.056 A 
ENDBRANCH   9  25
TORSDOF 6
ENDMDL
MODEL 3
REMARK VINA RESULT:      -8.1      4.292      6.848
REMARK  6 active torsions:
REMARK  status: ('A' for Active; 'I' for Inactive)
REMARK    1  A    between atoms: N1_7  and  C7_8 
REMARK    2  A    between atoms: C7_8  and  N2_9 
REMARK    3  A    between atoms: N2_9  and  C8_10 
REMARK    4  A    between atoms: C8_10  and  N3_12 
REMARK    5  A    between atoms: N3_12  and  C9_13 
REMARK    6  A    between atoms: N6_21  and  C15_22 
ROOT
HETATM    1  C9  UNL     1      25.531   2.939  50.865  1.00  0.00     0.029 C 
HETATM    2  C10 UNL     1      24.671   2.014  51.216  1.00  0.00     0.026 C 
HETATM    3  C11 UNL     1      23.747   2.193  52.377  1.00  0.00     0.029 C 
HETATM    4  C12 UNL     1      23.422   0.968  52.105  1.00  0.00     0.370 A 
HETATM    5  N4  UNL     1      22.546  -0.088  52.576  1.00  0.00     0.352 N 
HETATM    6  C13 UNL     1      23.244  -0.900  53.453  1.00  0.00     0.398 A 
HETATM    7  N5  UNL     1      24.157   0.088  53.047  1.00  0.00    -0.206 N 
HETATM    8  C14 UNL     1      24.880   0.784  53.848  1.00  0.00     0.158 C 
HETATM    9  N6  UNL     1      25.729   1.746  53.061  1.00  0.00    -0.342 N 
HETATM   10  C21 UNL     1      26.132   2.927  52.269  1.00  0.00     0.186 C 
ENDROOT
BRANCH   1  11
HETATM   11  N3  UNL     1      26.526   3.867  50.353  1.00  0.00    -0.335 N 
HETATM   12  H16 UNL     1      27.555   3.792  50.453  1.00  0.00     0.168 HD
BRANCH  11  13
HETATM   13  C8  UNL     1      26.022   5.009  49.659  1.00  0.00     0.173 C 
HETATM   14  S1  UNL     1      24.481   5.170  49.139  1.00  0.00    -0.041 SA
BRANCH  13  15
HETATM   15  N2  UNL     1      26.857   6.123  49.385  1.00  0.00    -0.342 N 
HETATM   16  H15 UNL     1      26.781   7.046  49.825  1.00  0.00     0.163 HD
BRANCH  15  17
HETATM   17  C7  UNL     1      27.939   6.038  48.410  1.00  0.00     0.397 C 
BRANCH  17  18
HETATM   18  N1  UNL     1      28.737   7.238  48.579  1.00  0.00     0.110 N 
HETATM   19  C2  UNL     1      30.069   7.081  48.032  1.00  0.00     0.221 C 
HETATM   20  C1  UNL     1      30.453   5.642  47.799  1.00  0.00     0.043 C 
HETATM   21  C3  UNL     1      30.302   7.965  46.830  1.00  0.00     0.035 C 
HETATM   22  C4  UNL     1      29.167   7.880  45.850  1.00  0.00     0.004 C 
HETATM   23  C5  UNL     1      27.893   8.309  46.540  1.00  0.00     0.030 C 
HETATM   24  C6  UNL     1      28.066   8.404  48.038  1.00  0.00     0.275 C 
ENDBRANCH  17  18
ENDBRANCH  15  17
ENDBRANCH  13  15
ENDBRANCH  11  13
ENDBRANCH   1  11
BRANCH   9  25
HETATM   25  C15 UNL     1      26.898   0.893  53.197  1.00  0.00     0.036 A 
HETATM   26  C16 UNL     1      28.103   1.469  53.658  1.00  0.00     0.033 A 
HETATM   27  C17 UNL     1      29.318   0.862  53.888  1.00  0.00     0.046 A 
HETATM   28  C18 UNL     1      29.365  -0.478  53.637  1.00  0.00     0.138 A 
HETATM   29  F1  UNL     1      30.498  -1.188  53.822  1.00  0.00    -0.204 F 
HETATM   30  C19 UNL     1      28.284  -1.184  53.187  1.00  0.00     0.074 A 
HETATM   31 CL1  UNL     1      28.202  -2.882  52.827  1.00  0.00    -0.081 Cl
HETATM   32  C20 UNL     1      27.135  -0.467  52.997  1.00  0.00     0.056 A 
ENDBRANCH   9  25
TORSDOF 6
ENDMDL
MODEL 4
REMARK VINA RESULT:      -8.0      4.552      6.341
REMARK  6 active torsions:
REMARK  status: ('A' for Active; 'I' for Inactive)
REMARK    1  A    between atoms: N1_7  and  C7_8 
REMARK    2  A    between atoms: C7_8  and  N2_9 
REMARK    3  A    between atoms: N2_9  and  C8_10 
REMARK    4  A    between atoms: C8_10  and  N3_12 
REMARK    5  A    between atoms: N3_12  and  C9_13 
REMARK    6  A    between atoms: N6_21  and  C15_22 
ROOT
HETATM    1  C9  UNL     1      25.735   3.454  49.471  1.00  0.00     0.029 C 
HETATM    2  C10 UNL     1      24.663   2.771  49.794  1.00  0.00     0.026 C 
HETATM    3  C11 UNL     1      23.647   3.302  50.752  1.00  0.00     0.029 C 
HETATM    4  C12 UNL     1      23.117   2.130  50.593  1.00  0.00     0.370 A 
HETATM    5  N4  UNL     1      21.985   1.343  51.047  1.00  0.00     0.352 N 
HETATM    6  C13 UNL     1      22.375   0.568  52.125  1.00  0.00     0.398 A 
HETATM    7  N5  UNL     1      23.519   1.293  51.750  1.00  0.00    -0.206 N 
HETATM    8  C14 UNL     1      24.254   1.964  52.562  1.00  0.00     0.158 C 
HETATM    9  N6  UNL     1      25.382   2.614  51.806  1.00  0.00    -0.342 N 
HETATM   10  C21 UNL     1      26.124   3.558  50.944  1.00  0.00     0.186 C 
ENDROOT
BRANCH   1  11
HETATM   11  N3  UNL     1      26.961   4.089  49.013  1.00  0.00    -0.335 N 
HETATM   12  H16 UNL     1      27.860   3.620  48.799  1.00  0.00     0.168 HD
BRANCH  11  13
HETATM   13  C8  UNL     1      26.916   5.509  48.867  1.00  0.00     0.173 C 
HETATM   14  S1  UNL     1      25.548   6.374  48.643  1.00  0.00    -0.041 SA
BRANCH  13  15
HETATM   15  N2  UNL     1      28.102   6.285  48.927  1.00  0.00    -0.342 N 
HETATM   16  H15 UNL     1      28.281   7.046  49.592  1.00  0.00     0.163 HD
BRANCH  15  17
HETATM   17  C7  UNL     1      29.210   6.051  48.008  1.00  0.00     0.397 C 
BRANCH  17  18
HETATM   18  N1  UNL     1      30.383   6.648  48.619  1.00  0.00     0.110 N 
HETATM   19  C2  UNL     1      31.606   6.016  48.169  1.00  0.00     0.221 C 
HETATM   20  C1  UNL     1      31.381   4.673  47.522  1.00  0.00     0.043 C 
HETATM   21  C3  UNL     1      32.457   6.945  47.337  1.00  0.00     0.035 C 
HETATM   22  C4  UNL     1      31.647   7.650  46.287  1.00  0.00     0.004 C 
HETATM   23  C5  UNL     1      30.558   8.449  46.964  1.00  0.00     0.030 C 
HETATM   24  C6  UNL     1      30.413   8.083  48.423  1.00  0.00     0.275 C 
ENDBRANCH  17  18
ENDBRANCH  15  17
ENDBRANCH  13  15
ENDBRANCH  11  13
ENDBRANCH   1  11
BRANCH   9  25
HETATM   25  C15 UNL     1      26.320   1.594  52.244  1.00  0.00     0.036 A 
HETATM   26  C16 UNL     1      27.489   2.001  52.925  1.00  0.00     0.033 A 
HETATM   27  C17 UNL     1      28.498   1.223  53.451  1.00  0.00     0.046 A 
HETATM   28  C18 UNL     1      28.348  -0.123  53.292  1.00  0.00     0.138 A 
HETATM   29  F1  UNL     1      29.268  -0.993  53.762  1.00  0.00    -0.204 F 
HETATM   30  C19 UNL     1      27.272  -0.677  52.656  1.00  0.00     0.074 A 
HETATM   31 CL1  UNL     1      26.955  -2.364  52.384  1.00  0.00    -0.081 Cl
HETATM   32  C20 UNL     1      26.339   0.200  52.178  1.00  0.00     0.056 A 
ENDBRANCH   9  25
TORSDOF 6
ENDMDL
MODEL 5
REMARK VINA RESULT:      -8.0      4.059      5.545
REMARK  6 active torsions:
REMARK  status: ('A' for Active; 'I' for Inactive)
REMARK    1  A    between atoms: N1_7  and  C7_8 
REMARK    2  A    between atoms: C7_8  and  N2_9 
REMARK    3  A    between atoms: N2_9  and  C8_10 
REMARK    4  A    between atoms: C8_10  and  N3_12 
REMARK    5  A    between atoms: N3_12  and  C9_13 
REMARK    6  A    between atoms: N6_21  and  C15_22 
ROOT
HETATM    1  C9  UNL     1      22.493   3.272  50.843  1.00  0.00     0.029 C 
HETATM    2  C10 UNL     1      22.189   4.543  50.942  1.00  0.00     0.026 C 
HETATM    3  C11 UNL     1      21.250   5.208  49.988  1.00  0.00     0.029 C 
HETATM    4  C12 UNL     1      21.584   6.272  50.648  1.00  0.00     0.370 A 
HETATM    5  N4  UNL     1      21.324   7.700  50.674  1.00  0.00     0.352 N 
HETATM    6  C13 UNL     1      22.296   8.351  49.935  1.00  0.00     0.398 A 
HETATM    7  N5  UNL     1      22.618   6.985  49.859  1.00  0.00    -0.206 N 
HETATM    8  C14 UNL     1      22.870   6.357  48.768  1.00  0.00     0.158 C 
HETATM    9  N6  UNL     1      23.165   4.912  49.070  1.00  0.00    -0.342 N 
HETATM   10  C21 UNL     1      22.964   3.486  49.406  1.00  0.00     0.186 C 
ENDROOT
BRANCH   1  11
HETATM   11  N3  UNL     1      22.920   1.882  50.867  1.00  0.00    -0.335 N 
HETATM   12  H16 UNL     1      23.515   1.403  50.166  1.00  0.00     0.168 HD
BRANCH  11  13
HETATM   13  C8  UNL     1      22.449   1.099  51.964  1.00  0.00     0.173 C 
HETATM   14  S1  UNL     1      21.060   0.236  51.956  1.00  0.00    -0.041 SA
BRANCH  13  15
HETATM   15  N2  UNL     1      23.195   1.006  53.167  1.00  0.00    -0.342 N 
HETATM   16  H15 UNL     1      22.805   0.797  54.094  1.00  0.00     0.163 HD
BRANCH  15  17
HETATM   17  C7  UNL     1      24.639   1.209  53.183  1.00  0.00     0.397 C 
BRANCH  17  18
HETATM   18  N1  UNL     1      25.239  -0.106  53.056  1.00  0.00     0.110 N 
HETATM   19  C2  UNL     1      26.487  -0.060  52.323  1.00  0.00     0.221 C 
HETATM   20  C1  UNL     1      26.668   1.210  51.530  1.00  0.00     0.043 C 
HETATM   21  C3  UNL     1      27.674  -0.396  53.193  1.00  0.00     0.035 C 
HETATM   22  C4  UNL     1      27.640   0.354  54.494  1.00  0.00     0.004 C 
HETATM   23  C5  UNL     1      26.370  -0.004  55.230  1.00  0.00     0.030 C 
HETATM   24  C6  UNL     1      25.395  -0.747  54.347  1.00  0.00     0.275 C 
ENDBRANCH  17  18
ENDBRANCH  15  17
ENDBRANCH  13  15
ENDBRANCH  11  13
ENDBRANCH   1  11
BRANCH   9  25
HETATM   25  C15 UNL     1      24.596   5.133  48.943  1.00  0.00     0.036 A 
HETATM   26  C16 UNL     1      25.474   4.083  49.296  1.00  0.00     0.033 A 
HETATM   27  C17 UNL     1      26.850   4.051  49.235  1.00  0.00     0.046 A 
HETATM   28  C18 UNL     1      27.447   5.187  48.773  1.00  0.00     0.138 A 
HETATM   29  F1  UNL     1      28.790   5.282  48.667  1.00  0.00    -0.204 F 
HETATM   30  C19 UNL     1      26.737   6.291  48.390  1.00  0.00     0.074 A 
HETATM   31 CL1  UNL     1      27.362   7.796  47.786  1.00  0.00    -0.081 Cl
HETATM   32  C20 UNL     1      25.377   6.199  48.497  1.00  0.00     0.056 A 
ENDBRANCH   9  25
TORSDOF 6
ENDMDL
MODEL 6
REMARK VINA RESULT:      -7.7      2.953      5.893
REMARK  6 active torsions:
REMARK  status: ('A' for Active; 'I' for Inactive)
REMARK    1  A    between atoms: N1_7  and  C7_8 
REMARK    2  A    between atoms: C7_8  and  N2_9 
REMARK    3  A    between atoms: N2_9  and  C8_10 
REMARK    4  A    between atoms: C8_10  and  N3_12 
REMARK    5  A    between atoms: N3_12  and  C9_13 
REMARK    6  A    between atoms: N6_21  and  C15_22 
ROOT
HETATM    1  C9  UNL     1      23.689   4.217  52.663  1.00  0.00     0.029 C 
HETATM    2  C10 UNL     1      24.478   3.336  53.227  1.00  0.00     0.026 C 
HETATM    3  C11 UNL     1      25.515   2.592  52.451  1.00  0.00     0.029 C 
HETATM    4  C12 UNL     1      25.689   1.974  53.577  1.00  0.00     0.370 A 
HETATM    5  N4  UNL     1      26.493   0.917  54.160  1.00  0.00     0.352 N 
HETATM    6  C13 UNL     1      25.797  -0.277  54.083  1.00  0.00     0.398 A 
HETATM    7  N5  UNL     1      24.956   0.687  53.502  1.00  0.00    -0.206 N 
HETATM    8  C14 UNL     1      24.381   0.557  52.360  1.00  0.00     0.158 C 
HETATM    9  N6  UNL     1      23.567   1.788  52.059  1.00  0.00    -0.342 N 
HETATM   10  C21 UNL     1      23.216   3.167  51.660  1.00  0.00     0.186 C 
ENDROOT
BRANCH   1  11
HETATM   11  N3  UNL     1      22.751   5.221  52.185  1.00  0.00    -0.335 N 
HETATM   12  H16 UNL     1      21.733   5.262  52.379  1.00  0.00     0.168 HD
BRANCH  11  13
HETATM   13  C8  UNL     1      23.294   6.238  51.343  1.00  0.00     0.173 C 
HETATM   14  S1  UNL     1      22.402   7.343  50.533  1.00  0.00    -0.041 SA
BRANCH  13  15
HETATM   15  N2  UNL     1      24.696   6.366  51.165  1.00  0.00    -0.342 N 
HETATM   16  H15 UNL     1      25.374   6.560  51.911  1.00  0.00     0.163 HD
BRANCH  15  17
HETATM   17  C7  UNL     1      25.310   6.227  49.850  1.00  0.00     0.397 C 
BRANCH  17  18
HETATM   18  N1  UNL     1      26.272   7.306  49.731  1.00  0.00     0.110 N 
HETATM   19  C2  UNL     1      27.333   6.982  48.800  1.00  0.00     0.221 C 
HETATM   20  C1  UNL     1      27.431   5.509  48.494  1.00  0.00     0.043 C 
HETATM   21  C3  UNL     1      27.293   7.848  47.563  1.00  0.00     0.035 C 
HETATM   22  C4  UNL     1      25.908   7.933  46.989  1.00  0.00     0.004 C 
HETATM   23  C5  UNL     1      24.982   8.516  48.031  1.00  0.00     0.030 C 
HETATM   24  C6  UNL     1      25.627   8.560  49.397  1.00  0.00     0.275 C 
ENDBRANCH  17  18
ENDBRANCH  15  17
ENDBRANCH  13  15
ENDBRANCH  11  13
ENDBRANCH   1  11
BRANCH   9  25
HETATM   25  C15 UNL     1      22.335   1.118  52.440  1.00  0.00     0.036 A 
HETATM   26  C16 UNL     1      21.110   1.637  51.964  1.00  0.00     0.033 A 
HETATM   27  C17 UNL     1      19.833   1.163  52.168  1.00  0.00     0.046 A 
HETATM   28  C18 UNL     1      19.736   0.039  52.935  1.00  0.00     0.138 A 
HETATM   29  F1  UNL     1      18.540  -0.524  53.210  1.00  0.00    -0.204 F 
HETATM   30  C19 UNL     1      20.828  -0.586  53.471  1.00  0.00     0.074 A 
HETATM   31 CL1  UNL     1      20.853  -2.015  54.460  1.00  0.00    -0.081 Cl
HETATM   32  C20 UNL     1      22.041  -0.018  53.196  1.00  0.00     0.056 A 
ENDBRANCH   9  25
TORSDOF 6
ENDMDL
MODEL 7
REMARK VINA RESULT:      -7.7      4.116      5.864
REMARK  6 active torsions:
REMARK  status: ('A' for Active; 'I' for Inactive)
REMARK    1  A    between atoms: N1_7  and  C7_8 
REMARK    2  A    between atoms: C7_8  and  N2_9 
REMARK    3  A    between atoms: N2_9  and  C8_10 
REMARK    4  A    between atoms: C8_10  and  N3_12 
REMARK    5  A    between atoms: N3_12  and  C9_13 
REMARK    6  A    between atoms: N6_21  and  C15_22 
ROOT
HETATM    1  C9  UNL     1      24.757   5.094  49.800  1.00  0.00     0.029 C 
HETATM    2  C10 UNL     1      23.980   4.290  49.115  1.00  0.00     0.026 C 
HETATM    3  C11 UNL     1      22.493   4.320  49.255  1.00  0.00     0.029 C 
HETATM    4  C12 UNL     1      22.555   3.301  48.456  1.00  0.00     0.370 A 
HETATM    5  N4  UNL     1      21.689   2.345  47.793  1.00  0.00     0.352 N 
HETATM    6  C13 UNL     1      21.586   1.207  48.574  1.00  0.00     0.398 A 
HETATM    7  N5  UNL     1      22.436   2.075  49.282  1.00  0.00    -0.206 N 
HETATM    8  C14 UNL     1      22.298   2.374  50.524  1.00  0.00     0.158 C 
HETATM    9  N6  UNL     1      23.382   3.334  50.937  1.00  0.00    -0.342 N 
HETATM   10  C21 UNL     1      24.150   4.586  51.106  1.00  0.00     0.186 C 
ENDROOT
BRANCH   1  11
HETATM   11  N3  UNL     1      25.744   5.918  50.479  1.00  0.00    -0.335 N 
HETATM   12  H16 UNL     1      26.492   5.592  51.119  1.00  0.00     0.168 HD
BRANCH  11  13
HETATM   13  C8  UNL     1      25.651   7.325  50.252  1.00  0.00     0.173 C 
HETATM   14  S1  UNL     1      24.288   8.100  49.788  1.00  0.00    -0.041 SA
BRANCH  13  15
HETATM   15  N2  UNL     1      26.776   8.169  50.439  1.00  0.00    -0.342 N 
HETATM   16  H15 UNL     1      27.128   8.500  51.344  1.00  0.00     0.163 HD
BRANCH  15  17
HETATM   17  C7  UNL     1      27.556   8.656  49.306  1.00  0.00     0.397 C 
BRANCH  17  18
HETATM   18  N1  UNL     1      27.470   7.633  48.280  1.00  0.00     0.110 N 
HETATM   19  C2  UNL     1      27.194   8.200  46.976  1.00  0.00     0.221 C 
HETATM   20  C1  UNL     1      26.666   9.611  47.038  1.00  0.00     0.043 C 
HETATM   21  C3  UNL     1      28.355   8.037  46.024  1.00  0.00     0.035 C 
HETATM   22  C4  UNL     1      29.655   8.436  46.660  1.00  0.00     0.004 C 
HETATM   23  C5  UNL     1      29.889   7.572  47.878  1.00  0.00     0.030 C 
HETATM   24  C6  UNL     1      28.652   6.795  48.264  1.00  0.00     0.275 C 
ENDBRANCH  17  18
ENDBRANCH  15  17
ENDBRANCH  13  15
ENDBRANCH  11  13
ENDBRANCH   1  11
BRANCH   9  25
HETATM   25  C15 UNL     1      24.143   2.268  51.569  1.00  0.00     0.036 A 
HETATM   26  C16 UNL     1      25.517   2.148  51.263  1.00  0.00     0.033 A 
HETATM   27  C17 UNL     1      26.435   1.244  51.753  1.00  0.00     0.046 A 
HETATM   28  C18 UNL     1      25.952   0.343  52.655  1.00  0.00     0.138 A 
HETATM   29  F1  UNL     1      26.750  -0.595  53.208  1.00  0.00    -0.204 F 
HETATM   30  C19 UNL     1      24.645   0.327  53.057  1.00  0.00     0.074 A 
HETATM   31 CL1  UNL     1      23.898  -0.758  54.190  1.00  0.00    -0.081 Cl
HETATM   32  C20 UNL     1      23.833   1.274  52.498  1.00  0.00     0.056 A 
ENDBRANCH   9  25
TORSDOF 6
ENDMDL
MODEL 8
REMARK VINA RESULT:      -7.7      4.457      5.629
REMARK  6 active torsions:
REMARK  status: ('A' for Active; 'I' for Inactive)
REMARK    1  A    between atoms: N1_7  and  C7_8 
REMARK    2  A    between atoms: C7_8  and  N2_9 
REMARK    3  A    between atoms: N2_9  and  C8_10 
REMARK    4  A    between atoms: C8_10  and  N3_12 
REMARK    5  A    between atoms: N3_12  and  C9_13 
REMARK    6  A    between atoms: N6_21  and  C15_22 
ROOT
HETATM    1  C9  UNL     1      25.202   4.151  49.511  1.00  0.00     0.029 C 
HETATM    2  C10 UNL     1      24.217   3.442  49.017  1.00  0.00     0.026 C 
HETATM    3  C11 UNL     1      22.787   3.822  49.226  1.00  0.00     0.029 C 
HETATM    4  C12 UNL     1      22.564   2.702  48.613  1.00  0.00     0.370 A 
HETATM    5  N4  UNL     1      21.461   1.869  48.170  1.00  0.00     0.352 N 
HETATM    6  C13 UNL     1      21.192   0.919  49.140  1.00  0.00     0.398 A 
HETATM    7  N5  UNL     1      22.263   1.678  49.643  1.00  0.00    -0.206 N 
HETATM    8  C14 UNL     1      22.302   2.191  50.820  1.00  0.00     0.158 C 
HETATM    9  N6  UNL     1      23.595   2.939  51.005  1.00  0.00    -0.342 N 
HETATM   10  C21 UNL     1      24.619   4.001  50.915  1.00  0.00     0.186 C 
ENDROOT
BRANCH   1  11
HETATM   11  N3  UNL     1      26.396   4.833  49.986  1.00  0.00    -0.335 N 
HETATM   12  H16 UNL     1      26.834   4.739  50.921  1.00  0.00     0.168 HD
BRANCH  11  13
HETATM   13  C8  UNL     1      27.008   5.740  49.069  1.00  0.00     0.173 C 
HETATM   14  S1  UNL     1      26.214   6.925  48.271  1.00  0.00    -0.041 SA
BRANCH  13  15
HETATM   15  N2  UNL     1      28.399   5.675  48.798  1.00  0.00    -0.342 N 
HETATM   16  H15 UNL     1      29.000   4.861  48.968  1.00  0.00     0.163 HD
BRANCH  15  17
HETATM   17  C7  UNL     1      29.116   6.811  48.230  1.00  0.00     0.397 C 
BRANCH  17  18
HETATM   18  N1  UNL     1      30.412   6.310  47.813  1.00  0.00     0.110 N 
HETATM   19  C2  UNL     1      30.980   7.108  46.745  1.00  0.00     0.221 C 
HETATM   20  C1  UNL     1      29.968   7.983  46.050  1.00  0.00     0.043 C 
HETATM   21  C3  UNL     1      32.215   7.857  47.185  1.00  0.00     0.035 C 
HETATM   22  C4  UNL     1      32.003   8.556  48.496  1.00  0.00     0.004 C 
HETATM   23  C5  UNL     1      31.647   7.530  49.547  1.00  0.00     0.030 C 
HETATM   24  C6  UNL     1      31.321   6.187  48.935  1.00  0.00     0.275 C 
ENDBRANCH  17  18
ENDBRANCH  15  17
ENDBRANCH  13  15
ENDBRANCH  11  13
ENDBRANCH   1  11
BRANCH   9  25
HETATM   25  C15 UNL     1      24.168   1.845  51.770  1.00  0.00     0.036 A 
HETATM   26  C16 UNL     1      25.541   1.556  51.609  1.00  0.00     0.033 A 
HETATM   27  C17 UNL     1      26.302   0.595  52.239  1.00  0.00     0.046 A 
HETATM   28  C18 UNL     1      25.639  -0.184  53.141  1.00  0.00     0.138 A 
HETATM   29  F1  UNL     1      26.271  -1.162  53.824  1.00  0.00    -0.204 F 
HETATM   30  C19 UNL     1      24.307  -0.031  53.412  1.00  0.00     0.074 A 
HETATM   31 CL1  UNL     1      23.341  -0.947  54.529  1.00  0.00    -0.081 Cl
HETATM   32  C20 UNL     1      23.663   0.957  52.721  1.00  0.00     0.056 A 
ENDBRANCH   9  25
TORSDOF 6
ENDMDL
MODEL 9
REMARK VINA RESULT:      -7.7      3.347      4.645
REMARK  6 active torsions:
REMARK  status: ('A' for Active; 'I' for Inactive)
REMARK    1  A    between atoms: N1_7  and  C7_8 
REMARK    2  A    between atoms: C7_8  and  N2_9 
REMARK    3  A    between atoms: N2_9  and  C8_10 
REMARK    4  A    between atoms: C8_10  and  N3_12 
REMARK    5  A    between atoms: N3_12  and  C9_13 
REMARK    6  A    between atoms: N6_21  and  C15_22 
ROOT
HETATM    1  C9  UNL     1      21.209   0.357  52.103  1.00  0.00     0.029 C 
HETATM    2  C10 UNL     1      20.110   1.070  52.083  1.00  0.00     0.026 C 
HETATM    3  C11 UNL     1      19.175   1.051  50.917  1.00  0.00     0.029 C 
HETATM    4  C12 UNL     1      18.561   1.969  51.596  1.00  0.00     0.370 A 
HETATM    5  N4  UNL     1      17.401   2.836  51.509  1.00  0.00     0.352 N 
HETATM    6  C13 UNL     1      17.786   4.058  50.985  1.00  0.00     0.398 A 
HETATM    7  N5  UNL     1      18.958   3.284  51.035  1.00  0.00    -0.206 N 
HETATM    8  C14 UNL     1      19.773   3.132  50.054  1.00  0.00     0.158 C 
HETATM    9  N6  UNL     1      20.906   2.233  50.469  1.00  0.00    -0.342 N 
HETATM   10  C21 UNL     1      21.671   1.013  50.803  1.00  0.00     0.186 C 
ENDROOT
BRANCH   1  11
HETATM   11  N3  UNL     1      22.452  -0.378  52.276  1.00  0.00    -0.335 N 
HETATM   12  H16 UNL     1      23.132  -0.630  51.535  1.00  0.00     0.168 HD
BRANCH  11  13
HETATM   13  C8  UNL     1      22.748  -0.810  53.604  1.00  0.00     0.173 C 
HETATM   14  S1  UNL     1      21.703  -1.618  54.568  1.00  0.00    -0.041 SA
BRANCH  13  15
HETATM   15  N2  UNL     1      24.020  -0.570  54.183  1.00  0.00    -0.342 N 
HETATM   16  H15 UNL     1      24.221  -0.549  55.189  1.00  0.00     0.163 HD
BRANCH  15  17
HETATM   17  C7  UNL     1      25.196  -0.322  53.356  1.00  0.00     0.397 C 
BRANCH  17  18
HETATM   18  N1  UNL     1      25.741   0.950  53.790  1.00  0.00     0.110 N 
HETATM   19  C2  UNL     1      27.164   1.043  53.533  1.00  0.00     0.221 C 
HETATM   20  C1  UNL     1      27.812  -0.293  53.271  1.00  0.00     0.043 C 
HETATM   21  C3  UNL     1      27.490   2.081  52.486  1.00  0.00     0.035 C 
HETATM   22  C4  UNL     1      26.603   1.951  51.281  1.00  0.00     0.004 C 
HETATM   23  C5  UNL     1      25.165   2.118  51.712  1.00  0.00     0.030 C 
HETATM   24  C6  UNL     1      25.016   2.065  53.214  1.00  0.00     0.275 C 
ENDBRANCH  17  18
ENDBRANCH  15  17
ENDBRANCH  13  15
ENDBRANCH  11  13
ENDBRANCH   1  11
BRANCH   9  25
HETATM   25  C15 UNL     1      21.793   3.369  50.661  1.00  0.00     0.036 A 
HETATM   26  C16 UNL     1      21.938   3.898  51.963  1.00  0.00     0.033 A 
HETATM   27  C17 UNL     1      22.731   4.941  52.388  1.00  0.00     0.046 A 
HETATM   28  C18 UNL     1      23.478   5.547  51.421  1.00  0.00     0.138 A 
HETATM   29  F1  UNL     1      24.295   6.583  51.708  1.00  0.00    -0.204 F 
HETATM   30  C19 UNL     1      23.450   5.153  50.111  1.00  0.00     0.074 A 
HETATM   31 CL1  UNL     1      24.342   5.830  48.782  1.00  0.00    -0.081 Cl
HETATM   32  C20 UNL     1      22.623   4.106  49.816  1.00  0.00     0.056 A 
ENDBRANCH   9  25
TORSDOF 6
ENDMDL
