MODEL 1
REMARK VINA RESULT:      -7.1      0.000      0.000
REMARK  5 active torsions:
REMARK  status: ('A' for Active; 'I' for Inactive)
REMARK    1  A    between atoms: C16_20  and  O2_21 
REMARK    2  A    between atoms: C18_23  and  O3_24 
REMARK    3  A    between atoms: O3_24  and  C19_25 
REMARK    4  A    between atoms: C19_25  and  C20_26 
REMARK    5  A    between atoms: C20_26  and  O4_27 
ROOT
HETATM    1  C1  UNL     1      27.605   4.734  48.752  1.00  0.00     0.017 C 
HETATM    2  C2  UNL     1      26.595   4.311  49.298  1.00  0.00    -0.079 C 
HETATM    3  C3  UNL     1      25.423   3.817  49.957  1.00  0.00     0.039 C 
HETATM    4  C4  UNL     1      25.372   2.771  50.791  1.00  0.00     0.065 C 
HETATM    5  C5  UNL     1      26.078   1.619  51.524  1.00  0.00    -0.018 C 
HETATM    6  C6  UNL     1      25.290   0.802  52.310  1.00  0.00    -0.011 C 
HETATM    7  C7  UNL     1      24.272   0.066  53.079  1.00  0.00     0.148 C 
HETATM    8  N1  UNL     1      23.009   0.582  52.997  1.00  0.00    -0.374 N 
HETATM    9  C8  UNL     1      21.735   1.098  52.901  1.00  0.00     0.106 C 
HETATM   10  N2  UNL     1      21.365  -0.057  52.370  1.00  0.00    -0.217 NA
HETATM   11  C9  UNL     1      19.922  -0.059  52.055  1.00  0.00     0.300 C 
HETATM   12  N3  UNL     1      19.901   0.600  51.012  1.00  0.00    -0.411 NA
HETATM   13  C10 UNL     1      19.623   1.247  49.926  1.00  0.00     0.186 C 
HETATM   14  C11 UNL     1      19.869   2.554  49.846  1.00  0.00     0.068 C 
HETATM   15  C12 UNL     1      20.418   3.528  50.822  1.00  0.00     0.068 C 
HETATM   16  C13 UNL     1      20.655   3.087  52.035  1.00  0.00     0.017 C 
HETATM   17  C14 UNL     1      20.635   1.992  53.011  1.00  0.00     0.108 C 
HETATM   18  O1  UNL     1      20.511   4.667  50.081  1.00  0.00    -0.345 OA
HETATM   19  C15 UNL     1      21.596   5.564  50.278  1.00  0.00     0.243 C 
HETATM   20  C16 UNL     1      22.921   4.932  50.200  1.00  0.00     0.104 C 
HETATM   21  C18 UNL     1      24.137   4.478  49.999  1.00  0.00     0.115 C 
HETATM   22  H7  UNL     1      22.814   0.985  53.987  1.00  0.00     0.161 HD
ENDROOT
BRANCH  21  23
HETATM   23  O3  UNL     1      24.325   5.351  49.050  1.00  0.00    -0.345 OA
BRANCH  23  24
HETATM   24  C19 UNL     1      23.849   6.334  48.272  1.00  0.00     0.202 C 
BRANCH  24  25
HETATM   25  C20 UNL     1      24.839   7.530  48.392  1.00  0.00     0.193 C 
BRANCH  25  26
HETATM   26  O4  UNL     1      25.142   7.808  49.656  1.00  0.00    -0.394 OA
HETATM   27  C21 UNL     1      26.420   8.121  49.954  1.00  0.00     0.201 C 
ENDBRANCH  25  26
ENDBRANCH  24  25
ENDBRANCH  23  24
ENDBRANCH  21  23
BRANCH  20  28
HETATM   28  O2  UNL     1      23.204   3.946  51.257  1.00  0.00    -0.355 OA
HETATM   29  C17 UNL     1      23.315   4.812  52.506  1.00  0.00     0.209 C 
ENDBRANCH  20  28
TORSDOF 5
ENDMDL
MODEL 2
REMARK VINA RESULT:      -6.9      2.327      5.155
REMARK  5 active torsions:
REMARK  status: ('A' for Active; 'I' for Inactive)
REMARK    1  A    between atoms: C16_20  and  O2_21 
REMARK    2  A    between atoms: C18_23  and  O3_24 
REMARK    3  A    between atoms: O3_24  and  C19_25 
REMARK    4  A    between atoms: C19_25  and  C20_26 
REMARK    5  A    between atoms: C20_26  and  O4_27 
ROOT
HETATM    1  C1  UNL     1      25.284  -0.881  54.806  1.00  0.00     0.017 C 
HETATM    2  C2  UNL     1      24.619  -0.211  54.028  1.00  0.00    -0.079 C 
HETATM    3  C3  UNL     1      23.829   0.581  53.134  1.00  0.00     0.039 C 
HETATM    4  C4  UNL     1      22.498   0.517  52.994  1.00  0.00     0.065 C 
HETATM    5  C5  UNL     1      21.148  -0.104  53.386  1.00  0.00    -0.018 C 
HETATM    6  C6  UNL     1      20.031   0.359  52.722  1.00  0.00    -0.011 C 
HETATM    7  C7  UNL     1      18.987   0.991  51.896  1.00  0.00     0.148 C 
HETATM    8  N1  UNL     1      19.438   1.964  51.049  1.00  0.00    -0.374 N 
HETATM    9  C8  UNL     1      19.899   2.935  50.188  1.00  0.00     0.106 C 
HETATM   10  N2  UNL     1      19.450   2.187  49.191  1.00  0.00    -0.217 NA
HETATM   11  C9  UNL     1      19.696   2.836  47.888  1.00  0.00     0.300 C 
HETATM   12  N3  UNL     1      20.896   2.601  47.723  1.00  0.00    -0.411 NA
HETATM   13  C10 UNL     1      22.122   2.483  47.326  1.00  0.00     0.186 C 
HETATM   14  C11 UNL     1      23.109   3.026  48.038  1.00  0.00     0.068 C 
HETATM   15  C12 UNL     1      23.115   3.832  49.285  1.00  0.00     0.068 C 
HETATM   16  C13 UNL     1      21.948   4.164  49.785  1.00  0.00     0.017 C 
HETATM   17  C14 UNL     1      20.483   4.138  49.707  1.00  0.00     0.108 C 
HETATM   18  O1  UNL     1      24.446   3.977  49.535  1.00  0.00    -0.345 OA
HETATM   19  C15 UNL     1      24.929   3.968  50.872  1.00  0.00     0.243 C 
HETATM   20  C16 UNL     1      24.506   2.800  51.656  1.00  0.00     0.104 C 
HETATM   21  C18 UNL     1      24.298   1.722  52.378  1.00  0.00     0.115 C 
HETATM   22  H7  UNL     1      19.039   2.888  51.459  1.00  0.00     0.161 HD
ENDROOT
BRANCH  21  23
HETATM   23  O3  UNL     1      25.582   1.541  52.510  1.00  0.00    -0.345 OA
BRANCH  23  24
HETATM   24  C19 UNL     1      26.790   1.386  51.953  1.00  0.00     0.202 C 
BRANCH  24  25
HETATM   25  C20 UNL     1      27.827   2.016  52.930  1.00  0.00     0.193 C 
BRANCH  25  26
HETATM   26  O4  UNL     1      27.713   1.535  54.164  1.00  0.00    -0.394 OA
HETATM   27  C21 UNL     1      28.658   0.680  54.608  1.00  0.00     0.201 C 
ENDBRANCH  25  26
ENDBRANCH  24  25
ENDBRANCH  23  24
ENDBRANCH  21  23
BRANCH  20  28
HETATM   28  O2  UNL     1      23.057   2.708  51.904  1.00  0.00    -0.355 OA
HETATM   29  C17 UNL     1      22.781   3.941  52.757  1.00  0.00     0.209 C 
ENDBRANCH  20  28
TORSDOF 5
ENDMDL
MODEL 3
REMARK VINA RESULT:      -6.4      3.787      7.575
REMARK  5 active torsions:
REMARK  status: ('A' for Active; 'I' for Inactive)
REMARK    1  A    between atoms: C16_20  and  O2_21 
REMARK    2  A    between atoms: C18_23  and  O3_24 
REMARK    3  A    between atoms: O3_24  and  C19_25 
REMARK    4  A    between atoms: C19_25  and  C20_26 
REMARK    5  A    between atoms: C20_26  and  O4_27 
ROOT
HETATM    1  C1  UNL     1      17.717  -2.081  53.482  1.00  0.00     0.017 C 
HETATM    2  C2  UNL     1      18.111  -1.187  52.746  1.00  0.00    -0.079 C 
HETATM    3  C3  UNL     1      18.556  -0.129  51.889  1.00  0.00     0.039 C 
HETATM    4  C4  UNL     1      17.855   0.418  50.888  1.00  0.00     0.065 C 
HETATM    5  C5  UNL     1      16.574   0.483  50.041  1.00  0.00    -0.018 C 
HETATM    6  C6  UNL     1      16.552   1.400  49.010  1.00  0.00    -0.011 C 
HETATM    7  C7  UNL     1      16.745   2.431  47.976  1.00  0.00     0.148 C 
HETATM    8  N1  UNL     1      17.944   3.086  48.038  1.00  0.00    -0.374 N 
HETATM    9  C8  UNL     1      19.158   3.733  48.097  1.00  0.00     0.106 C 
HETATM   10  N2  UNL     1      19.405   3.265  46.883  1.00  0.00    -0.217 NA
HETATM   11  C9  UNL     1      20.723   3.721  46.397  1.00  0.00     0.300 C 
HETATM   12  N3  UNL     1      21.482   2.964  47.008  1.00  0.00    -0.411 NA
HETATM   13  C10 UNL     1      22.465   2.297  47.521  1.00  0.00     0.186 C 
HETATM   14  C11 UNL     1      22.685   2.337  48.835  1.00  0.00     0.068 C 
HETATM   15  C12 UNL     1      22.007   3.061  49.939  1.00  0.00     0.068 C 
HETATM   16  C13 UNL     1      21.048   3.892  49.606  1.00  0.00     0.017 C 
HETATM   17  C14 UNL     1      20.233   4.535  48.570  1.00  0.00     0.108 C 
HETATM   18  O1  UNL     1      22.651   2.586  51.041  1.00  0.00    -0.345 OA
HETATM   19  C15 UNL     1      21.937   2.368  52.250  1.00  0.00     0.243 C 
HETATM   20  C16 UNL     1      20.741   1.527  52.100  1.00  0.00     0.104 C 
HETATM   21  C18 UNL     1      19.748   0.667  52.080  1.00  0.00     0.115 C 
HETATM   22  H7  UNL     1      17.688   4.093  48.355  1.00  0.00     0.161 HD
ENDROOT
BRANCH  21  23
HETATM   23  O3  UNL     1      20.352  -0.077  52.963  1.00  0.00    -0.345 OA
BRANCH  23  24
HETATM   24  C19 UNL     1      21.073  -0.182  54.088  1.00  0.00     0.202 C 
BRANCH  24  25
HETATM   25  C20 UNL     1      21.542  -1.663  54.193  1.00  0.00     0.193 C 
BRANCH  25  26
HETATM   26  O4  UNL     1      22.147  -1.919  55.350  1.00  0.00    -0.394 OA
HETATM   27  C21 UNL     1      23.360  -1.372  55.572  1.00  0.00     0.201 C 
ENDBRANCH  25  26
ENDBRANCH  24  25
ENDBRANCH  23  24
ENDBRANCH  21  23
BRANCH  20  28
HETATM   28  O2  UNL     1      19.673   2.106  51.268  1.00  0.00    -0.355 OA
HETATM   29  C17 UNL     1      19.206   3.296  52.100  1.00  0.00     0.209 C 
ENDBRANCH  20  28
TORSDOF 5
ENDMDL
MODEL 4
REMARK VINA RESULT:      -6.3      2.659      4.025
REMARK  5 active torsions:
REMARK  status: ('A' for Active; 'I' for Inactive)
REMARK    1  A    between atoms: C16_20  and  O2_21 
REMARK    2  A    between atoms: C18_23  and  O3_24 
REMARK    3  A    between atoms: O3_24  and  C19_25 
REMARK    4  A    between atoms: C19_25  and  C20_26 
REMARK    5  A    between atoms: C20_26  and  O4_27 
ROOT
HETATM    1  C1  UNL     1      29.802   5.469  48.030  1.00  0.00     0.017 C 
HETATM    2  C2  UNL     1      28.604   5.478  48.282  1.00  0.00    -0.079 C 
HETATM    3  C3  UNL     1      27.208   5.487  48.599  1.00  0.00     0.039 C 
HETATM    4  C4  UNL     1      26.554   4.549  49.297  1.00  0.00     0.065 C 
HETATM    5  C5  UNL     1      26.559   3.219  50.066  1.00  0.00    -0.018 C 
HETATM    6  C6  UNL     1      25.350   2.781  50.566  1.00  0.00    -0.011 C 
HETATM    7  C7  UNL     1      23.970   2.506  51.003  1.00  0.00     0.148 C 
HETATM    8  N1  UNL     1      23.063   3.475  50.675  1.00  0.00    -0.374 N 
HETATM    9  C8  UNL     1      22.150   4.447  50.331  1.00  0.00     0.106 C 
HETATM   10  N2  UNL     1      21.515   3.525  49.623  1.00  0.00    -0.217 NA
HETATM   11  C9  UNL     1      20.310   4.085  48.980  1.00  0.00     0.300 C 
HETATM   12  N3  UNL     1      20.804   4.692  48.026  1.00  0.00    -0.411 NA
HETATM   13  C10 UNL     1      21.076   5.389  46.970  1.00  0.00     0.186 C 
HETATM   14  C11 UNL     1      21.812   6.495  47.071  1.00  0.00     0.068 C 
HETATM   15  C12 UNL     1      22.425   7.184  48.234  1.00  0.00     0.068 C 
HETATM   16  C13 UNL     1      22.162   6.694  49.423  1.00  0.00     0.017 C 
HETATM   17  C14 UNL     1      21.482   5.700  50.261  1.00  0.00     0.108 C 
HETATM   18  O1  UNL     1      23.127   8.190  47.644  1.00  0.00    -0.345 OA
HETATM   19  C15 UNL     1      24.384   8.593  48.172  1.00  0.00     0.243 C 
HETATM   20  C16 UNL     1      25.342   7.493  48.349  1.00  0.00     0.104 C 
HETATM   21  C18 UNL     1      26.304   6.598  48.399  1.00  0.00     0.115 C 
HETATM   22  H7  UNL     1      22.793   3.929  51.625  1.00  0.00     0.161 HD
ENDROOT
BRANCH  21  23
HETATM   23  O3  UNL     1      27.042   7.322  47.604  1.00  0.00    -0.345 OA
BRANCH  23  24
HETATM   24  C19 UNL     1      27.148   8.316  46.713  1.00  0.00     0.202 C 
BRANCH  24  25
HETATM   25  C20 UNL     1      28.398   9.155  47.112  1.00  0.00     0.193 C 
BRANCH  25  26
HETATM   26  O4  UNL     1      28.737   8.978  48.386  1.00  0.00    -0.394 OA
HETATM   27  C21 UNL     1      29.285  10.016  49.053  1.00  0.00     0.201 C 
ENDBRANCH  25  26
ENDBRANCH  24  25
ENDBRANCH  23  24
ENDBRANCH  21  23
BRANCH  20  28
HETATM   28  O2  UNL     1      24.954   6.482  49.347  1.00  0.00    -0.355 OA
HETATM   29  C17 UNL     1      25.097   7.236  50.665  1.00  0.00     0.209 C 
ENDBRANCH  20  28
TORSDOF 5
ENDMDL
MODEL 5
REMARK VINA RESULT:      -6.2      6.167     10.339
REMARK  5 active torsions:
REMARK  status: ('A' for Active; 'I' for Inactive)
REMARK    1  A    between atoms: C16_20  and  O2_21 
REMARK    2  A    between atoms: C18_23  and  O3_24 
REMARK    3  A    between atoms: O3_24  and  C19_25 
REMARK    4  A    between atoms: C19_25  and  C20_26 
REMARK    5  A    between atoms: C20_26  and  O4_27 
ROOT
HETATM    1  C1  UNL     1      26.777   4.061  49.156  1.00  0.00     0.017 C 
HETATM    2  C2  UNL     1      27.403   5.029  48.744  1.00  0.00    -0.079 C 
HETATM    3  C3  UNL     1      28.141   6.149  48.244  1.00  0.00     0.039 C 
HETATM    4  C4  UNL     1      29.423   6.137  47.859  1.00  0.00     0.065 C 
HETATM    5  C5  UNL     1      30.743   5.377  47.653  1.00  0.00    -0.018 C 
HETATM    6  C6  UNL     1      31.816   6.104  47.180  1.00  0.00    -0.011 C 
HETATM    7  C7  UNL     1      32.816   7.063  46.678  1.00  0.00     0.148 C 
HETATM    8  N1  UNL     1      32.345   8.331  46.481  1.00  0.00    -0.374 N 
HETATM    9  C8  UNL     1      31.869   9.610  46.297  1.00  0.00     0.106 C 
HETATM   10  N2  UNL     1      32.755  10.011  47.196  1.00  0.00    -0.217 NA
HETATM   11  C9  UNL     1      32.683  11.472  47.396  1.00  0.00     0.300 C 
HETATM   12  N3  UNL     1      31.685  11.570  48.116  1.00  0.00    -0.411 NA
HETATM   13  C10 UNL     1      30.691  11.926  48.863  1.00  0.00     0.186 C 
HETATM   14  C11 UNL     1      29.440  11.692  48.465  1.00  0.00     0.068 C 
HETATM   15  C12 UNL     1      28.882  11.081  47.234  1.00  0.00     0.068 C 
HETATM   16  C13 UNL     1      29.734  10.757  46.290  1.00  0.00     0.017 C 
HETATM   17  C14 UNL     1      31.114  10.704  45.793  1.00  0.00     0.108 C 
HETATM   18  O1  UNL     1      27.547  11.045  47.502  1.00  0.00    -0.345 OA
HETATM   19  C15 UNL     1      26.755   9.952  47.054  1.00  0.00     0.243 C 
HETATM   20  C16 UNL     1      27.272   8.634  47.445  1.00  0.00     0.104 C 
HETATM   21  C18 UNL     1      27.582   7.432  47.878  1.00  0.00     0.115 C 
HETATM   22  H7  UNL     1      32.344   8.457  45.402  1.00  0.00     0.161 HD
ENDROOT
BRANCH  21  23
HETATM   23  O3  UNL     1      26.414   7.315  48.443  1.00  0.00    -0.345 OA
BRANCH  23  24
HETATM   24  C19 UNL     1      25.342   7.886  49.010  1.00  0.00     0.202 C 
BRANCH  24  25
HETATM   25  C20 UNL     1      25.188   7.261  50.428  1.00  0.00     0.193 C 
BRANCH  25  26
HETATM   26  O4  UNL     1      24.007   6.673  50.594  1.00  0.00    -0.394 OA
HETATM   27  C21 UNL     1      23.946   5.566  51.363  1.00  0.00     0.201 C 
ENDBRANCH  25  26
ENDBRANCH  24  25
ENDBRANCH  23  24
ENDBRANCH  21  23
BRANCH  20  28
HETATM   28  O2  UNL     1      28.571   8.273  46.852  1.00  0.00    -0.355 OA
HETATM   29  C17 UNL     1      28.237   8.126  45.372  1.00  0.00     0.209 C 
ENDBRANCH  20  28
TORSDOF 5
ENDMDL
MODEL 6
REMARK VINA RESULT:      -6.1      4.096      6.071
REMARK  5 active torsions:
REMARK  status: ('A' for Active; 'I' for Inactive)
REMARK    1  A    between atoms: C16_20  and  O2_21 
REMARK    2  A    between atoms: C18_23  and  O3_24 
REMARK    3  A    between atoms: O3_24  and  C19_25 
REMARK    4  A    between atoms: C19_25  and  C20_26 
REMARK    5  A    between atoms: C20_26  and  O4_27 
ROOT
HETATM    1  C1  UNL     1      30.765   7.419  46.451  1.00  0.00     0.017 C 
HETATM    2  C2  UNL     1      29.639   7.402  46.931  1.00  0.00    -0.079 C 
HETATM    3  C3  UNL     1      28.331   7.375  47.512  1.00  0.00     0.039 C 
HETATM    4  C4  UNL     1      27.767   6.330  48.132  1.00  0.00     0.065 C 
HETATM    5  C5  UNL     1      27.839   4.872  48.613  1.00  0.00    -0.018 C 
HETATM    6  C6  UNL     1      26.722   4.367  49.248  1.00  0.00    -0.011 C 
HETATM    7  C7  UNL     1      25.436   4.039  49.887  1.00  0.00     0.148 C 
HETATM    8  N1  UNL     1      24.542   5.072  49.937  1.00  0.00    -0.374 N 
HETATM    9  C8  UNL     1      23.640   6.112  49.975  1.00  0.00     0.106 C 
HETATM   10  N2  UNL     1      22.829   5.364  49.242  1.00  0.00    -0.217 NA
HETATM   11  C9  UNL     1      21.559   6.067  48.969  1.00  0.00     0.300 C 
HETATM   12  N3  UNL     1      21.900   6.843  48.072  1.00  0.00    -0.411 NA
HETATM   13  C10 UNL     1      22.007   7.731  47.138  1.00  0.00     0.186 C 
HETATM   14  C11 UNL     1      22.813   8.780  47.303  1.00  0.00     0.068 C 
HETATM   15  C12 UNL     1      23.675   9.208  48.433  1.00  0.00     0.068 C 
HETATM   16  C13 UNL     1      23.613   8.495  49.533  1.00  0.00     0.017 C 
HETATM   17  C14 UNL     1      23.047   7.367  50.281  1.00  0.00     0.108 C 
HETATM   18  O1  UNL     1      24.311  10.298  47.921  1.00  0.00    -0.345 OA
HETATM   19  C15 UNL     1      25.667  10.560  48.259  1.00  0.00     0.243 C 
HETATM   20  C16 UNL     1      26.575   9.428  48.028  1.00  0.00     0.104 C 
HETATM   21  C18 UNL     1      27.473   8.522  47.713  1.00  0.00     0.115 C 
HETATM   22  H7  UNL     1      24.485   5.331  50.991  1.00  0.00     0.161 HD
ENDROOT
BRANCH  21  23
HETATM   23  O3  UNL     1      28.089   9.375  46.944  1.00  0.00    -0.345 OA
BRANCH  23  24
HETATM   24  C19 UNL     1      28.325  10.643  46.581  1.00  0.00     0.202 C 
BRANCH  24  25
HETATM   25  C20 UNL     1      29.707  11.039  47.181  1.00  0.00     0.193 C 
BRANCH  25  26
HETATM   26  O4  UNL     1      29.679  11.106  48.509  1.00  0.00    -0.394 OA
HETATM   27  C21 UNL     1      30.549  10.346  49.206  1.00  0.00     0.201 C 
ENDBRANCH  25  26
ENDBRANCH  24  25
ENDBRANCH  23  24
ENDBRANCH  21  23
BRANCH  20  28
HETATM   28  O2  UNL     1      26.322   8.245  48.869  1.00  0.00    -0.355 OA
HETATM   29  C17 UNL     1      26.797   8.702  50.244  1.00  0.00     0.209 C 
ENDBRANCH  20  28
TORSDOF 5
ENDMDL
MODEL 7
REMARK VINA RESULT:      -6.1      2.053      3.270
REMARK  5 active torsions:
REMARK  status: ('A' for Active; 'I' for Inactive)
REMARK    1  A    between atoms: C16_20  and  O2_21 
REMARK    2  A    between atoms: C18_23  and  O3_24 
REMARK    3  A    between atoms: O3_24  and  C19_25 
REMARK    4  A    between atoms: C19_25  and  C20_26 
REMARK    5  A    between atoms: C20_26  and  O4_27 
ROOT
HETATM    1  C1  UNL     1      26.489   8.491  46.592  1.00  0.00     0.017 C 
HETATM    2  C2  UNL     1      25.920   7.733  47.365  1.00  0.00    -0.079 C 
HETATM    3  C3  UNL     1      25.270   6.847  48.284  1.00  0.00     0.039 C 
HETATM    4  C4  UNL     1      25.801   5.740  48.819  1.00  0.00     0.065 C 
HETATM    5  C5  UNL     1      26.981   4.765  48.958  1.00  0.00    -0.018 C 
HETATM    6  C6  UNL     1      26.793   3.669  49.775  1.00  0.00    -0.011 C 
HETATM    7  C7  UNL     1      26.377   2.584  50.681  1.00  0.00     0.148 C 
HETATM    8  N1  UNL     1      25.117   2.718  51.194  1.00  0.00    -0.374 N 
HETATM    9  C8  UNL     1      23.842   2.851  51.698  1.00  0.00     0.106 C 
HETATM   10  N2  UNL     1      23.544   1.708  51.099  1.00  0.00    -0.217 NA
HETATM   11  C9  UNL     1      22.141   1.326  51.352  1.00  0.00     0.300 C 
HETATM   12  N3  UNL     1      21.542   2.068  50.569  1.00  0.00    -0.411 NA
HETATM   13  C10 UNL     1      20.701   2.729  49.840  1.00  0.00     0.186 C 
HETATM   14  C11 UNL     1      20.601   4.051  49.970  1.00  0.00     0.068 C 
HETATM   15  C12 UNL     1      21.282   5.021  50.863  1.00  0.00     0.068 C 
HETATM   16  C13 UNL     1      22.095   4.529  51.768  1.00  0.00     0.017 C 
HETATM   17  C14 UNL     1      22.724   3.368  52.408  1.00  0.00     0.108 C 
HETATM   18  O1  UNL     1      20.806   6.217  50.416  1.00  0.00    -0.345 OA
HETATM   19  C15 UNL     1      21.651   7.360  50.391  1.00  0.00     0.243 C 
HETATM   20  C16 UNL     1      22.923   7.152  49.686  1.00  0.00     0.104 C 
HETATM   21  C18 UNL     1      24.010   7.097  48.949  1.00  0.00     0.115 C 
HETATM   22  H7  UNL     1      25.273   2.929  52.249  1.00  0.00     0.161 HD
ENDROOT
BRANCH  21  23
HETATM   23  O3  UNL     1      23.588   8.092  48.221  1.00  0.00    -0.345 OA
BRANCH  23  24
HETATM   24  C19 UNL     1      22.578   8.746  47.632  1.00  0.00     0.202 C 
BRANCH  24  25
HETATM   25  C20 UNL     1      22.406   8.135  46.210  1.00  0.00     0.193 C 
BRANCH  25  26
HETATM   26  O4  UNL     1      21.832   6.936  46.243  1.00  0.00    -0.394 OA
HETATM   27  C21 UNL     1      22.292   5.982  45.407  1.00  0.00     0.201 C 
ENDBRANCH  25  26
ENDBRANCH  24  25
ENDBRANCH  23  24
ENDBRANCH  21  23
BRANCH  20  28
HETATM   28  O2  UNL     1      23.830   6.174  50.310  1.00  0.00    -0.355 OA
HETATM   29  C17 UNL     1      24.302   6.903  51.563  1.00  0.00     0.209 C 
ENDBRANCH  20  28
TORSDOF 5
ENDMDL
MODEL 8
REMARK VINA RESULT:      -6.0      3.836      7.201
REMARK  5 active torsions:
REMARK  status: ('A' for Active; 'I' for Inactive)
REMARK    1  A    between atoms: C16_20  and  O2_21 
REMARK    2  A    between atoms: C18_23  and  O3_24 
REMARK    3  A    between atoms: O3_24  and  C19_25 
REMARK    4  A    between atoms: C19_25  and  C20_26 
REMARK    5  A    between atoms: C20_26  and  O4_27 
ROOT
HETATM    1  C1  UNL     1      21.591   0.973  49.570  1.00  0.00     0.017 C 
HETATM    2  C2  UNL     1      22.007   2.080  49.256  1.00  0.00    -0.079 C 
HETATM    3  C3  UNL     1      22.474   3.381  48.883  1.00  0.00     0.039 C 
HETATM    4  C4  UNL     1      22.290   3.972  47.695  1.00  0.00     0.065 C 
HETATM    5  C5  UNL     1      21.727   3.937  46.265  1.00  0.00    -0.018 C 
HETATM    6  C6  UNL     1      21.971   5.038  45.470  1.00  0.00    -0.011 C 
HETATM    7  C7  UNL     1      22.346   6.299  44.806  1.00  0.00     0.148 C 
HETATM    8  N1  UNL     1      23.035   7.178  45.594  1.00  0.00    -0.374 N 
HETATM    9  C8  UNL     1      23.740   8.055  46.388  1.00  0.00     0.106 C 
HETATM   10  N2  UNL     1      24.737   7.952  45.523  1.00  0.00    -0.217 NA
HETATM   11  C9  UNL     1      25.878   8.799  45.925  1.00  0.00     0.300 C 
HETATM   12  N3  UNL     1      26.384   8.115  46.818  1.00  0.00    -0.411 NA
HETATM   13  C10 UNL     1      27.089   7.591  47.769  1.00  0.00     0.186 C 
HETATM   14  C11 UNL     1      26.539   7.372  48.964  1.00  0.00     0.068 C 
HETATM   15  C12 UNL     1      25.184   7.643  49.504  1.00  0.00     0.068 C 
HETATM   16  C13 UNL     1      24.349   8.285  48.723  1.00  0.00     0.017 C 
HETATM   17  C14 UNL     1      24.064   8.948  47.445  1.00  0.00     0.108 C 
HETATM   18  O1  UNL     1      25.246   7.085  50.745  1.00  0.00    -0.345 OA
HETATM   19  C15 UNL     1      24.109   6.433  51.295  1.00  0.00     0.243 C 
HETATM   20  C16 UNL     1      23.529   5.399  50.426  1.00  0.00     0.104 C 
HETATM   21  C18 UNL     1      23.043   4.363  49.780  1.00  0.00     0.115 C 
HETATM   22  H7  UNL     1      22.340   7.997  45.760  1.00  0.00     0.161 HD
ENDROOT
BRANCH  21  23
HETATM   23  O3  UNL     1      23.278   3.592  50.805  1.00  0.00    -0.345 OA
BRANCH  23  24
HETATM   24  C19 UNL     1      24.098   3.192  51.786  1.00  0.00     0.202 C 
BRANCH  24  25
HETATM   25  C20 UNL     1      25.279   2.432  51.112  1.00  0.00     0.193 C 
BRANCH  25  26
HETATM   26  O4  UNL     1      26.328   3.220  50.899  1.00  0.00    -0.394 OA
HETATM   27  C21 UNL     1      26.629   3.557  49.628  1.00  0.00     0.201 C 
ENDBRANCH  25  26
ENDBRANCH  24  25
ENDBRANCH  23  24
ENDBRANCH  21  23
BRANCH  20  28
HETATM   28  O2  UNL     1      22.958   5.895  49.163  1.00  0.00    -0.355 OA
HETATM   29  C17 UNL     1      21.702   6.625  49.624  1.00  0.00     0.209 C 
ENDBRANCH  20  28
TORSDOF 5
ENDMDL
MODEL 9
REMARK VINA RESULT:      -5.6     24.301     26.290
REMARK  5 active torsions:
REMARK  status: ('A' for Active; 'I' for Inactive)
REMARK    1  A    between atoms: C16_20  and  O2_21 
REMARK    2  A    between atoms: C18_23  and  O3_24 
REMARK    3  A    between atoms: O3_24  and  C19_25 
REMARK    4  A    between atoms: C19_25  and  C20_26 
REMARK    5  A    between atoms: C20_26  and  O4_27 
ROOT
HETATM    1  C1  UNL     1      38.664   4.003  71.082  1.00  0.00     0.017 C 
HETATM    2  C2  UNL     1      38.982   2.879  70.719  1.00  0.00    -0.079 C 
HETATM    3  C3  UNL     1      39.337   1.562  70.281  1.00  0.00     0.039 C 
HETATM    4  C4  UNL     1      38.565   0.471  70.365  1.00  0.00     0.065 C 
HETATM    5  C5  UNL     1      37.243  -0.194  70.781  1.00  0.00    -0.018 C 
HETATM    6  C6  UNL     1      37.131  -1.552  70.563  1.00  0.00    -0.011 C 
HETATM    7  C7  UNL     1      37.228  -2.987  70.245  1.00  0.00     0.148 C 
HETATM    8  N1  UNL     1      38.397  -3.362  69.644  1.00  0.00    -0.374 N 
HETATM    9  C8  UNL     1      39.582  -3.738  69.050  1.00  0.00     0.106 C 
HETATM   10  N2  UNL     1      39.793  -4.525  70.094  1.00  0.00    -0.217 NA
HETATM   11  C9  UNL     1      41.064  -5.264  69.954  1.00  0.00     0.300 C 
HETATM   12  N3  UNL     1      41.884  -4.393  70.255  1.00  0.00    -0.411 NA
HETATM   13  C10 UNL     1      42.920  -3.667  70.529  1.00  0.00     0.186 C 
HETATM   14  C11 UNL     1      43.200  -2.596  69.787  1.00  0.00     0.068 C 
HETATM   15  C12 UNL     1      42.543  -2.010  68.592  1.00  0.00     0.068 C 
HETATM   16  C13 UNL     1      41.532  -2.673  68.083  1.00  0.00     0.017 C 
HETATM   17  C14 UNL     1      40.640  -3.838  68.107  1.00  0.00     0.108 C 
HETATM   18  O1  UNL     1      43.260  -0.869  68.392  1.00  0.00    -0.345 OA
HETATM   19  C15 UNL     1      42.614   0.312  67.937  1.00  0.00     0.243 C 
HETATM   20  C16 UNL     1      41.452   0.713  68.742  1.00  0.00     0.104 C 
HETATM   21  C18 UNL     1      40.499   1.220  69.491  1.00  0.00     0.115 C 
HETATM   22  H7  UNL     1      38.111  -3.618  68.627  1.00  0.00     0.161 HD
ENDROOT
BRANCH  21  23
HETATM   23  O3  UNL     1      41.178   2.324  69.637  1.00  0.00    -0.345 OA
BRANCH  23  24
HETATM   24  C19 UNL     1      42.296   2.950  70.029  1.00  0.00     0.202 C 
BRANCH  24  25
HETATM   25  C20 UNL     1      42.167   4.436  69.582  1.00  0.00     0.193 C 
BRANCH  25  26
HETATM   26  O4  UNL     1      43.171   4.814  68.796  1.00  0.00    -0.394 OA
HETATM   27  C21 UNL     1      44.065   3.882  68.407  1.00  0.00     0.201 C 
ENDBRANCH  25  26
ENDBRANCH  24  25
ENDBRANCH  23  24
ENDBRANCH  21  23
BRANCH  20  28
HETATM   28  O2  UNL     1      40.320  -0.229  68.714  1.00  0.00    -0.355 OA
HETATM   29  C17 UNL     1      39.846  -0.143  67.267  1.00  0.00     0.209 C 
ENDBRANCH  20  28
TORSDOF 5
ENDMDL
