MODEL 1
REMARK VINA RESULT:      -8.3      0.000      0.000
REMARK  3 active torsions:
REMARK  status: ('A' for Active; 'I' for Inactive)
REMARK    1  A    between atoms: N1_1  and  C1_2 
REMARK    2  A    between atoms: C6_10  and  C7_11 
REMARK    3  A    between atoms: C7_11  and  C8_12 
ROOT
HETATM    1  C1  UNL     1      25.224  -0.560  54.934  1.00  0.00     0.028 C 
HETATM    2  C2  UNL     1      24.308  -0.411  53.998  1.00  0.00     0.161 C 
HETATM    3  O1  UNL     1      23.414  -0.187  52.964  1.00  0.00    -0.340 OA
HETATM    4  C3  UNL     1      22.524   0.927  53.017  1.00  0.00     0.322 C 
HETATM    5  N2  UNL     1      21.824   0.930  51.764  1.00  0.00    -0.274 NA
HETATM    6  C4  UNL     1      22.243   1.467  50.690  1.00  0.00     0.131 C 
HETATM    7  C5  UNL     1      23.455   2.198  50.356  1.00  0.00     0.129 C 
HETATM    8  N3  UNL     1      24.369   2.409  51.261  1.00  0.00    -0.294 NA
HETATM    9  C6  UNL     1      25.591   3.146  50.922  1.00  0.00     0.115 C 
HETATM   10  C14 UNL     1      26.735   2.214  51.216  1.00  0.00     0.054 C 
HETATM   11  C15 UNL     1      26.712   1.894  52.667  1.00  0.00    -0.028 C 
HETATM   12  C16 UNL     1      26.592   0.863  53.481  1.00  0.00    -0.025 C 
HETATM   13  C17 UNL     1      26.519   0.142  54.765  1.00  0.00     0.085 C 
ENDROOT
BRANCH   9  14
HETATM   14  C7  UNL     1      25.514   3.552  49.496  1.00  0.00     0.066 C 
BRANCH  14  15
HETATM   15  C8  UNL     1      26.273   4.805  49.205  1.00  0.00    -0.056 A 
HETATM   16  C9  UNL     1      25.720   6.035  49.520  1.00  0.00     0.009 A 
HETATM   17  C10 UNL     1      26.447   7.171  49.238  1.00  0.00     0.024 A 
HETATM   18  C11 UNL     1      27.698   7.084  48.655  1.00  0.00     0.034 A 
HETATM   19 CL1  UNL     1      28.520   8.601  48.348  1.00  0.00    -0.084 Cl
HETATM   20  C12 UNL     1      28.267   5.865  48.334  1.00  0.00     0.024 A 
HETATM   21  C13 UNL     1      27.523   4.739  48.624  1.00  0.00     0.009 A 
ENDBRANCH  14  15
ENDBRANCH   9  14
BRANCH   1  22
HETATM   22  N1  UNL     1      25.284  -1.301  56.173  1.00  0.00    -0.401 N 
HETATM   23  H1  UNL     1      24.406  -1.776  56.418  1.00  0.00     0.156 HD
HETATM   24  H2  UNL     1      26.200  -1.284  56.694  1.00  0.00     0.156 HD
ENDBRANCH   1  22
TORSDOF 3
ENDMDL
MODEL 2
REMARK VINA RESULT:      -7.8      4.011      6.689
REMARK  3 active torsions:
REMARK  status: ('A' for Active; 'I' for Inactive)
REMARK    1  A    between atoms: N1_1  and  C1_2 
REMARK    2  A    between atoms: C6_10  and  C7_11 
REMARK    3  A    between atoms: C7_11  and  C8_12 
ROOT
HETATM    1  C1  UNL     1      21.359   5.737  50.772  1.00  0.00     0.028 C 
HETATM    2  C2  UNL     1      20.767   4.714  51.357  1.00  0.00     0.161 C 
HETATM    3  O1  UNL     1      20.245   3.602  51.996  1.00  0.00    -0.340 OA
HETATM    4  C3  UNL     1      20.059   2.385  51.274  1.00  0.00     0.322 C 
HETATM    5  N2  UNL     1      19.612   1.420  52.238  1.00  0.00    -0.274 NA
HETATM    6  C4  UNL     1      20.370   0.723  52.985  1.00  0.00     0.131 C 
HETATM    7  C5  UNL     1      21.815   0.647  53.133  1.00  0.00     0.129 C 
HETATM    8  N3  UNL     1      22.593   1.395  52.405  1.00  0.00    -0.294 NA
HETATM    9  C6  UNL     1      24.051   1.317  52.556  1.00  0.00     0.115 C 
HETATM   10  C14 UNL     1      24.506   2.700  52.935  1.00  0.00     0.054 C 
HETATM   11  C15 UNL     1      24.152   3.625  51.827  1.00  0.00    -0.028 C 
HETATM   12  C16 UNL     1      23.423   4.698  51.589  1.00  0.00    -0.025 C 
HETATM   13  C17 UNL     1      22.840   5.803  50.805  1.00  0.00     0.085 C 
ENDROOT
BRANCH   9  14
HETATM   14  C7  UNL     1      24.360   0.293  53.586  1.00  0.00     0.066 C 
BRANCH  14  15
HETATM   15  C8  UNL     1      25.814  -0.043  53.656  1.00  0.00    -0.056 A 
HETATM   16  C9  UNL     1      26.389  -0.824  52.668  1.00  0.00     0.009 A 
HETATM   17  C10 UNL     1      27.733  -1.115  52.762  1.00  0.00     0.024 A 
HETATM   18  C11 UNL     1      28.488  -0.636  53.817  1.00  0.00     0.034 A 
HETATM   19 CL1  UNL     1      30.184  -1.076  53.821  1.00  0.00    -0.084 Cl
HETATM   20  C12 UNL     1      27.931   0.146  54.813  1.00  0.00     0.024 A 
HETATM   21  C13 UNL     1      26.584   0.425  54.701  1.00  0.00     0.009 A 
ENDBRANCH  14  15
ENDBRANCH   9  14
BRANCH   1  22
HETATM   22  N1  UNL     1      20.883   6.901  50.060  1.00  0.00    -0.401 N 
HETATM   23  H1  UNL     1      21.564   7.670  50.015  1.00  0.00     0.156 HD
HETATM   24  H2  UNL     1      19.907   6.852  49.665  1.00  0.00     0.156 HD
ENDBRANCH   1  22
TORSDOF 3
ENDMDL
MODEL 3
REMARK VINA RESULT:      -7.6      3.724      6.974
REMARK  3 active torsions:
REMARK  status: ('A' for Active; 'I' for Inactive)
REMARK    1  A    between atoms: N1_1  and  C1_2 
REMARK    2  A    between atoms: C6_10  and  C7_11 
REMARK    3  A    between atoms: C7_11  and  C8_12 
ROOT
HETATM    1  C1  UNL     1      25.795   6.966  48.569  1.00  0.00     0.028 C 
HETATM    2  C2  UNL     1      24.919   6.797  49.541  1.00  0.00     0.161 C 
HETATM    3  O1  UNL     1      24.046   6.524  50.581  1.00  0.00    -0.340 OA
HETATM    4  C3  UNL     1      22.846   5.794  50.333  1.00  0.00     0.322 C 
HETATM    5  N2  UNL     1      22.235   5.594  51.616  1.00  0.00    -0.274 NA
HETATM    6  C4  UNL     1      22.506   4.645  52.418  1.00  0.00     0.131 C 
HETATM    7  C5  UNL     1      23.435   3.528  52.352  1.00  0.00     0.129 C 
HETATM    8  N3  UNL     1      24.194   3.361  51.306  1.00  0.00    -0.294 NA
HETATM    9  C6  UNL     1      25.130   2.234  51.241  1.00  0.00     0.115 C 
HETATM   10  C14 UNL     1      26.498   2.837  51.072  1.00  0.00     0.054 C 
HETATM   11  C15 UNL     1      26.517   3.596  49.795  1.00  0.00    -0.028 C 
HETATM   12  C16 UNL     1      26.698   4.821  49.341  1.00  0.00    -0.025 C 
HETATM   13  C17 UNL     1      26.803   5.903  48.344  1.00  0.00     0.085 C 
ENDROOT
BRANCH   9  14
HETATM   14  C7  UNL     1      24.988   1.435  52.484  1.00  0.00     0.066 C 
BRANCH  14  15
HETATM   15  C8  UNL     1      26.245   0.723  52.866  1.00  0.00    -0.056 A 
HETATM   16  C9  UNL     1      26.537  -0.509  52.304  1.00  0.00     0.009 A 
HETATM   17  C10 UNL     1      27.704  -1.138  52.677  1.00  0.00     0.024 A 
HETATM   18  C11 UNL     1      28.563  -0.554  53.591  1.00  0.00     0.034 A 
HETATM   19 CL1  UNL     1      30.013  -1.456  53.981  1.00  0.00    -0.084 Cl
HETATM   20  C12 UNL     1      28.288   0.675  54.162  1.00  0.00     0.024 A 
HETATM   21  C13 UNL     1      27.114   1.289  53.776  1.00  0.00     0.009 A 
ENDBRANCH  14  15
ENDBRANCH   9  14
BRANCH   1  22
HETATM   22  N1  UNL     1      26.035   8.013  47.603  1.00  0.00    -0.401 N 
HETATM   23  H1  UNL     1      25.744   7.773  46.647  1.00  0.00     0.156 HD
HETATM   24  H2  UNL     1      26.476   8.900  47.963  1.00  0.00     0.156 HD
ENDBRANCH   1  22
TORSDOF 3
ENDMDL
MODEL 4
REMARK VINA RESULT:      -7.4      2.110      2.572
REMARK  3 active torsions:
REMARK  status: ('A' for Active; 'I' for Inactive)
REMARK    1  A    between atoms: N1_1  and  C1_2 
REMARK    2  A    between atoms: C6_10  and  C7_11 
REMARK    3  A    between atoms: C7_11  and  C8_12 
ROOT
HETATM    1  C1  UNL     1      21.408  -0.565  53.470  1.00  0.00     0.028 C 
HETATM    2  C2  UNL     1      21.215  -0.285  52.197  1.00  0.00     0.161 C 
HETATM    3  O1  UNL     1      21.104   0.066  50.861  1.00  0.00    -0.340 OA
HETATM    4  C3  UNL     1      20.478   1.295  50.495  1.00  0.00     0.322 C 
HETATM    5  N2  UNL     1      20.624   1.401  49.071  1.00  0.00    -0.274 NA
HETATM    6  C4  UNL     1      21.639   1.876  48.470  1.00  0.00     0.131 C 
HETATM    7  C5  UNL     1      22.899   2.429  48.942  1.00  0.00     0.129 C 
HETATM    8  N3  UNL     1      23.150   2.506  50.218  1.00  0.00    -0.294 NA
HETATM    9  C6  UNL     1      24.422   3.063  50.691  1.00  0.00     0.115 C 
HETATM   10  C14 UNL     1      25.077   1.978  51.501  1.00  0.00     0.054 C 
HETATM   11  C15 UNL     1      24.194   1.660  52.653  1.00  0.00    -0.028 C 
HETATM   12  C16 UNL     1      23.514   0.654  53.168  1.00  0.00    -0.025 C 
HETATM   13  C17 UNL     1      22.638  -0.053  54.121  1.00  0.00     0.085 C 
ENDROOT
BRANCH   9  14
HETATM   14  C7  UNL     1      25.219   3.480  49.510  1.00  0.00     0.066 C 
BRANCH  14  15
HETATM   15  C8  UNL     1      25.629   4.916  49.561  1.00  0.00    -0.056 A 
HETATM   16  C9  UNL     1      24.958   5.795  50.395  1.00  0.00     0.009 A 
HETATM   17  C10 UNL     1      25.362   7.112  50.418  1.00  0.00     0.024 A 
HETATM   18  C11 UNL     1      26.411   7.544  49.628  1.00  0.00     0.034 A 
HETATM   19 CL1  UNL     1      26.827   9.242  49.749  1.00  0.00    -0.084 Cl
HETATM   20  C12 UNL     1      27.092   6.682  48.789  1.00  0.00     0.024 A 
HETATM   21  C13 UNL     1      26.673   5.367  48.780  1.00  0.00     0.009 A 
ENDBRANCH  14  15
ENDBRANCH   9  14
BRANCH   1  22
HETATM   22  N1  UNL     1      20.665  -1.311  54.460  1.00  0.00    -0.401 N 
HETATM   23  H1  UNL     1      20.792  -0.970  55.422  1.00  0.00     0.156 HD
HETATM   24  H2  UNL     1      20.079  -2.114  54.110  1.00  0.00     0.156 HD
ENDBRANCH   1  22
TORSDOF 3
ENDMDL
MODEL 5
REMARK VINA RESULT:      -7.3      3.982      6.633
REMARK  3 active torsions:
REMARK  status: ('A' for Active; 'I' for Inactive)
REMARK    1  A    between atoms: N1_1  and  C1_2 
REMARK    2  A    between atoms: C6_10  and  C7_11 
REMARK    3  A    between atoms: C7_11  and  C8_12 
ROOT
HETATM    1  C1  UNL     1      20.569   3.234  47.606  1.00  0.00     0.028 C 
HETATM    2  C2  UNL     1      20.193   2.820  48.800  1.00  0.00     0.161 C 
HETATM    3  O1  UNL     1      19.903   2.390  50.085  1.00  0.00    -0.340 OA
HETATM    4  C3  UNL     1      19.973   1.002  50.407  1.00  0.00     0.322 C 
HETATM    5  N2  UNL     1      19.725   0.913  51.817  1.00  0.00    -0.274 NA
HETATM    6  C4  UNL     1      20.602   1.047  52.728  1.00  0.00     0.131 C 
HETATM    7  C5  UNL     1      22.031   1.315  52.693  1.00  0.00     0.129 C 
HETATM    8  N3  UNL     1      22.647   1.465  51.555  1.00  0.00    -0.294 NA
HETATM    9  C6  UNL     1      24.089   1.735  51.522  1.00  0.00     0.115 C 
HETATM   10  C14 UNL     1      24.251   3.046  50.802  1.00  0.00     0.054 C 
HETATM   11  C15 UNL     1      23.725   2.887  49.422  1.00  0.00    -0.028 C 
HETATM   12  C16 UNL     1      22.795   3.374  48.623  1.00  0.00    -0.025 C 
HETATM   13  C17 UNL     1      22.006   3.529  47.387  1.00  0.00     0.085 C 
ENDROOT
BRANCH   9  14
HETATM   14  C7  UNL     1      24.592   1.764  52.918  1.00  0.00     0.066 C 
BRANCH  14  15
HETATM   15  C8  UNL     1      25.924   1.104  53.072  1.00  0.00    -0.056 A 
HETATM   16  C9  UNL     1      26.093  -0.210  52.668  1.00  0.00     0.009 A 
HETATM   17  C10 UNL     1      27.334  -0.788  52.823  1.00  0.00     0.024 A 
HETATM   18  C11 UNL     1      28.384  -0.072  53.367  1.00  0.00     0.034 A 
HETATM   19 CL1  UNL     1      29.911  -0.920  53.510  1.00  0.00    -0.084 Cl
HETATM   20  C12 UNL     1      28.235   1.241  53.776  1.00  0.00     0.024 A 
HETATM   21  C13 UNL     1      26.985   1.801  53.613  1.00  0.00     0.009 A 
ENDBRANCH  14  15
ENDBRANCH   9  14
BRANCH   1  22
HETATM   22  N1  UNL     1      19.872   3.497  46.368  1.00  0.00    -0.401 N 
HETATM   23  H1  UNL     1      19.981   4.461  46.025  1.00  0.00     0.156 HD
HETATM   24  H2  UNL     1      19.332   2.697  45.946  1.00  0.00     0.156 HD
ENDBRANCH   1  22
TORSDOF 3
ENDMDL
MODEL 6
REMARK VINA RESULT:      -7.2      3.801      7.068
REMARK  3 active torsions:
REMARK  status: ('A' for Active; 'I' for Inactive)
REMARK    1  A    between atoms: N1_1  and  C1_2 
REMARK    2  A    between atoms: C6_10  and  C7_11 
REMARK    3  A    between atoms: C7_11  and  C8_12 
ROOT
HETATM    1  C1  UNL     1      26.873   7.488  48.227  1.00  0.00     0.028 C 
HETATM    2  C2  UNL     1      25.817   7.449  49.015  1.00  0.00     0.161 C 
HETATM    3  O1  UNL     1      24.730   7.305  49.863  1.00  0.00    -0.340 OA
HETATM    4  C3  UNL     1      23.481   6.842  49.350  1.00  0.00     0.322 C 
HETATM    5  N2  UNL     1      22.617   6.704  50.487  1.00  0.00    -0.274 NA
HETATM    6  C4  UNL     1      22.552   5.682  51.240  1.00  0.00     0.131 C 
HETATM    7  C5  UNL     1      23.251   4.406  51.240  1.00  0.00     0.129 C 
HETATM    8  N3  UNL     1      24.146   4.144  50.331  1.00  0.00    -0.294 NA
HETATM    9  C6  UNL     1      24.850   2.857  50.332  1.00  0.00     0.115 C 
HETATM   10  C14 UNL     1      26.314   3.182  50.453  1.00  0.00     0.054 C 
HETATM   11  C15 UNL     1      26.711   3.985  49.268  1.00  0.00    -0.028 C 
HETATM   12  C16 UNL     1      27.199   5.170  48.957  1.00  0.00    -0.025 C 
HETATM   13  C17 UNL     1      27.689   6.257  48.089  1.00  0.00     0.085 C 
ENDROOT
BRANCH   9  14
HETATM   14  C7  UNL     1      24.333   2.042  51.460  1.00  0.00     0.066 C 
BRANCH  14  15
HETATM   15  C8  UNL     1      25.419   1.487  52.324  1.00  0.00    -0.056 A 
HETATM   16  C9  UNL     1      25.729   2.108  53.523  1.00  0.00     0.009 A 
HETATM   17  C10 UNL     1      26.735   1.571  54.297  1.00  0.00     0.024 A 
HETATM   18  C11 UNL     1      27.417   0.440  53.885  1.00  0.00     0.034 A 
HETATM   19 CL1  UNL     1      28.673  -0.143  54.958  1.00  0.00    -0.084 Cl
HETATM   20  C12 UNL     1      27.121  -0.192  52.692  1.00  0.00     0.024 A 
HETATM   21  C13 UNL     1      26.111   0.361  51.931  1.00  0.00     0.009 A 
ENDBRANCH  14  15
ENDBRANCH   9  14
BRANCH   1  22
HETATM   22  N1  UNL     1      27.480   8.513  47.409  1.00  0.00    -0.401 N 
HETATM   23  H1  UNL     1      26.839   9.272  47.147  1.00  0.00     0.156 HD
HETATM   24  H2  UNL     1      28.498   8.386  47.165  1.00  0.00     0.156 HD
ENDBRANCH   1  22
TORSDOF 3
ENDMDL
MODEL 7
REMARK VINA RESULT:      -7.0      2.058      2.619
REMARK  3 active torsions:
REMARK  status: ('A' for Active; 'I' for Inactive)
REMARK    1  A    between atoms: N1_1  and  C1_2 
REMARK    2  A    between atoms: C6_10  and  C7_11 
REMARK    3  A    between atoms: C7_11  and  C8_12 
ROOT
HETATM    1  C1  UNL     1      22.248  -0.379  53.701  1.00  0.00     0.028 C 
HETATM    2  C2  UNL     1      21.437   0.468  53.099  1.00  0.00     0.161 C 
HETATM    3  O1  UNL     1      20.672   1.400  52.417  1.00  0.00    -0.340 OA
HETATM    4  C3  UNL     1      20.466   2.699  52.973  1.00  0.00     0.322 C 
HETATM    5  N2  UNL     1      19.735   3.438  51.983  1.00  0.00    -0.274 NA
HETATM    6  C4  UNL     1      20.252   4.067  51.007  1.00  0.00     0.131 C 
HETATM    7  C5  UNL     1      21.625   4.256  50.567  1.00  0.00     0.129 C 
HETATM    8  N3  UNL     1      22.610   3.721  51.230  1.00  0.00    -0.294 NA
HETATM    9  C6  UNL     1      23.995   3.912  50.785  1.00  0.00     0.115 C 
HETATM   10  C14 UNL     1      24.547   2.535  50.534  1.00  0.00     0.054 C 
HETATM   11  C15 UNL     1      24.517   1.782  51.814  1.00  0.00    -0.028 C 
HETATM   12  C16 UNL     1      23.985   0.700  52.348  1.00  0.00    -0.025 C 
HETATM   13  C17 UNL     1      23.696  -0.306  53.387  1.00  0.00     0.085 C 
ENDROOT
BRANCH   9  14
HETATM   14  C7  UNL     1      23.983   4.771  49.574  1.00  0.00     0.066 C 
BRANCH  14  15
HETATM   15  C8  UNL     1      25.352   5.174  49.131  1.00  0.00    -0.056 A 
HETATM   16  C9  UNL     1      26.394   4.264  49.202  1.00  0.00     0.009 A 
HETATM   17  C10 UNL     1      27.644   4.668  48.786  1.00  0.00     0.024 A 
HETATM   18  C11 UNL     1      27.852   5.949  48.309  1.00  0.00     0.034 A 
HETATM   19 CL1  UNL     1      29.486   6.338  47.811  1.00  0.00    -0.084 Cl
HETATM   20  C12 UNL     1      26.823   6.870  48.230  1.00  0.00     0.024 A 
HETATM   21  C13 UNL     1      25.579   6.447  48.653  1.00  0.00     0.009 A 
ENDBRANCH  14  15
ENDBRANCH   9  14
BRANCH   1  22
HETATM   22  N1  UNL     1      22.059  -1.445  54.658  1.00  0.00    -0.401 N 
HETATM   23  H1  UNL     1      21.077  -1.600  54.922  1.00  0.00     0.156 HD
HETATM   24  H2  UNL     1      22.925  -1.949  54.986  1.00  0.00     0.156 HD
ENDBRANCH   1  22
TORSDOF 3
ENDMDL
MODEL 8
REMARK VINA RESULT:      -6.9      4.213      5.058
REMARK  3 active torsions:
REMARK  status: ('A' for Active; 'I' for Inactive)
REMARK    1  A    between atoms: N1_1  and  C1_2 
REMARK    2  A    between atoms: C6_10  and  C7_11 
REMARK    3  A    between atoms: C7_11  and  C8_12 
ROOT
HETATM    1  C1  UNL     1      26.477   0.073  54.670  1.00  0.00     0.028 C 
HETATM    2  C2  UNL     1      25.381  -0.659  54.623  1.00  0.00     0.161 C 
HETATM    3  O1  UNL     1      24.185  -1.350  54.516  1.00  0.00    -0.340 OA
HETATM    4  C3  UNL     1      23.140  -1.120  55.459  1.00  0.00     0.322 C 
HETATM    5  N2  UNL     1      22.023  -1.898  55.006  1.00  0.00    -0.274 NA
HETATM    6  C4  UNL     1      21.167  -1.522  54.144  1.00  0.00     0.131 C 
HETATM    7  C5  UNL     1      21.010  -0.298  53.374  1.00  0.00     0.129 C 
HETATM    8  N3  UNL     1      21.858   0.682  53.512  1.00  0.00    -0.294 NA
HETATM    9  C6  UNL     1      21.699   1.915  52.733  1.00  0.00     0.115 C 
HETATM   10  C14 UNL     1      22.964   2.070  51.935  1.00  0.00     0.054 C 
HETATM   11  C15 UNL     1      24.100   2.203  52.884  1.00  0.00    -0.028 C 
HETATM   12  C16 UNL     1      25.224   1.601  53.218  1.00  0.00    -0.025 C 
HETATM   13  C17 UNL     1      26.481   1.373  53.956  1.00  0.00     0.085 C 
ENDROOT
BRANCH   9  14
HETATM   14  C7  UNL     1      20.484   1.783  51.891  1.00  0.00     0.066 C 
BRANCH  14  15
HETATM   15  C8  UNL     1      20.708   2.203  50.474  1.00  0.00    -0.056 A 
HETATM   16  C9  UNL     1      20.472   3.514  50.098  1.00  0.00     0.009 A 
HETATM   17  C10 UNL     1      20.690   3.868  48.785  1.00  0.00     0.024 A 
HETATM   18  C11 UNL     1      21.133   2.935  47.865  1.00  0.00     0.034 A 
HETATM   19 CL1  UNL     1      21.371   3.510  46.227  1.00  0.00    -0.084 Cl
HETATM   20  C12 UNL     1      21.374   1.621  48.222  1.00  0.00     0.024 A 
HETATM   21  C13 UNL     1      21.150   1.287  49.542  1.00  0.00     0.009 A 
ENDBRANCH  14  15
ENDBRANCH   9  14
BRANCH   1  22
HETATM   22  N1  UNL     1      27.773  -0.095  55.284  1.00  0.00    -0.401 N 
HETATM   23  H1  UNL     1      27.741  -0.532  56.215  1.00  0.00     0.156 HD
HETATM   24  H2  UNL     1      28.608   0.239  54.734  1.00  0.00     0.156 HD
ENDBRANCH   1  22
TORSDOF 3
ENDMDL
MODEL 9
REMARK VINA RESULT:      -6.9      5.336      8.173
REMARK  3 active torsions:
REMARK  status: ('A' for Active; 'I' for Inactive)
REMARK    1  A    between atoms: N1_1  and  C1_2 
REMARK    2  A    between atoms: C6_10  and  C7_11 
REMARK    3  A    between atoms: C7_11  and  C8_12 
ROOT
HETATM    1  C1  UNL     1      25.138   6.040  49.707  1.00  0.00     0.028 C 
HETATM    2  C2  UNL     1      25.614   7.253  49.506  1.00  0.00     0.161 C 
HETATM    3  O1  UNL     1      26.205   8.481  49.257  1.00  0.00    -0.340 OA
HETATM    4  C3  UNL     1      27.030   9.090  50.249  1.00  0.00     0.322 C 
HETATM    5  N2  UNL     1      27.562  10.277  49.642  1.00  0.00    -0.274 NA
HETATM    6  C4  UNL     1      28.604  10.326  48.915  1.00  0.00     0.131 C 
HETATM    7  C5  UNL     1      29.548   9.313  48.469  1.00  0.00     0.129 C 
HETATM    8  N3  UNL     1      29.398   8.069  48.823  1.00  0.00    -0.294 NA
HETATM    9  C6  UNL     1      30.350   7.048  48.372  1.00  0.00     0.115 C 
HETATM   10  C14 UNL     1      29.543   6.032  47.610  1.00  0.00     0.054 C 
HETATM   11  C15 UNL     1      28.551   5.435  48.540  1.00  0.00    -0.028 C 
HETATM   12  C16 UNL     1      27.248   5.307  48.696  1.00  0.00    -0.025 C 
HETATM   13  C17 UNL     1      25.986   4.883  49.331  1.00  0.00     0.085 C 
ENDROOT
BRANCH   9  14
HETATM   14  C7  UNL     1      31.391   7.712  47.547  1.00  0.00     0.066 C 
BRANCH  14  15
HETATM   15  C8  UNL     1      32.368   6.748  46.955  1.00  0.00    -0.056 A 
HETATM   16  C9  UNL     1      33.212   6.027  47.783  1.00  0.00     0.009 A 
HETATM   17  C10 UNL     1      34.100   5.147  47.205  1.00  0.00     0.024 A 
HETATM   18  C11 UNL     1      34.146   4.988  45.832  1.00  0.00     0.034 A 
HETATM   19 CL1  UNL     1      35.320   3.838  45.222  1.00  0.00    -0.084 Cl
HETATM   20  C12 UNL     1      33.312   5.699  44.989  1.00  0.00     0.024 A 
HETATM   21  C13 UNL     1      32.430   6.576  45.588  1.00  0.00     0.009 A 
ENDBRANCH  14  15
ENDBRANCH   9  14
BRANCH   1  22
HETATM   22  N1  UNL     1      23.897   5.521  50.237  1.00  0.00    -0.401 N 
HETATM   23  H1  UNL     1      23.900   4.504  50.386  1.00  0.00     0.156 HD
HETATM   24  H2  UNL     1      23.127   6.219  50.414  1.00  0.00     0.156 HD
ENDBRANCH   1  22
TORSDOF 3
ENDMDL
