MODEL 1
REMARK VINA RESULT:      -9.2      0.000      0.000
REMARK  1 active torsions:
REMARK  status: ('A' for Active; 'I' for Inactive)
REMARK    1  A    between atoms: C4_5  and  C5_6 
ROOT
HETATM    1  C5  UNL     1      24.840  -0.539  53.577  1.00  0.00     0.194 C 
HETATM    2  C6  UNL     1      24.410   0.230  52.274  1.00  0.00     0.080 C 
HETATM    3  C7  UNL     1      22.928   0.453  52.549  1.00  0.00    -0.033 A 
HETATM    4  C8  UNL     1      22.516  -0.781  52.874  1.00  0.00     0.022 A 
HETATM    5  C9  UNL     1      21.331  -0.472  53.479  1.00  0.00    -0.016 A 
HETATM    6  C10 UNL     1      20.624   0.676  53.742  1.00  0.00     0.014 A 
HETATM    7  C11 UNL     1      21.290   1.819  53.276  1.00  0.00     0.025 A 
HETATM    8  C12 UNL     1      22.530   1.749  52.633  1.00  0.00     0.040 A 
HETATM    9 CL1  UNL     1      23.400   3.124  52.044  1.00  0.00    -0.084 Cl
HETATM   10  C13 UNL     1      20.828  -1.681  54.189  1.00  0.00     0.155 C 
HETATM   11  N1  UNL     1      21.852  -1.947  54.971  1.00  0.00    -0.131 NA
HETATM   12  N2  UNL     1      23.032  -1.112  54.938  1.00  0.00     0.013 N 
HETATM   13  F2  UNL     1      23.549  -1.374  56.181  1.00  0.00    -0.050 F 
HETATM   14  O1  UNL     1      24.052  -0.251  54.629  1.00  0.00    -0.223 OA
ENDROOT
BRANCH   1  15
HETATM   15  C4  UNL     1      26.302  -0.548  53.718  1.00  0.00    -0.026 A 
HETATM   16  C3  UNL     1      27.008  -1.398  52.869  1.00  0.00     0.013 A 
HETATM   17  C2  UNL     1      28.401  -1.438  52.970  1.00  0.00     0.043 A 
HETATM   18  C1  UNL     1      29.097  -0.667  53.879  1.00  0.00     0.116 A 
HETATM   19  F1  UNL     1      30.447  -0.716  53.964  1.00  0.00    -0.206 F 
HETATM   20  C15 UNL     1      28.380   0.159  54.701  1.00  0.00     0.043 A 
HETATM   21  C14 UNL     1      27.003   0.229  54.634  1.00  0.00     0.013 A 
ENDBRANCH   1  15
TORSDOF 1
ENDMDL
MODEL 2
REMARK VINA RESULT:      -8.9      3.327      4.145
REMARK  1 active torsions:
REMARK  status: ('A' for Active; 'I' for Inactive)
REMARK    1  A    between atoms: C4_5  and  C5_6 
ROOT
HETATM    1  C5  UNL     1      26.261   1.281  52.639  1.00  0.00     0.194 C 
HETATM    2  C6  UNL     1      25.048   0.949  53.583  1.00  0.00     0.080 C 
HETATM    3  C7  UNL     1      23.896   1.563  52.796  1.00  0.00    -0.033 A 
HETATM    4  C8  UNL     1      24.353   2.800  52.552  1.00  0.00     0.022 A 
HETATM    5  C9  UNL     1      23.505   3.161  51.545  1.00  0.00    -0.016 A 
HETATM    6  C10 UNL     1      22.453   2.578  50.882  1.00  0.00     0.014 A 
HETATM    7  C11 UNL     1      22.187   1.286  51.356  1.00  0.00     0.025 A 
HETATM    8  C12 UNL     1      22.936   0.697  52.379  1.00  0.00     0.040 A 
HETATM    9 CL1  UNL     1      22.658  -0.894  52.998  1.00  0.00    -0.084 Cl
HETATM   10  C13 UNL     1      24.020   4.405  50.910  1.00  0.00     0.155 C 
HETATM   11  N1  UNL     1      25.231   4.021  50.568  1.00  0.00    -0.131 NA
HETATM   12  N2  UNL     1      25.681   2.678  50.861  1.00  0.00     0.013 N 
HETATM   13  F2  UNL     1      26.670   2.543  49.921  1.00  0.00    -0.050 F 
HETATM   14  O1  UNL     1      25.891   1.416  51.352  1.00  0.00    -0.223 OA
ENDROOT
BRANCH   1  15
HETATM   15  C4  UNL     1      27.437   0.476  52.999  1.00  0.00    -0.026 A 
HETATM   16  C3  UNL     1      28.551   1.170  53.463  1.00  0.00     0.013 A 
HETATM   17  C2  UNL     1      29.692   0.443  53.817  1.00  0.00     0.043 A 
HETATM   18  C1  UNL     1      29.748  -0.933  53.721  1.00  0.00     0.116 A 
HETATM   19  F1  UNL     1      30.860  -1.623  54.068  1.00  0.00    -0.206 F 
HETATM   20  C15 UNL     1      28.639  -1.590  53.261  1.00  0.00     0.043 A 
HETATM   21  C14 UNL     1      27.493  -0.910  52.902  1.00  0.00     0.013 A 
ENDBRANCH   1  15
TORSDOF 1
ENDMDL
MODEL 3
REMARK VINA RESULT:      -8.5      1.406      1.587
REMARK  1 active torsions:
REMARK  status: ('A' for Active; 'I' for Inactive)
REMARK    1  A    between atoms: C4_5  and  C5_6 
ROOT
HETATM    1  C5  UNL     1      24.203   0.426  52.909  1.00  0.00     0.194 C 
HETATM    2  C6  UNL     1      24.165   1.432  51.701  1.00  0.00     0.080 C 
HETATM    3  C7  UNL     1      22.706   1.871  51.738  1.00  0.00    -0.033 A 
HETATM    4  C8  UNL     1      22.063   0.694  51.767  1.00  0.00     0.022 A 
HETATM    5  C9  UNL     1      20.835   1.117  52.192  1.00  0.00    -0.016 A 
HETATM    6  C10 UNL     1      20.263   2.322  52.516  1.00  0.00     0.014 A 
HETATM    7  C11 UNL     1      21.168   3.385  52.381  1.00  0.00     0.025 A 
HETATM    8  C12 UNL     1      22.490   3.191  51.969  1.00  0.00     0.040 A 
HETATM    9 CL1  UNL     1      23.651   4.461  51.792  1.00  0.00    -0.084 Cl
HETATM   10  C13 UNL     1      20.030  -0.073  52.581  1.00  0.00     0.155 C 
HETATM   11  N1  UNL     1      20.821  -0.621  53.478  1.00  0.00    -0.131 NA
HETATM   12  N2  UNL     1      22.090  -0.009  53.803  1.00  0.00     0.013 N 
HETATM   13  F2  UNL     1      22.297  -0.528  55.055  1.00  0.00    -0.050 F 
HETATM   14  O1  UNL     1      23.265   0.696  53.835  1.00  0.00    -0.223 OA
ENDROOT
BRANCH   1  15
HETATM   15  C4  UNL     1      25.588   0.141  53.307  1.00  0.00    -0.026 A 
HETATM   16  C3  UNL     1      26.335  -0.660  52.448  1.00  0.00     0.013 A 
HETATM   17  C2  UNL     1      27.658  -0.955  52.788  1.00  0.00     0.043 A 
HETATM   18  C1  UNL     1      28.244  -0.480  53.945  1.00  0.00     0.116 A 
HETATM   19  F1  UNL     1      29.527  -0.775  54.261  1.00  0.00    -0.206 F 
HETATM   20  C15 UNL     1      27.488   0.304  54.772  1.00  0.00     0.043 A 
HETATM   21  C14 UNL     1      26.178   0.620  54.472  1.00  0.00     0.013 A 
ENDBRANCH   1  15
TORSDOF 1
ENDMDL
MODEL 4
REMARK VINA RESULT:      -8.4      2.512      5.889
REMARK  1 active torsions:
REMARK  status: ('A' for Active; 'I' for Inactive)
REMARK    1  A    between atoms: C4_5  and  C5_6 
ROOT
HETATM    1  C5  UNL     1      23.582   0.646  53.446  1.00  0.00     0.194 C 
HETATM    2  C6  UNL     1      23.542   2.139  52.953  1.00  0.00     0.080 C 
HETATM    3  C7  UNL     1      25.016   2.383  52.652  1.00  0.00    -0.033 A 
HETATM    4  C8  UNL     1      25.602   1.972  53.787  1.00  0.00     0.022 A 
HETATM    5  C9  UNL     1      26.885   1.832  53.340  1.00  0.00    -0.016 A 
HETATM    6  C10 UNL     1      27.545   2.022  52.151  1.00  0.00     0.014 A 
HETATM    7  C11 UNL     1      26.682   2.467  51.139  1.00  0.00     0.025 A 
HETATM    8  C12 UNL     1      25.317   2.672  51.360  1.00  0.00     0.040 A 
HETATM    9 CL1  UNL     1      24.205   3.213  50.150  1.00  0.00    -0.084 Cl
HETATM   10  C13 UNL     1      27.670   1.096  54.369  1.00  0.00     0.155 C 
HETATM   11  N1  UNL     1      26.951   0.001  54.488  1.00  0.00    -0.131 NA
HETATM   12  N2  UNL     1      25.753  -0.174  53.698  1.00  0.00     0.013 N 
HETATM   13  F2  UNL     1      25.653  -1.542  53.710  1.00  0.00    -0.050 F 
HETATM   14  O1  UNL     1      24.623  -0.037  52.936  1.00  0.00    -0.223 OA
ENDROOT
BRANCH   1  15
HETATM   15  C4  UNL     1      22.233   0.063  53.452  1.00  0.00    -0.026 A 
HETATM   16  C3  UNL     1      22.041  -1.059  54.254  1.00  0.00     0.013 A 
HETATM   17  C2  UNL     1      20.773  -1.647  54.289  1.00  0.00     0.043 A 
HETATM   18  C1  UNL     1      19.711  -1.152  53.557  1.00  0.00     0.116 A 
HETATM   19  F1  UNL     1      18.489  -1.732  53.601  1.00  0.00    -0.206 F 
HETATM   20  C15 UNL     1      19.928  -0.049  52.777  1.00  0.00     0.043 A 
HETATM   21  C14 UNL     1      21.165   0.561  52.715  1.00  0.00     0.013 A 
ENDBRANCH   1  15
TORSDOF 1
ENDMDL
MODEL 5
REMARK VINA RESULT:      -8.3      4.516      5.644
REMARK  1 active torsions:
REMARK  status: ('A' for Active; 'I' for Inactive)
REMARK    1  A    between atoms: C4_5  and  C5_6 
ROOT
HETATM    1  C5  UNL     1      25.990   2.648  51.302  1.00  0.00     0.194 C 
HETATM    2  C6  UNL     1      24.495   2.574  51.786  1.00  0.00     0.080 C 
HETATM    3  C7  UNL     1      23.790   3.317  50.657  1.00  0.00    -0.033 A 
HETATM    4  C8  UNL     1      24.509   4.447  50.576  1.00  0.00     0.022 A 
HETATM    5  C9  UNL     1      24.114   4.878  49.341  1.00  0.00    -0.016 A 
HETATM    6  C10 UNL     1      23.256   4.434  48.367  1.00  0.00     0.014 A 
HETATM    7  C11 UNL     1      22.630   3.232  48.728  1.00  0.00     0.025 A 
HETATM    8  C12 UNL     1      22.887   2.594  49.945  1.00  0.00     0.040 A 
HETATM    9 CL1  UNL     1      22.152   1.109  50.441  1.00  0.00    -0.084 Cl
HETATM   10  C13 UNL     1      25.017   5.982  48.912  1.00  0.00     0.155 C 
HETATM   11  N1  UNL     1      26.187   5.387  48.996  1.00  0.00    -0.131 NA
HETATM   12  N2  UNL     1      26.277   4.010  49.427  1.00  0.00     0.013 N 
HETATM   13  F2  UNL     1      27.481   3.661  48.873  1.00  0.00    -0.050 F 
HETATM   14  O1  UNL     1      26.093   2.763  49.964  1.00  0.00    -0.223 OA
ENDROOT
BRANCH   1  15
HETATM   15  C4  UNL     1      26.824   1.688  52.037  1.00  0.00    -0.026 A 
HETATM   16  C3  UNL     1      27.861   2.216  52.800  1.00  0.00     0.013 A 
HETATM   17  C2  UNL     1      28.680   1.338  53.516  1.00  0.00     0.043 A 
HETATM   18  C1  UNL     1      28.494  -0.030  53.489  1.00  0.00     0.116 A 
HETATM   19  F1  UNL     1      29.295  -0.867  54.189  1.00  0.00    -0.206 F 
HETATM   20  C15 UNL     1      27.467  -0.523  52.731  1.00  0.00     0.043 A 
HETATM   21  C14 UNL     1      26.635   0.310  52.010  1.00  0.00     0.013 A 
ENDBRANCH   1  15
TORSDOF 1
ENDMDL
MODEL 6
REMARK VINA RESULT:      -8.2      4.498      6.230
REMARK  1 active torsions:
REMARK  status: ('A' for Active; 'I' for Inactive)
REMARK    1  A    between atoms: C4_5  and  C5_6 
ROOT
HETATM    1  C5  UNL     1      26.451   2.312  51.398  1.00  0.00     0.194 C 
HETATM    2  C6  UNL     1      25.315   1.227  51.309  1.00  0.00     0.080 C 
HETATM    3  C7  UNL     1      25.659   0.352  52.508  1.00  0.00    -0.033 A 
HETATM    4  C8  UNL     1      26.963   0.106  52.308  1.00  0.00     0.022 A 
HETATM    5  C9  UNL     1      27.307  -0.319  53.560  1.00  0.00    -0.016 A 
HETATM    6  C10 UNL     1      26.656  -0.513  54.753  1.00  0.00     0.014 A 
HETATM    7  C11 UNL     1      25.295  -0.186  54.665  1.00  0.00     0.025 A 
HETATM    8  C12 UNL     1      24.716   0.285  53.483  1.00  0.00     0.040 A 
HETATM    9 CL1  UNL     1      23.047   0.710  53.318  1.00  0.00    -0.084 Cl
HETATM   10  C13 UNL     1      28.792  -0.373  53.653  1.00  0.00     0.155 C 
HETATM   11  N1  UNL     1      29.101   0.865  53.332  1.00  0.00    -0.131 NA
HETATM   12  N2  UNL     1      28.061   1.818  53.015  1.00  0.00     0.013 N 
HETATM   13  F2  UNL     1      28.719   2.992  53.281  1.00  0.00    -0.050 F 
HETATM   14  O1  UNL     1      26.913   2.473  52.652  1.00  0.00    -0.223 OA
ENDROOT
BRANCH   1  15
HETATM   15  C4  UNL     1      26.125   3.477  50.565  1.00  0.00    -0.026 A 
HETATM   16  C3  UNL     1      27.081   3.865  49.630  1.00  0.00     0.013 A 
HETATM   17  C2  UNL     1      26.812   4.970  48.816  1.00  0.00     0.043 A 
HETATM   18  C1  UNL     1      25.635   5.684  48.911  1.00  0.00     0.116 A 
HETATM   19  F1  UNL     1      25.388   6.752  48.116  1.00  0.00    -0.206 F 
HETATM   20  C15 UNL     1      24.713   5.282  49.838  1.00  0.00     0.043 A 
HETATM   21  C14 UNL     1      24.940   4.197  50.660  1.00  0.00     0.013 A 
ENDBRANCH   1  15
TORSDOF 1
ENDMDL
MODEL 7
REMARK VINA RESULT:      -8.0      3.261      3.987
REMARK  1 active torsions:
REMARK  status: ('A' for Active; 'I' for Inactive)
REMARK    1  A    between atoms: C4_5  and  C5_6 
ROOT
HETATM    1  C5  UNL     1      23.021   0.998  52.425  1.00  0.00     0.194 C 
HETATM    2  C6  UNL     1      22.256   0.609  53.743  1.00  0.00     0.080 C 
HETATM    3  C7  UNL     1      20.809   0.715  53.279  1.00  0.00    -0.033 A 
HETATM    4  C8  UNL     1      20.785   1.933  52.718  1.00  0.00     0.022 A 
HETATM    5  C9  UNL     1      19.635   1.824  51.989  1.00  0.00    -0.016 A 
HETATM    6  C10 UNL     1      18.678   0.861  51.790  1.00  0.00     0.014 A 
HETATM    7  C11 UNL     1      18.954  -0.308  52.513  1.00  0.00     0.025 A 
HETATM    8  C12 UNL     1      20.087  -0.435  53.323  1.00  0.00     0.040 A 
HETATM    9 CL1  UNL     1      20.481  -1.853  54.232  1.00  0.00    -0.084 Cl
HETATM   10  C13 UNL     1      19.561   2.972  51.043  1.00  0.00     0.155 C 
HETATM   11  N1  UNL     1      20.699   2.830  50.397  1.00  0.00    -0.131 NA
HETATM   12  N2  UNL     1      21.598   1.748  50.732  1.00  0.00     0.013 N 
HETATM   13  F2  UNL     1      22.300   1.645  49.559  1.00  0.00    -0.050 F 
HETATM   14  O1  UNL     1      22.305   0.730  51.316  1.00  0.00    -0.223 OA
ENDROOT
BRANCH   1  15
HETATM   15  C4  UNL     1      24.437   0.618  52.511  1.00  0.00    -0.026 A 
HETATM   16  C3  UNL     1      24.742  -0.485  53.303  1.00  0.00     0.013 A 
HETATM   17  C2  UNL     1      26.078  -0.882  53.414  1.00  0.00     0.043 A 
HETATM   18  C1  UNL     1      27.099  -0.217  52.766  1.00  0.00     0.116 A 
HETATM   19  F1  UNL     1      28.388  -0.613  52.882  1.00  0.00    -0.206 F 
HETATM   20  C15 UNL     1      26.772   0.865  51.993  1.00  0.00     0.043 A 
HETATM   21  C14 UNL     1      25.465   1.288  51.858  1.00  0.00     0.013 A 
ENDBRANCH   1  15
TORSDOF 1
ENDMDL
MODEL 8
REMARK VINA RESULT:      -8.0      3.434      6.602
REMARK  1 active torsions:
REMARK  status: ('A' for Active; 'I' for Inactive)
REMARK    1  A    between atoms: C4_5  and  C5_6 
ROOT
HETATM    1  C5  UNL     1      23.076   0.540  52.403  1.00  0.00     0.194 C 
HETATM    2  C6  UNL     1      23.829  -0.736  52.930  1.00  0.00     0.080 C 
HETATM    3  C7  UNL     1      25.191  -0.144  53.275  1.00  0.00    -0.033 A 
HETATM    4  C8  UNL     1      25.503   0.511  52.147  1.00  0.00     0.022 A 
HETATM    5  C9  UNL     1      26.492   1.324  52.623  1.00  0.00    -0.016 A 
HETATM    6  C10 UNL     1      27.109   1.526  53.833  1.00  0.00     0.014 A 
HETATM    7  C11 UNL     1      26.587   0.691  54.832  1.00  0.00     0.025 A 
HETATM    8  C12 UNL     1      25.556  -0.219  54.581  1.00  0.00     0.040 A 
HETATM    9 CL1  UNL     1      24.869  -1.267  55.774  1.00  0.00    -0.084 Cl
HETATM   10  C13 UNL     1      26.792   2.360  51.597  1.00  0.00     0.155 C 
HETATM   11  N1  UNL     1      25.601   2.895  51.435  1.00  0.00    -0.131 NA
HETATM   12  N2  UNL     1      24.470   2.400  52.189  1.00  0.00     0.013 N 
HETATM   13  F2  UNL     1      23.650   3.498  52.143  1.00  0.00    -0.050 F 
HETATM   14  O1  UNL     1      23.566   1.680  52.925  1.00  0.00    -0.223 OA
ENDROOT
BRANCH   1  15
HETATM   15  C4  UNL     1      21.627   0.305  52.349  1.00  0.00    -0.026 A 
HETATM   16  C3  UNL     1      21.045  -0.276  53.472  1.00  0.00     0.013 A 
HETATM   17  C2  UNL     1      19.668  -0.518  53.464  1.00  0.00     0.043 A 
HETATM   18  C1  UNL     1      18.872  -0.201  52.381  1.00  0.00     0.116 A 
HETATM   19  F1  UNL     1      17.539  -0.441  52.387  1.00  0.00    -0.206 F 
HETATM   20  C15 UNL     1      19.469   0.369  51.290  1.00  0.00     0.043 A 
HETATM   21  C14 UNL     1      20.825   0.624  51.259  1.00  0.00     0.013 A 
ENDBRANCH   1  15
TORSDOF 1
ENDMDL
MODEL 9
REMARK VINA RESULT:      -7.9      3.566      4.562
REMARK  1 active torsions:
REMARK  status: ('A' for Active; 'I' for Inactive)
REMARK    1  A    between atoms: C4_5  and  C5_6 
ROOT
HETATM    1  C5  UNL     1      24.168   1.803  51.549  1.00  0.00     0.194 C 
HETATM    2  C6  UNL     1      22.744   1.463  50.974  1.00  0.00     0.080 C 
HETATM    3  C7  UNL     1      22.112   0.759  52.169  1.00  0.00    -0.033 A 
HETATM    4  C8  UNL     1      23.045  -0.154  52.479  1.00  0.00     0.022 A 
HETATM    5  C9  UNL     1      22.638  -0.471  53.744  1.00  0.00    -0.016 A 
HETATM    6  C10 UNL     1      21.617  -0.091  54.579  1.00  0.00     0.014 A 
HETATM    7  C11 UNL     1      20.785   0.869  53.985  1.00  0.00     0.025 A 
HETATM    8  C12 UNL     1      21.013   1.358  52.696  1.00  0.00     0.040 A 
HETATM    9 CL1  UNL     1      20.026   2.546  51.916  1.00  0.00    -0.084 Cl
HETATM   10  C13 UNL     1      23.711  -1.265  54.404  1.00  0.00     0.155 C 
HETATM   11  N1  UNL     1      24.730  -0.441  54.289  1.00  0.00    -0.131 NA
HETATM   12  N2  UNL     1      24.563   0.840  53.639  1.00  0.00     0.013 N 
HETATM   13  F2  UNL     1      25.608   1.532  54.195  1.00  0.00    -0.050 F 
HETATM   14  O1  UNL     1      24.168   1.918  52.890  1.00  0.00    -0.223 OA
ENDROOT
BRANCH   1  15
HETATM   15  C4  UNL     1      24.842   2.805  50.713  1.00  0.00    -0.026 A 
HETATM   16  C3  UNL     1      24.035   3.771  50.119  1.00  0.00     0.013 A 
HETATM   17  C2  UNL     1      24.635   4.744  49.314  1.00  0.00     0.043 A 
HETATM   18  C1  UNL     1      25.998   4.776  49.091  1.00  0.00     0.116 A 
HETATM   19  F1  UNL     1      26.565   5.724  48.309  1.00  0.00    -0.206 F 
HETATM   20  C15 UNL     1      26.768   3.815  49.686  1.00  0.00     0.043 A 
HETATM   21  C14 UNL     1      26.214   2.837  50.488  1.00  0.00     0.013 A 
ENDBRANCH   1  15
TORSDOF 1
ENDMDL
