MODEL 1
REMARK VINA RESULT:      -9.3      0.000      0.000
REMARK  5 active torsions:
REMARK  status: ('A' for Active; 'I' for Inactive)
REMARK    1  A    between atoms: C2_2  and  C3_3 
REMARK    2  A    between atoms: C4_4  and  C5_6 
REMARK    3  A    between atoms: C6_7  and  C7_8 
REMARK    4  A    between atoms: C9_10  and  C10_11 
REMARK    5  A    between atoms: N2_22  and  C18_23 
ROOT
HETATM    1  C7  UNL     1      24.807   2.339  52.271  1.00  0.00     0.139 C 
HETATM    2  C8  UNL     1      23.646   1.597  51.600  1.00  0.00     0.093 C 
HETATM    3  C9  UNL     1      23.277   0.705  52.731  1.00  0.00     0.067 C 
HETATM    4  N1  UNL     1      24.338   0.560  53.450  1.00  0.00    -0.175 NA
HETATM    5  N2  UNL     1      25.437   1.265  52.942  1.00  0.00    -0.261 N 
ENDROOT
BRANCH   3   6
HETATM    6  C10 UNL     1      21.964   0.111  52.973  1.00  0.00    -0.007 A 
HETATM    7  C11 UNL     1      21.833  -0.860  53.964  1.00  0.00     0.016 A 
HETATM    8  C12 UNL     1      20.596  -1.426  54.198  1.00  0.00     0.040 A 
HETATM    9  C13 UNL     1      19.511  -1.026  53.454  1.00  0.00     0.102 A 
HETATM   10  C14 UNL     1      19.633  -0.054  52.457  1.00  0.00     0.103 A 
HETATM   11  O2  UNL     1      18.240  -1.533  53.614  1.00  0.00    -0.346 OA
HETATM   12  C15 UNL     1      20.884   0.517  52.222  1.00  0.00     0.053 A 
HETATM   13  O1  UNL     1      18.559   0.350  51.710  1.00  0.00    -0.346 OA
HETATM   14  C16 UNL     1      17.240  -0.017  52.110  1.00  0.00     0.202 C 
HETATM   15  C17 UNL     1      17.302  -1.472  52.538  1.00  0.00     0.202 C 
ENDBRANCH   3   6
BRANCH   1  16
HETATM   16  C6  UNL     1      25.578   3.103  51.295  1.00  0.00     0.002 C 
HETATM   17  C5  UNL     1      25.095   4.024  50.470  1.00  0.00     0.022 C 
BRANCH  17  18
HETATM   18  C4  UNL     1      25.894   4.772  49.503  1.00  0.00     0.033 C 
HETATM   19  C3  UNL     1      27.180   4.463  49.279  1.00  0.00     0.023 C 
HETATM   20 CL1  UNL     1      25.177   6.078  48.628  1.00  0.00    -0.084 Cl
BRANCH  19  21
HETATM   21  C2  UNL     1      27.869   5.264  48.308  1.00  0.00    -0.009 C 
HETATM   22  C1  UNL     1      29.182   5.363  48.316  1.00  0.00     0.011 C 
ENDBRANCH  19  21
ENDBRANCH  17  18
ENDBRANCH   1  16
BRANCH   5  23
HETATM   23  C18 UNL     1      26.764   0.844  53.158  1.00  0.00     0.053 A 
HETATM   24  C19 UNL     1      27.159  -0.466  52.975  1.00  0.00     0.031 A 
HETATM   25  C20 UNL     1      28.423  -0.923  53.170  1.00  0.00     0.002 A 
HETATM   26  C21 UNL     1      29.421  -0.063  53.580  1.00  0.00     0.000 A 
HETATM   27  C22 UNL     1      29.085   1.271  53.782  1.00  0.00     0.002 A 
HETATM   28  C23 UNL     1      27.780   1.668  53.565  1.00  0.00     0.031 A 
ENDBRANCH   5  23
TORSDOF 5
ENDMDL
MODEL 2
REMARK VINA RESULT:      -9.1      4.416      8.888
REMARK  5 active torsions:
REMARK  status: ('A' for Active; 'I' for Inactive)
REMARK    1  A    between atoms: C2_2  and  C3_3 
REMARK    2  A    between atoms: C4_4  and  C5_6 
REMARK    3  A    between atoms: C6_7  and  C7_8 
REMARK    4  A    between atoms: C9_10  and  C10_11 
REMARK    5  A    between atoms: N2_22  and  C18_23 
ROOT
HETATM    1  C7  UNL     1      24.810   2.748  50.761  1.00  0.00     0.139 C 
HETATM    2  C8  UNL     1      24.860   4.276  50.646  1.00  0.00     0.093 C 
HETATM    3  C9  UNL     1      26.131   4.395  49.884  1.00  0.00     0.067 C 
HETATM    4  N1  UNL     1      26.824   3.340  50.154  1.00  0.00    -0.175 NA
HETATM    5  N2  UNL     1      26.168   2.473  51.039  1.00  0.00    -0.261 N 
ENDROOT
BRANCH   3   6
HETATM    6  C10 UNL     1      26.514   5.496  49.005  1.00  0.00    -0.007 A 
HETATM    7  C11 UNL     1      25.550   6.429  48.628  1.00  0.00     0.016 A 
HETATM    8  C12 UNL     1      25.905   7.472  47.797  1.00  0.00     0.040 A 
HETATM    9  C13 UNL     1      27.202   7.579  47.351  1.00  0.00     0.102 A 
HETATM   10  C14 UNL     1      28.176   6.647  47.722  1.00  0.00     0.103 A 
HETATM   11  O2  UNL     1      27.649   8.582  46.521  1.00  0.00    -0.346 OA
HETATM   12  C15 UNL     1      27.815   5.593  48.563  1.00  0.00     0.053 A 
HETATM   13  O1  UNL     1      29.468   6.744  47.284  1.00  0.00    -0.346 OA
HETATM   14  C16 UNL     1      29.915   7.944  46.654  1.00  0.00     0.202 C 
HETATM   15  C17 UNL     1      28.808   8.380  45.711  1.00  0.00     0.202 C 
ENDBRANCH   3   6
BRANCH   1  16
HETATM   16  C6  UNL     1      23.798   2.325  51.725  1.00  0.00     0.002 C 
HETATM   17  C5  UNL     1      23.142   1.172  51.710  1.00  0.00     0.022 C 
BRANCH  17  18
HETATM   18  C4  UNL     1      22.134   0.779  52.692  1.00  0.00     0.033 C 
HETATM   19  C3  UNL     1      22.343  -0.252  53.524  1.00  0.00     0.023 C 
HETATM   20 CL1  UNL     1      20.646   1.652  52.788  1.00  0.00    -0.084 Cl
BRANCH  19  21
HETATM   21  C2  UNL     1      21.285  -0.551  54.448  1.00  0.00    -0.009 C 
HETATM   22  C1  UNL     1      20.567  -1.648  54.328  1.00  0.00     0.011 C 
ENDBRANCH  19  21
ENDBRANCH  17  18
ENDBRANCH   1  16
BRANCH   5  23
HETATM   23  C18 UNL     1      26.872   1.616  51.908  1.00  0.00     0.053 A 
HETATM   24  C19 UNL     1      27.779   2.091  52.834  1.00  0.00     0.031 A 
HETATM   25  C20 UNL     1      28.482   1.310  53.693  1.00  0.00     0.002 A 
HETATM   26  C21 UNL     1      28.319  -0.060  53.684  1.00  0.00     0.000 A 
HETATM   27  C22 UNL     1      27.419  -0.600  52.773  1.00  0.00     0.002 A 
HETATM   28  C23 UNL     1      26.737   0.254  51.927  1.00  0.00     0.031 A 
ENDBRANCH   5  23
TORSDOF 5
ENDMDL
MODEL 3
REMARK VINA RESULT:      -9.0      4.124      8.602
REMARK  5 active torsions:
REMARK  status: ('A' for Active; 'I' for Inactive)
REMARK    1  A    between atoms: C2_2  and  C3_3 
REMARK    2  A    between atoms: C4_4  and  C5_6 
REMARK    3  A    between atoms: C6_7  and  C7_8 
REMARK    4  A    between atoms: C9_10  and  C10_11 
REMARK    5  A    between atoms: N2_22  and  C18_23 
ROOT
HETATM    1  C7  UNL     1      24.853   2.715  50.566  1.00  0.00     0.139 C 
HETATM    2  C8  UNL     1      24.876   4.244  50.471  1.00  0.00     0.093 C 
HETATM    3  C9  UNL     1      26.195   4.400  49.803  1.00  0.00     0.067 C 
HETATM    4  N1  UNL     1      26.891   3.358  50.112  1.00  0.00    -0.175 NA
HETATM    5  N2  UNL     1      26.194   2.467  50.939  1.00  0.00    -0.261 N 
ENDROOT
BRANCH   3   6
HETATM    6  C10 UNL     1      26.615   5.519  48.964  1.00  0.00    -0.007 A 
HETATM    7  C11 UNL     1      27.938   5.580  48.530  1.00  0.00     0.016 A 
HETATM    8  C12 UNL     1      28.342   6.636  47.737  1.00  0.00     0.040 A 
HETATM    9  C13 UNL     1      27.438   7.611  47.386  1.00  0.00     0.102 A 
HETATM   10  C14 UNL     1      26.110   7.559  47.817  1.00  0.00     0.103 A 
HETATM   11  O2  UNL     1      27.748   8.699  46.600  1.00  0.00    -0.346 OA
HETATM   12  C15 UNL     1      25.703   6.492  48.619  1.00  0.00     0.053 A 
HETATM   13  O1  UNL     1      25.203   8.524  47.474  1.00  0.00    -0.346 OA
HETATM   14  C16 UNL     1      25.523   9.465  46.450  1.00  0.00     0.202 C 
HETATM   15  C17 UNL     1      26.962   9.889  46.681  1.00  0.00     0.202 C 
ENDBRANCH   3   6
BRANCH   1  16
HETATM   16  C6  UNL     1      23.784   2.259  51.451  1.00  0.00     0.002 C 
HETATM   17  C5  UNL     1      23.085   1.140  51.315  1.00  0.00     0.022 C 
BRANCH  17  18
HETATM   18  C4  UNL     1      22.020   0.712  52.220  1.00  0.00     0.033 C 
HETATM   19  C3  UNL     1      22.299   0.242  53.445  1.00  0.00     0.023 C 
HETATM   20 CL1  UNL     1      20.373   0.809  51.709  1.00  0.00    -0.084 Cl
BRANCH  19  21
HETATM   21  C2  UNL     1      21.176  -0.150  54.249  1.00  0.00    -0.009 C 
HETATM   22  C1  UNL     1      20.940  -1.417  54.515  1.00  0.00     0.011 C 
ENDBRANCH  19  21
ENDBRANCH  17  18
ENDBRANCH   1  16
BRANCH   5  23
HETATM   23  C18 UNL     1      26.853   1.616  51.848  1.00  0.00     0.053 A 
HETATM   24  C19 UNL     1      27.747   2.092  52.785  1.00  0.00     0.031 A 
HETATM   25  C20 UNL     1      28.408   1.316  53.682  1.00  0.00     0.002 A 
HETATM   26  C21 UNL     1      28.210  -0.049  53.704  1.00  0.00     0.000 A 
HETATM   27  C22 UNL     1      27.320  -0.590  52.784  1.00  0.00     0.002 A 
HETATM   28  C23 UNL     1      26.682   0.258  51.899  1.00  0.00     0.031 A 
ENDBRANCH   5  23
TORSDOF 5
ENDMDL
MODEL 4
REMARK VINA RESULT:      -8.8      4.279      9.132
REMARK  5 active torsions:
REMARK  status: ('A' for Active; 'I' for Inactive)
REMARK    1  A    between atoms: C2_2  and  C3_3 
REMARK    2  A    between atoms: C4_4  and  C5_6 
REMARK    3  A    between atoms: C6_7  and  C7_8 
REMARK    4  A    between atoms: C9_10  and  C10_11 
REMARK    5  A    between atoms: N2_22  and  C18_23 
ROOT
HETATM    1  C7  UNL     1      21.675   0.323  53.164  1.00  0.00     0.139 C 
HETATM    2  C8  UNL     1      23.003  -0.374  52.845  1.00  0.00     0.093 C 
HETATM    3  C9  UNL     1      23.888   0.820  52.879  1.00  0.00     0.067 C 
HETATM    4  N1  UNL     1      23.146   1.839  52.604  1.00  0.00    -0.175 NA
HETATM    5  N2  UNL     1      21.809   1.489  52.376  1.00  0.00    -0.261 N 
ENDROOT
BRANCH   3   6
HETATM    6  C10 UNL     1      25.320   0.829  53.168  1.00  0.00    -0.007 A 
HETATM    7  C11 UNL     1      25.922   2.020  53.568  1.00  0.00     0.016 A 
HETATM    8  C12 UNL     1      27.275   2.036  53.841  1.00  0.00     0.040 A 
HETATM    9  C13 UNL     1      28.011   0.881  53.718  1.00  0.00     0.102 A 
HETATM   10  C14 UNL     1      27.415  -0.319  53.317  1.00  0.00     0.103 A 
HETATM   11  O2  UNL     1      29.363   0.799  53.969  1.00  0.00    -0.346 OA
HETATM   12  C15 UNL     1      26.048  -0.333  53.040  1.00  0.00     0.053 A 
HETATM   13  O1  UNL     1      28.138  -1.474  53.190  1.00  0.00    -0.346 OA
HETATM   14  C16 UNL     1      29.461  -1.543  53.720  1.00  0.00     0.202 C 
HETATM   15  C17 UNL     1      30.143  -0.234  53.366  1.00  0.00     0.202 C 
ENDBRANCH   3   6
BRANCH   1  16
HETATM   16  C6  UNL     1      20.543  -0.564  52.917  1.00  0.00     0.002 C 
HETATM   17  C5  UNL     1      19.309  -0.399  53.377  1.00  0.00     0.022 C 
BRANCH  17  18
HETATM   18  C4  UNL     1      18.196  -1.307  53.110  1.00  0.00     0.033 C 
HETATM   19  C3  UNL     1      18.104  -2.492  53.733  1.00  0.00     0.023 C 
HETATM   20 CL1  UNL     1      16.975  -0.854  51.975  1.00  0.00    -0.084 Cl
BRANCH  19  21
HETATM   21  C2  UNL     1      16.969  -3.303  53.395  1.00  0.00    -0.009 C 
HETATM   22  C1  UNL     1      16.997  -4.610  53.550  1.00  0.00     0.011 C 
ENDBRANCH  19  21
ENDBRANCH  17  18
ENDBRANCH   1  16
BRANCH   5  23
HETATM   23  C18 UNL     1      20.968   2.245  51.534  1.00  0.00     0.053 A 
HETATM   24  C19 UNL     1      20.117   3.215  52.025  1.00  0.00     0.031 A 
HETATM   25  C20 UNL     1      19.288   3.970  51.259  1.00  0.00     0.002 A 
HETATM   26  C21 UNL     1      19.253   3.799  49.890  1.00  0.00     0.000 A 
HETATM   27  C22 UNL     1      20.088   2.836  49.335  1.00  0.00     0.002 A 
HETATM   28  C23 UNL     1      20.906   2.103  50.174  1.00  0.00     0.031 A 
ENDBRANCH   5  23
TORSDOF 5
ENDMDL
MODEL 5
REMARK VINA RESULT:      -8.6      3.895      7.043
REMARK  5 active torsions:
REMARK  status: ('A' for Active; 'I' for Inactive)
REMARK    1  A    between atoms: C2_2  and  C3_3 
REMARK    2  A    between atoms: C4_4  and  C5_6 
REMARK    3  A    between atoms: C6_7  and  C7_8 
REMARK    4  A    between atoms: C9_10  and  C10_11 
REMARK    5  A    between atoms: N2_22  and  C18_23 
ROOT
HETATM    1  C7  UNL     1      24.292   2.841  51.986  1.00  0.00     0.139 C 
HETATM    2  C8  UNL     1      24.586   2.810  50.482  1.00  0.00     0.093 C 
HETATM    3  C9  UNL     1      23.197   2.991  49.986  1.00  0.00     0.067 C 
HETATM    4  N1  UNL     1      22.413   2.548  50.910  1.00  0.00    -0.175 NA
HETATM    5  N2  UNL     1      23.110   2.067  52.026  1.00  0.00    -0.261 N 
ENDROOT
BRANCH   3   6
HETATM    6  C10 UNL     1      22.803   3.559  48.699  1.00  0.00    -0.007 A 
HETATM    7  C11 UNL     1      22.267   2.720  47.724  1.00  0.00     0.016 A 
HETATM    8  C12 UNL     1      21.894   3.250  46.505  1.00  0.00     0.040 A 
HETATM    9  C13 UNL     1      22.054   4.594  46.267  1.00  0.00     0.102 A 
HETATM   10  C14 UNL     1      22.592   5.444  47.239  1.00  0.00     0.103 A 
HETATM   11  O2  UNL     1      21.711   5.212  45.085  1.00  0.00    -0.346 OA
HETATM   12  C15 UNL     1      22.969   4.907  48.470  1.00  0.00     0.053 A 
HETATM   13  O1  UNL     1      22.756   6.784  47.012  1.00  0.00    -0.346 OA
HETATM   14  C16 UNL     1      22.137   7.391  45.879  1.00  0.00     0.202 C 
HETATM   15  C17 UNL     1      22.335   6.442  44.711  1.00  0.00     0.202 C 
ENDBRANCH   3   6
BRANCH   1  16
HETATM   16  C6  UNL     1      25.448   2.395  52.758  1.00  0.00     0.002 C 
HETATM   17  C5  UNL     1      26.498   1.740  52.279  1.00  0.00     0.022 C 
BRANCH  17  18
HETATM   18  C4  UNL     1      27.641   1.307  53.080  1.00  0.00     0.033 C 
HETATM   19  C3  UNL     1      27.835   0.011  53.366  1.00  0.00     0.023 C 
HETATM   20 CL1  UNL     1      28.765   2.478  53.671  1.00  0.00    -0.084 Cl
BRANCH  19  21
HETATM   21  C2  UNL     1      28.990  -0.301  54.159  1.00  0.00    -0.009 C 
HETATM   22  C1  UNL     1      30.012  -0.955  53.645  1.00  0.00     0.011 C 
ENDBRANCH  19  21
ENDBRANCH  17  18
ENDBRANCH   1  16
BRANCH   5  23
HETATM   23  C18 UNL     1      22.587   1.057  52.858  1.00  0.00     0.053 A 
HETATM   24  C19 UNL     1      21.298   1.103  53.349  1.00  0.00     0.031 A 
HETATM   25  C20 UNL     1      20.747   0.158  54.154  1.00  0.00     0.002 A 
HETATM   26  C21 UNL     1      21.481  -0.946  54.538  1.00  0.00     0.000 A 
HETATM   27  C22 UNL     1      22.787  -1.050  54.076  1.00  0.00     0.002 A 
HETATM   28  C23 UNL     1      23.284  -0.051  53.261  1.00  0.00     0.031 A 
ENDBRANCH   5  23
TORSDOF 5
ENDMDL
MODEL 6
REMARK VINA RESULT:      -8.6      5.077      9.634
REMARK  5 active torsions:
REMARK  status: ('A' for Active; 'I' for Inactive)
REMARK    1  A    between atoms: C2_2  and  C3_3 
REMARK    2  A    between atoms: C4_4  and  C5_6 
REMARK    3  A    between atoms: C6_7  and  C7_8 
REMARK    4  A    between atoms: C9_10  and  C10_11 
REMARK    5  A    between atoms: N2_22  and  C18_23 
ROOT
HETATM    1  C7  UNL     1      25.900   3.669  50.460  1.00  0.00     0.139 C 
HETATM    2  C8  UNL     1      26.796   4.288  49.382  1.00  0.00     0.093 C 
HETATM    3  C9  UNL     1      25.864   5.343  48.905  1.00  0.00     0.067 C 
HETATM    4  N1  UNL     1      24.670   4.928  49.165  1.00  0.00    -0.175 NA
HETATM    5  N2  UNL     1      24.658   3.672  49.785  1.00  0.00    -0.261 N 
ENDROOT
BRANCH   3   6
HETATM    6  C10 UNL     1      26.235   6.603  48.266  1.00  0.00    -0.007 A 
HETATM    7  C11 UNL     1      25.243   7.375  47.665  1.00  0.00     0.016 A 
HETATM    8  C12 UNL     1      25.587   8.567  47.058  1.00  0.00     0.040 A 
HETATM    9  C13 UNL     1      26.899   8.977  47.054  1.00  0.00     0.102 A 
HETATM   10  C14 UNL     1      27.901   8.209  47.653  1.00  0.00     0.103 A 
HETATM   11  O2  UNL     1      27.337  10.148  46.475  1.00  0.00    -0.346 OA
HETATM   12  C15 UNL     1      27.552   7.005  48.266  1.00  0.00     0.053 A 
HETATM   13  O1  UNL     1      29.210   8.608  47.654  1.00  0.00    -0.346 OA
HETATM   14  C16 UNL     1      29.544   9.943  47.278  1.00  0.00     0.202 C 
HETATM   15  C17 UNL     1      28.698  10.279  46.063  1.00  0.00     0.202 C 
ENDBRANCH   3   6
BRANCH   1  16
HETATM   16  C6  UNL     1      26.441   2.395  50.926  1.00  0.00     0.002 C 
HETATM   17  C5  UNL     1      26.713   2.079  52.186  1.00  0.00     0.022 C 
BRANCH  17  18
HETATM   18  C4  UNL     1      27.254   0.794  52.620  1.00  0.00     0.033 C 
HETATM   19  C3  UNL     1      28.289   0.730  53.472  1.00  0.00     0.023 C 
HETATM   20 CL1  UNL     1      26.557  -0.672  52.030  1.00  0.00    -0.084 Cl
BRANCH  19  21
HETATM   21  C2  UNL     1      28.739  -0.585  53.831  1.00  0.00    -0.009 C 
HETATM   22  C1  UNL     1      29.982  -0.960  53.615  1.00  0.00     0.011 C 
ENDBRANCH  19  21
ENDBRANCH  17  18
ENDBRANCH   1  16
BRANCH   5  23
HETATM   23  C18 UNL     1      23.577   2.778  49.648  1.00  0.00     0.053 A 
HETATM   24  C19 UNL     1      22.950   2.562  48.437  1.00  0.00     0.031 A 
HETATM   25  C20 UNL     1      21.906   1.714  48.251  1.00  0.00     0.002 A 
HETATM   26  C21 UNL     1      21.396   0.993  49.311  1.00  0.00     0.000 A 
HETATM   27  C22 UNL     1      21.984   1.166  50.557  1.00  0.00     0.002 A 
HETATM   28  C23 UNL     1      23.043   2.046  50.675  1.00  0.00     0.031 A 
ENDBRANCH   5  23
TORSDOF 5
ENDMDL
MODEL 7
REMARK VINA RESULT:      -8.4      3.749      7.175
REMARK  5 active torsions:
REMARK  status: ('A' for Active; 'I' for Inactive)
REMARK    1  A    between atoms: C2_2  and  C3_3 
REMARK    2  A    between atoms: C4_4  and  C5_6 
REMARK    3  A    between atoms: C6_7  and  C7_8 
REMARK    4  A    between atoms: C9_10  and  C10_11 
REMARK    5  A    between atoms: N2_22  and  C18_23 
ROOT
HETATM    1  C7  UNL     1      24.432   2.080  52.938  1.00  0.00     0.139 C 
HETATM    2  C8  UNL     1      24.594   2.644  51.521  1.00  0.00     0.093 C 
HETATM    3  C9  UNL     1      23.318   3.403  51.443  1.00  0.00     0.067 C 
HETATM    4  N1  UNL     1      22.496   2.831  52.256  1.00  0.00    -0.175 NA
HETATM    5  N2  UNL     1      23.063   1.730  52.913  1.00  0.00    -0.261 N 
ENDROOT
BRANCH   3   6
HETATM    6  C10 UNL     1      23.054   4.569  50.605  1.00  0.00    -0.007 A 
HETATM    7  C11 UNL     1      23.664   4.657  49.355  1.00  0.00     0.016 A 
HETATM    8  C12 UNL     1      23.419   5.757  48.557  1.00  0.00     0.040 A 
HETATM    9  C13 UNL     1      22.579   6.750  49.002  1.00  0.00     0.102 A 
HETATM   10  C14 UNL     1      21.962   6.671  50.255  1.00  0.00     0.103 A 
HETATM   11  O2  UNL     1      22.275   7.881  48.279  1.00  0.00    -0.346 OA
HETATM   12  C15 UNL     1      22.211   5.559  51.060  1.00  0.00     0.053 A 
HETATM   13  O1  UNL     1      21.125   7.654  50.708  1.00  0.00    -0.346 OA
HETATM   14  C16 UNL     1      20.651   8.652  49.805  1.00  0.00     0.202 C 
HETATM   15  C17 UNL     1      21.834   9.064  48.948  1.00  0.00     0.202 C 
ENDBRANCH   3   6
BRANCH   1  16
HETATM   16  C6  UNL     1      25.417   1.036  53.205  1.00  0.00     0.002 C 
HETATM   17  C5  UNL     1      26.126   0.383  52.293  1.00  0.00     0.022 C 
BRANCH  17  18
HETATM   18  C4  UNL     1      27.106  -0.658  52.593  1.00  0.00     0.033 C 
HETATM   19  C3  UNL     1      28.270  -0.362  53.192  1.00  0.00     0.023 C 
HETATM   20 CL1  UNL     1      26.767  -2.299  52.173  1.00  0.00    -0.084 Cl
BRANCH  19  21
HETATM   21  C2  UNL     1      29.157  -1.463  53.440  1.00  0.00    -0.009 C 
HETATM   22  C1  UNL     1      30.369  -1.266  53.915  1.00  0.00     0.011 C 
ENDBRANCH  19  21
ENDBRANCH  17  18
ENDBRANCH   1  16
BRANCH   5  23
HETATM   23  C18 UNL     1      22.286   0.643  53.362  1.00  0.00     0.053 A 
HETATM   24  C19 UNL     1      20.936   0.543  53.093  1.00  0.00     0.031 A 
HETATM   25  C20 UNL     1      20.144  -0.481  53.502  1.00  0.00     0.002 A 
HETATM   26  C21 UNL     1      20.671  -1.519  54.241  1.00  0.00     0.000 A 
HETATM   27  C22 UNL     1      22.026  -1.476  54.545  1.00  0.00     0.002 A 
HETATM   28  C23 UNL     1      22.774  -0.404  54.097  1.00  0.00     0.031 A 
ENDBRANCH   5  23
TORSDOF 5
ENDMDL
MODEL 8
REMARK VINA RESULT:      -8.4      5.117     10.058
REMARK  5 active torsions:
REMARK  status: ('A' for Active; 'I' for Inactive)
REMARK    1  A    between atoms: C2_2  and  C3_3 
REMARK    2  A    between atoms: C4_4  and  C5_6 
REMARK    3  A    between atoms: C6_7  and  C7_8 
REMARK    4  A    between atoms: C9_10  and  C10_11 
REMARK    5  A    between atoms: N2_22  and  C18_23 
ROOT
HETATM    1  C7  UNL     1      25.043   3.503  50.719  1.00  0.00     0.139 C 
HETATM    2  C8  UNL     1      26.367   3.483  49.946  1.00  0.00     0.093 C 
HETATM    3  C9  UNL     1      26.165   4.716  49.140  1.00  0.00     0.067 C 
HETATM    4  N1  UNL     1      24.891   4.883  49.032  1.00  0.00    -0.175 NA
HETATM    5  N2  UNL     1      24.156   3.886  49.687  1.00  0.00    -0.261 N 
ENDROOT
BRANCH   3   6
HETATM    6  C10 UNL     1      27.213   5.566  48.580  1.00  0.00    -0.007 A 
HETATM    7  C11 UNL     1      26.885   6.850  48.150  1.00  0.00     0.016 A 
HETATM    8  C12 UNL     1      27.870   7.659  47.619  1.00  0.00     0.040 A 
HETATM    9  C13 UNL     1      29.159   7.191  47.522  1.00  0.00     0.102 A 
HETATM   10  C14 UNL     1      29.498   5.904  47.950  1.00  0.00     0.103 A 
HETATM   11  O2  UNL     1      30.206   7.923  47.008  1.00  0.00    -0.346 OA
HETATM   12  C15 UNL     1      28.501   5.087  48.486  1.00  0.00     0.053 A 
HETATM   13  O1  UNL     1      30.778   5.428  47.858  1.00  0.00    -0.346 OA
HETATM   14  C16 UNL     1      31.848   6.326  47.569  1.00  0.00     0.202 C 
HETATM   15  C17 UNL     1      31.354   7.258  46.477  1.00  0.00     0.202 C 
ENDBRANCH   3   6
BRANCH   1  16
HETATM   16  C6  UNL     1      24.815   2.234  51.404  1.00  0.00     0.002 C 
HETATM   17  C5  UNL     1      23.900   2.007  52.337  1.00  0.00     0.022 C 
BRANCH  17  18
HETATM   18  C4  UNL     1      23.697   0.723  53.004  1.00  0.00     0.033 C 
HETATM   19  C3  UNL     1      22.488   0.143  53.038  1.00  0.00     0.023 C 
HETATM   20 CL1  UNL     1      25.032  -0.067  53.766  1.00  0.00    -0.084 Cl
BRANCH  19  21
HETATM   21  C2  UNL     1      22.403  -1.117  53.720  1.00  0.00    -0.009 C 
HETATM   22  C1  UNL     1      21.678  -1.252  54.811  1.00  0.00     0.011 C 
ENDBRANCH  19  21
ENDBRANCH  17  18
ENDBRANCH   1  16
BRANCH   5  23
HETATM   23  C18 UNL     1      22.866   3.506  49.266  1.00  0.00     0.053 A 
HETATM   24  C19 UNL     1      22.632   2.325  48.591  1.00  0.00     0.031 A 
HETATM   25  C20 UNL     1      21.411   1.912  48.163  1.00  0.00     0.002 A 
HETATM   26  C21 UNL     1      20.293   2.687  48.393  1.00  0.00     0.000 A 
HETATM   27  C22 UNL     1      20.463   3.889  49.068  1.00  0.00     0.002 A 
HETATM   28  C23 UNL     1      21.734   4.247  49.475  1.00  0.00     0.031 A 
ENDBRANCH   5  23
TORSDOF 5
ENDMDL
MODEL 9
REMARK VINA RESULT:      -8.4      2.269      4.778
REMARK  5 active torsions:
REMARK  status: ('A' for Active; 'I' for Inactive)
REMARK    1  A    between atoms: C2_2  and  C3_3 
REMARK    2  A    between atoms: C4_4  and  C5_6 
REMARK    3  A    between atoms: C6_7  and  C7_8 
REMARK    4  A    between atoms: C9_10  and  C10_11 
REMARK    5  A    between atoms: N2_22  and  C18_23 
ROOT
HETATM    1  C7  UNL     1      23.375   0.688  51.987  1.00  0.00     0.139 C 
HETATM    2  C8  UNL     1      22.236   0.388  52.968  1.00  0.00     0.093 C 
HETATM    3  C9  UNL     1      21.091   0.646  52.057  1.00  0.00     0.067 C 
HETATM    4  N1  UNL     1      21.511   1.472  51.159  1.00  0.00    -0.175 NA
HETATM    5  N2  UNL     1      22.853   1.831  51.340  1.00  0.00    -0.261 N 
ENDROOT
BRANCH   3   6
HETATM    6  C10 UNL     1      19.751   0.073  52.165  1.00  0.00    -0.007 A 
HETATM    7  C11 UNL     1      19.428  -0.687  53.287  1.00  0.00     0.016 A 
HETATM    8  C12 UNL     1      18.165  -1.231  53.396  1.00  0.00     0.040 A 
HETATM    9  C13 UNL     1      17.242  -1.020  52.398  1.00  0.00     0.102 A 
HETATM   10  C14 UNL     1      17.557  -0.260  51.268  1.00  0.00     0.103 A 
HETATM   11  O2  UNL     1      15.959  -1.521  52.418  1.00  0.00    -0.346 OA
HETATM   12  C15 UNL     1      18.834   0.290  51.160  1.00  0.00     0.053 A 
HETATM   13  O1  UNL     1      16.646  -0.044  50.269  1.00  0.00    -0.346 OA
HETATM   14  C16 UNL     1      15.272  -0.364  50.483  1.00  0.00     0.202 C 
HETATM   15  C17 UNL     1      15.241  -1.703  51.197  1.00  0.00     0.202 C 
ENDBRANCH   3   6
BRANCH   1  16
HETATM   16  C6  UNL     1      24.654   0.799  52.682  1.00  0.00     0.002 C 
HETATM   17  C5  UNL     1      25.845   0.515  52.171  1.00  0.00     0.022 C 
BRANCH  17  18
HETATM   18  C4  UNL     1      27.108   0.637  52.895  1.00  0.00     0.033 C 
HETATM   19  C3  UNL     1      27.903  -0.426  53.086  1.00  0.00     0.023 C 
HETATM   20 CL1  UNL     1      27.592   2.174  53.518  1.00  0.00    -0.084 Cl
BRANCH  19  21
HETATM   21  C2  UNL     1      29.120  -0.191  53.810  1.00  0.00    -0.009 C 
HETATM   22  C1  UNL     1      30.099  -1.072  53.800  1.00  0.00     0.011 C 
ENDBRANCH  19  21
ENDBRANCH  17  18
ENDBRANCH   1  16
BRANCH   5  23
HETATM   23  C18 UNL     1      23.361   3.073  50.909  1.00  0.00     0.053 A 
HETATM   24  C19 UNL     1      24.031   3.218  49.711  1.00  0.00     0.031 A 
HETATM   25  C20 UNL     1      24.540   4.389  49.250  1.00  0.00     0.002 A 
HETATM   26  C21 UNL     1      24.407   5.546  49.990  1.00  0.00     0.000 A 
HETATM   27  C22 UNL     1      23.742   5.466  51.207  1.00  0.00     0.002 A 
HETATM   28  C23 UNL     1      23.250   4.241  51.615  1.00  0.00     0.031 A 
ENDBRANCH   5  23
TORSDOF 5
ENDMDL
