MODEL 1
REMARK VINA RESULT:      -8.2      0.000      0.000
REMARK  3 active torsions:
REMARK  status: ('A' for Active; 'I' for Inactive)
REMARK    1  A    between atoms: C7_7  and  N1_8 
REMARK    2  A    between atoms: N1_8  and  C8_9 
REMARK    3  A    between atoms: C10_11  and  C11_12 
ROOT
HETATM    1  C1  UNL     1      27.156  -1.093  53.085  1.00  0.00     0.018 C 
HETATM    2  C2  UNL     1      26.037  -0.594  53.101  1.00  0.00    -0.078 C 
HETATM    3  C3  UNL     1      24.731  -0.004  53.099  1.00  0.00     0.019 A 
HETATM    4  C4  UNL     1      23.645  -0.777  53.452  1.00  0.00     0.021 A 
HETATM    5  C5  UNL     1      22.413  -0.199  53.444  1.00  0.00     0.004 A 
HETATM    6  C6  UNL     1      22.283   1.124  53.089  1.00  0.00     0.029 A 
HETATM    7  C7  UNL     1      23.308   1.952  52.729  1.00  0.00     0.035 A 
HETATM    8  C19 UNL     1      24.542   1.302  52.756  1.00  0.00     0.050 A 
ENDROOT
BRANCH   7   9
HETATM    9  N1  UNL     1      23.217   3.302  52.362  1.00  0.00    -0.341 N 
HETATM   10  H5  UNL     1      22.966   3.965  53.151  1.00  0.00     0.167 HD
BRANCH   9  11
HETATM   11  C8  UNL     1      23.421   3.853  51.079  1.00  0.00     0.131 A 
HETATM   12  C9  UNL     1      24.663   4.397  50.784  1.00  0.00     0.085 A 
HETATM   13  C10 UNL     1      24.986   4.960  49.584  1.00  0.00     0.097 A 
HETATM   14  N2  UNL     1      24.031   4.980  48.639  1.00  0.00    -0.239 NA
HETATM   15  C18 UNL     1      22.830   4.453  48.922  1.00  0.00     0.236 A 
HETATM   16  N3  UNL     1      22.533   3.908  50.102  1.00  0.00    -0.224 NA
BRANCH  13  17
HETATM   17  C11 UNL     1      26.250   5.550  49.186  1.00  0.00     0.119 C 
HETATM   18  C12 UNL     1      27.230   4.686  48.805  1.00  0.00     0.173 C 
HETATM   19  O1  UNL     1      28.580   4.961  48.363  1.00  0.00    -0.358 OA
HETATM   20  C13 UNL     1      28.778   6.314  48.414  1.00  0.00     0.200 C 
HETATM   21  C14 UNL     1      29.912   7.180  48.308  1.00  0.00     0.194 C 
HETATM   22  O2  UNL     1      29.477   8.442  48.414  1.00  0.00    -0.389 OA
HETATM   23  C15 UNL     1      28.765   9.159  49.221  1.00  0.00     0.169 C 
HETATM   24  C16 UNL     1      27.313   9.135  49.477  1.00  0.00     0.053 C 
HETATM   25  C17 UNL     1      26.559   7.952  49.984  1.00  0.00     0.178 C 
HETATM   26  O3  UNL     1      26.505   6.855  49.172  1.00  0.00    -0.347 OA
ENDBRANCH  13  17
ENDBRANCH   9  11
ENDBRANCH   7   9
TORSDOF 3
ENDMDL
MODEL 2
REMARK VINA RESULT:      -8.1      4.017      8.719
REMARK  3 active torsions:
REMARK  status: ('A' for Active; 'I' for Inactive)
REMARK    1  A    between atoms: C7_7  and  N1_8 
REMARK    2  A    between atoms: N1_8  and  C8_9 
REMARK    3  A    between atoms: C10_11  and  C11_12 
ROOT
HETATM    1  C1  UNL     1      28.442   7.707  47.061  1.00  0.00     0.018 C 
HETATM    2  C2  UNL     1      27.660   7.021  47.709  1.00  0.00    -0.078 C 
HETATM    3  C3  UNL     1      26.762   6.215  48.482  1.00  0.00     0.019 A 
HETATM    4  C4  UNL     1      25.522   6.721  48.810  1.00  0.00     0.021 A 
HETATM    5  C5  UNL     1      24.682   5.941  49.545  1.00  0.00     0.004 A 
HETATM    6  C6  UNL     1      25.086   4.685  49.936  1.00  0.00     0.029 A 
HETATM    7  C7  UNL     1      26.294   4.116  49.650  1.00  0.00     0.035 A 
HETATM    8  C19 UNL     1      27.108   4.963  48.897  1.00  0.00     0.050 A 
ENDROOT
BRANCH   7   9
HETATM    9  N1  UNL     1      26.742   2.842  50.029  1.00  0.00    -0.341 N 
HETATM   10  H5  UNL     1      27.246   2.301  49.270  1.00  0.00     0.167 HD
BRANCH   9  11
HETATM   11  C8  UNL     1      26.592   2.226  51.290  1.00  0.00     0.131 A 
HETATM   12  C9  UNL     1      25.362   1.670  51.610  1.00  0.00     0.085 A 
HETATM   13  C10 UNL     1      25.089   1.048  52.794  1.00  0.00     0.097 A 
HETATM   14  N2  UNL     1      26.084   0.977  53.694  1.00  0.00    -0.239 NA
HETATM   15  C18 UNL     1      27.275   1.514  53.384  1.00  0.00     0.236 A 
HETATM   16  N3  UNL     1      27.522   2.119  52.222  1.00  0.00    -0.224 NA
BRANCH  13  17
HETATM   17  C11 UNL     1      23.841   0.440  53.215  1.00  0.00     0.119 C 
HETATM   18  C12 UNL     1      23.931  -0.546  54.148  1.00  0.00     0.173 C 
HETATM   19  O1  UNL     1      22.882  -1.335  54.759  1.00  0.00    -0.358 OA
HETATM   20  C13 UNL     1      21.689  -0.957  54.208  1.00  0.00     0.200 C 
HETATM   21  C14 UNL     1      20.353  -1.469  54.227  1.00  0.00     0.194 C 
HETATM   22  O2  UNL     1      19.584  -0.641  53.507  1.00  0.00    -0.389 OA
HETATM   23  C15 UNL     1      19.567  -0.111  52.328  1.00  0.00     0.169 C 
HETATM   24  C16 UNL     1      20.424   0.942  51.752  1.00  0.00     0.053 C 
HETATM   25  C17 UNL     1      21.906   0.847  51.605  1.00  0.00     0.178 C 
HETATM   26  O3  UNL     1      22.640   0.780  52.755  1.00  0.00    -0.347 OA
ENDBRANCH  13  17
ENDBRANCH   9  11
ENDBRANCH   7   9
TORSDOF 3
ENDMDL
MODEL 3
REMARK VINA RESULT:      -8.1      5.302      8.107
REMARK  3 active torsions:
REMARK  status: ('A' for Active; 'I' for Inactive)
REMARK    1  A    between atoms: C7_7  and  N1_8 
REMARK    2  A    between atoms: N1_8  and  C8_9 
REMARK    3  A    between atoms: C10_11  and  C11_12 
ROOT
HETATM    1  C1  UNL     1      13.365  -1.934  51.232  1.00  0.00     0.018 C 
HETATM    2  C2  UNL     1      14.409  -2.224  51.804  1.00  0.00    -0.078 C 
HETATM    3  C3  UNL     1      15.626  -2.547  52.488  1.00  0.00     0.019 A 
HETATM    4  C4  UNL     1      15.857  -3.853  52.864  1.00  0.00     0.021 A 
HETATM    5  C5  UNL     1      17.018  -4.142  53.513  1.00  0.00     0.004 A 
HETATM    6  C6  UNL     1      17.920  -3.136  53.774  1.00  0.00     0.029 A 
HETATM    7  C7  UNL     1      17.763  -1.822  53.435  1.00  0.00     0.035 A 
HETATM    8  C19 UNL     1      16.556  -1.592  52.774  1.00  0.00     0.050 A 
ENDROOT
BRANCH   7   9
HETATM    9  N1  UNL     1      18.657  -0.770  53.682  1.00  0.00    -0.341 N 
HETATM   10  H5  UNL     1      18.501  -0.256  54.597  1.00  0.00     0.167 HD
BRANCH   9  11
HETATM   11  C8  UNL     1      19.716  -0.338  52.856  1.00  0.00     0.131 A 
HETATM   12  C9  UNL     1      21.010  -0.402  53.355  1.00  0.00     0.085 A 
HETATM   13  C10 UNL     1      22.117  -0.015  52.659  1.00  0.00     0.097 A 
HETATM   14  N2  UNL     1      21.928   0.453  51.415  1.00  0.00    -0.239 NA
HETATM   15  C18 UNL     1      20.677   0.514  50.931  1.00  0.00     0.236 A 
HETATM   16  N3  UNL     1      19.607   0.132  51.627  1.00  0.00    -0.224 NA
BRANCH  13  17
HETATM   17  C11 UNL     1      23.501  -0.045  53.095  1.00  0.00     0.119 C 
HETATM   18  C12 UNL     1      23.768  -0.765  54.218  1.00  0.00     0.173 C 
HETATM   19  O1  UNL     1      25.028  -0.982  54.895  1.00  0.00    -0.358 OA
HETATM   20  C13 UNL     1      25.997  -0.285  54.227  1.00  0.00     0.200 C 
HETATM   21  C14 UNL     1      27.358   0.070  54.489  1.00  0.00     0.194 C 
HETATM   22  O2  UNL     1      27.816   0.754  53.433  1.00  0.00    -0.389 OA
HETATM   23  C15 UNL     1      27.485   1.784  52.725  1.00  0.00     0.169 C 
HETATM   24  C16 UNL     1      26.381   1.955  51.763  1.00  0.00     0.053 C 
HETATM   25  C17 UNL     1      24.933   1.813  52.096  1.00  0.00     0.178 C 
HETATM   26  O3  UNL     1      24.503   0.574  52.476  1.00  0.00    -0.347 OA
ENDBRANCH  13  17
ENDBRANCH   9  11
ENDBRANCH   7   9
TORSDOF 3
ENDMDL
MODEL 4
REMARK VINA RESULT:      -8.0      1.378      2.812
REMARK  3 active torsions:
REMARK  status: ('A' for Active; 'I' for Inactive)
REMARK    1  A    between atoms: C7_7  and  N1_8 
REMARK    2  A    between atoms: N1_8  and  C8_9 
REMARK    3  A    between atoms: C10_11  and  C11_12 
ROOT
HETATM    1  C1  UNL     1      21.621  -1.308  54.916  1.00  0.00     0.018 C 
HETATM    2  C2  UNL     1      22.495  -0.780  54.238  1.00  0.00    -0.078 C 
HETATM    3  C3  UNL     1      23.508  -0.142  53.450  1.00  0.00     0.019 A 
HETATM    4  C4  UNL     1      24.833  -0.434  53.698  1.00  0.00     0.021 A 
HETATM    5  C5  UNL     1      25.781   0.182  52.939  1.00  0.00     0.004 A 
HETATM    6  C6  UNL     1      25.398   1.067  51.957  1.00  0.00     0.029 A 
HETATM    7  C7  UNL     1      24.111   1.405  51.652  1.00  0.00     0.035 A 
HETATM    8  C19 UNL     1      23.188   0.743  52.463  1.00  0.00     0.050 A 
ENDROOT
BRANCH   7   9
HETATM    9  N1  UNL     1      23.682   2.300  50.662  1.00  0.00    -0.341 N 
HETATM   10  H5  UNL     1      23.502   1.864  49.712  1.00  0.00     0.167 HD
BRANCH   9  11
HETATM   11  C8  UNL     1      23.471   3.689  50.800  1.00  0.00     0.131 A 
HETATM   12  C9  UNL     1      24.496   4.551  50.438  1.00  0.00     0.085 A 
HETATM   13  C10 UNL     1      24.418   5.910  50.525  1.00  0.00     0.097 A 
HETATM   14  N2  UNL     1      23.271   6.431  50.991  1.00  0.00    -0.239 NA
HETATM   15  C18 UNL     1      22.278   5.598  51.340  1.00  0.00     0.236 A 
HETATM   16  N3  UNL     1      22.373   4.271  51.248  1.00  0.00    -0.224 NA
BRANCH  13  17
HETATM   17  C11 UNL     1      25.432   6.887  50.172  1.00  0.00     0.119 C 
HETATM   18  C12 UNL     1      25.143   8.188  50.446  1.00  0.00     0.173 C 
HETATM   19  O1  UNL     1      25.936   9.376  50.214  1.00  0.00    -0.358 OA
HETATM   20  C13 UNL     1      27.098   8.999  49.599  1.00  0.00     0.200 C 
HETATM   21  C14 UNL     1      28.171   9.684  48.945  1.00  0.00     0.194 C 
HETATM   22  O2  UNL     1      29.067   8.769  48.554  1.00  0.00    -0.389 OA
HETATM   23  C15 UNL     1      29.099   7.671  47.872  1.00  0.00     0.169 C 
HETATM   24  C16 UNL     1      28.579   6.333  48.208  1.00  0.00     0.053 C 
HETATM   25  C17 UNL     1      27.148   6.024  48.494  1.00  0.00     0.178 C 
HETATM   26  O3  UNL     1      26.601   6.594  49.609  1.00  0.00    -0.347 OA
ENDBRANCH  13  17
ENDBRANCH   9  11
ENDBRANCH   7   9
TORSDOF 3
ENDMDL
MODEL 5
REMARK VINA RESULT:      -8.0      4.557      6.988
REMARK  3 active torsions:
REMARK  status: ('A' for Active; 'I' for Inactive)
REMARK    1  A    between atoms: C7_7  and  N1_8 
REMARK    2  A    between atoms: N1_8  and  C8_9 
REMARK    3  A    between atoms: C10_11  and  C11_12 
ROOT
HETATM    1  C1  UNL     1      26.482   2.870  50.226  1.00  0.00     0.018 C 
HETATM    2  C2  UNL     1      26.693   2.249  51.261  1.00  0.00    -0.078 C 
HETATM    3  C3  UNL     1      26.934   1.503  52.460  1.00  0.00     0.019 A 
HETATM    4  C4  UNL     1      28.149   1.636  53.099  1.00  0.00     0.021 A 
HETATM    5  C5  UNL     1      28.360   0.920  54.237  1.00  0.00     0.004 A 
HETATM    6  C6  UNL     1      27.370   0.092  54.715  1.00  0.00     0.029 A 
HETATM    7  C7  UNL     1      26.144  -0.092  54.140  1.00  0.00     0.035 A 
HETATM    8  C19 UNL     1      25.990   0.668  52.980  1.00  0.00     0.050 A 
ENDROOT
BRANCH   7   9
HETATM    9  N1  UNL     1      25.111  -0.923  54.595  1.00  0.00    -0.341 N 
HETATM   10  H5  UNL     1      25.429  -1.765  55.158  1.00  0.00     0.167 HD
BRANCH   9  11
HETATM   11  C8  UNL     1      23.726  -0.756  54.385  1.00  0.00     0.131 A 
HETATM   12  C9  UNL     1      23.303   0.286  53.573  1.00  0.00     0.085 A 
HETATM   13  C10 UNL     1      21.996   0.555  53.292  1.00  0.00     0.097 A 
HETATM   14  N2  UNL     1      21.072  -0.249  53.843  1.00  0.00    -0.239 NA
HETATM   15  C18 UNL     1      21.479  -1.259  54.628  1.00  0.00     0.236 A 
HETATM   16  N3  UNL     1      22.763  -1.505  54.892  1.00  0.00    -0.224 NA
BRANCH  13  17
HETATM   17  C11 UNL     1      21.461   1.616  52.458  1.00  0.00     0.119 C 
HETATM   18  C12 UNL     1      20.270   2.149  52.843  1.00  0.00     0.173 C 
HETATM   19  O1  UNL     1      19.491   3.202  52.228  1.00  0.00    -0.358 OA
HETATM   20  C13 UNL     1      20.140   3.606  51.094  1.00  0.00     0.200 C 
HETATM   21  C14 UNL     1      19.810   4.432  49.973  1.00  0.00     0.194 C 
HETATM   22  O2  UNL     1      20.880   4.484  49.170  1.00  0.00    -0.389 OA
HETATM   23  C15 UNL     1      21.686   3.668  48.573  1.00  0.00     0.169 C 
HETATM   24  C16 UNL     1      22.735   2.795  49.133  1.00  0.00     0.053 C 
HETATM   25  C17 UNL     1      22.496   1.710  50.129  1.00  0.00     0.178 C 
HETATM   26  O3  UNL     1      22.053   2.089  51.365  1.00  0.00    -0.347 OA
ENDBRANCH  13  17
ENDBRANCH   9  11
ENDBRANCH   7   9
TORSDOF 3
ENDMDL
MODEL 6
REMARK VINA RESULT:      -8.0      1.491      2.539
REMARK  3 active torsions:
REMARK  status: ('A' for Active; 'I' for Inactive)
REMARK    1  A    between atoms: C7_7  and  N1_8 
REMARK    2  A    between atoms: N1_8  and  C8_9 
REMARK    3  A    between atoms: C10_11  and  C11_12 
ROOT
HETATM    1  C1  UNL     1      29.127  -0.769  53.297  1.00  0.00     0.018 C 
HETATM    2  C2  UNL     1      27.926  -0.527  53.289  1.00  0.00    -0.078 C 
HETATM    3  C3  UNL     1      26.520  -0.251  53.257  1.00  0.00     0.019 A 
HETATM    4  C4  UNL     1      25.701  -0.832  54.202  1.00  0.00     0.021 A 
HETATM    5  C5  UNL     1      24.368  -0.558  54.156  1.00  0.00     0.004 A 
HETATM    6  C6  UNL     1      23.879   0.280  53.181  1.00  0.00     0.029 A 
HETATM    7  C7  UNL     1      24.624   0.891  52.213  1.00  0.00     0.035 A 
HETATM    8  C19 UNL     1      25.978   0.571  52.314  1.00  0.00     0.050 A 
ENDROOT
BRANCH   7   9
HETATM    9  N1  UNL     1      24.163   1.750  51.204  1.00  0.00    -0.341 N 
HETATM   10  H5  UNL     1      24.084   1.309  50.243  1.00  0.00     0.167 HD
BRANCH   9  11
HETATM   11  C8  UNL     1      23.802   3.107  51.339  1.00  0.00     0.131 A 
HETATM   12  C9  UNL     1      24.634   4.069  50.784  1.00  0.00     0.085 A 
HETATM   13  C10 UNL     1      24.398   5.412  50.845  1.00  0.00     0.097 A 
HETATM   14  N2  UNL     1      23.287   5.811  51.486  1.00  0.00    -0.239 NA
HETATM   15  C18 UNL     1      22.481   4.881  52.023  1.00  0.00     0.236 A 
HETATM   16  N3  UNL     1      22.729   3.573  51.953  1.00  0.00    -0.224 NA
BRANCH  13  17
HETATM   17  C11 UNL     1      25.205   6.485  50.297  1.00  0.00     0.119 C 
HETATM   18  C12 UNL     1      24.711   7.746  50.431  1.00  0.00     0.173 C 
HETATM   19  O1  UNL     1      25.271   9.006  49.994  1.00  0.00    -0.358 OA
HETATM   20  C13 UNL     1      26.444   8.748  49.341  1.00  0.00     0.200 C 
HETATM   21  C14 UNL     1      27.343   9.507  48.526  1.00  0.00     0.194 C 
HETATM   22  O2  UNL     1      28.361   8.708  48.182  1.00  0.00    -0.389 OA
HETATM   23  C15 UNL     1      28.546   7.549  47.639  1.00  0.00     0.169 C 
HETATM   24  C16 UNL     1      28.286   6.201  48.176  1.00  0.00     0.053 C 
HETATM   25  C17 UNL     1      26.948   5.701  48.609  1.00  0.00     0.178 C 
HETATM   26  O3  UNL     1      26.374   6.317  49.685  1.00  0.00    -0.347 OA
ENDBRANCH  13  17
ENDBRANCH   9  11
ENDBRANCH   7   9
TORSDOF 3
ENDMDL
MODEL 7
REMARK VINA RESULT:      -7.7      3.214      8.002
REMARK  3 active torsions:
REMARK  status: ('A' for Active; 'I' for Inactive)
REMARK    1  A    between atoms: C7_7  and  N1_8 
REMARK    2  A    between atoms: N1_8  and  C8_9 
REMARK    3  A    between atoms: C10_11  and  C11_12 
ROOT
HETATM    1  C1  UNL     1      24.943   9.303  45.881  1.00  0.00     0.018 C 
HETATM    2  C2  UNL     1      25.388   8.425  46.611  1.00  0.00    -0.078 C 
HETATM    3  C3  UNL     1      25.897   7.382  47.452  1.00  0.00     0.019 A 
HETATM    4  C4  UNL     1      27.256   7.296  47.665  1.00  0.00     0.021 A 
HETATM    5  C5  UNL     1      27.722   6.300  48.467  1.00  0.00     0.004 A 
HETATM    6  C6  UNL     1      26.835   5.415  49.037  1.00  0.00     0.029 A 
HETATM    7  C7  UNL     1      25.479   5.435  48.875  1.00  0.00     0.035 A 
HETATM    8  C19 UNL     1      25.066   6.477  48.044  1.00  0.00     0.050 A 
ENDROOT
BRANCH   7   9
HETATM    9  N1  UNL     1      24.545   4.554  49.438  1.00  0.00    -0.341 N 
HETATM   10  H5  UNL     1      23.735   4.295  48.804  1.00  0.00     0.167 HD
BRANCH   9  11
HETATM   11  C8  UNL     1      24.575   3.991  50.731  1.00  0.00     0.131 A 
HETATM   12  C9  UNL     1      25.628   3.149  51.060  1.00  0.00     0.085 A 
HETATM   13  C10 UNL     1      25.772   2.543  52.274  1.00  0.00     0.097 A 
HETATM   14  N2  UNL     1      24.827   2.786  53.197  1.00  0.00    -0.239 NA
HETATM   15  C18 UNL     1      23.809   3.601  52.881  1.00  0.00     0.236 A 
HETATM   16  N3  UNL     1      23.685   4.184  51.688  1.00  0.00    -0.224 NA
BRANCH  13  17
HETATM   17  C11 UNL     1      26.833   1.653  52.707  1.00  0.00     0.119 C 
HETATM   18  C12 UNL     1      28.009   2.238  53.061  1.00  0.00     0.173 C 
HETATM   19  O1  UNL     1      29.237   1.630  53.526  1.00  0.00    -0.358 OA
HETATM   20  C13 UNL     1      29.065   0.273  53.532  1.00  0.00     0.200 C 
HETATM   21  C14 UNL     1      29.926  -0.860  53.684  1.00  0.00     0.194 C 
HETATM   22  O2  UNL     1      29.168  -1.963  53.627  1.00  0.00    -0.389 OA
HETATM   23  C15 UNL     1      28.288  -2.497  52.845  1.00  0.00     0.169 C 
HETATM   24  C16 UNL     1      26.895  -2.095  52.575  1.00  0.00     0.053 C 
HETATM   25  C17 UNL     1      26.484  -0.776  52.012  1.00  0.00     0.178 C 
HETATM   26  O3  UNL     1      26.729   0.329  52.778  1.00  0.00    -0.347 OA
ENDBRANCH  13  17
ENDBRANCH   9  11
ENDBRANCH   7   9
TORSDOF 3
ENDMDL
MODEL 8
REMARK VINA RESULT:      -7.7      1.786      3.018
REMARK  3 active torsions:
REMARK  status: ('A' for Active; 'I' for Inactive)
REMARK    1  A    between atoms: C7_7  and  N1_8 
REMARK    2  A    between atoms: N1_8  and  C8_9 
REMARK    3  A    between atoms: C10_11  and  C11_12 
ROOT
HETATM    1  C1  UNL     1      22.466  -1.031  54.296  1.00  0.00     0.018 C 
HETATM    2  C2  UNL     1      23.345  -0.445  53.676  1.00  0.00    -0.078 C 
HETATM    3  C3  UNL     1      24.365   0.261  52.958  1.00  0.00     0.019 A 
HETATM    4  C4  UNL     1      25.689  -0.005  53.238  1.00  0.00     0.021 A 
HETATM    5  C5  UNL     1      26.644   0.674  52.546  1.00  0.00     0.004 A 
HETATM    6  C6  UNL     1      26.269   1.597  51.597  1.00  0.00     0.029 A 
HETATM    7  C7  UNL     1      24.983   1.915  51.263  1.00  0.00     0.035 A 
HETATM    8  C19 UNL     1      24.054   1.187  52.007  1.00  0.00     0.050 A 
ENDROOT
BRANCH   7   9
HETATM    9  N1  UNL     1      24.562   2.848  50.305  1.00  0.00    -0.341 N 
HETATM   10  H5  UNL     1      24.026   2.438  49.487  1.00  0.00     0.167 HD
BRANCH   9  11
HETATM   11  C8  UNL     1      24.775   4.243  50.320  1.00  0.00     0.131 A 
HETATM   12  C9  UNL     1      25.731   4.774  49.467  1.00  0.00     0.085 A 
HETATM   13  C10 UNL     1      26.032   6.102  49.387  1.00  0.00     0.097 A 
HETATM   14  N2  UNL     1      25.350   6.935  50.191  1.00  0.00    -0.239 NA
HETATM   15  C18 UNL     1      24.424   6.423  51.016  1.00  0.00     0.236 A 
HETATM   16  N3  UNL     1      24.145   5.121  51.080  1.00  0.00    -0.224 NA
BRANCH  13  17
HETATM   17  C11 UNL     1      27.010   6.746  48.530  1.00  0.00     0.119 C 
HETATM   18  C12 UNL     1      26.535   7.682  47.664  1.00  0.00     0.173 C 
HETATM   19  O1  UNL     1      27.248   8.484  46.693  1.00  0.00    -0.358 OA
HETATM   20  C13 UNL     1      28.568   8.129  46.734  1.00  0.00     0.200 C 
HETATM   21  C14 UNL     1      29.717   8.388  45.920  1.00  0.00     0.194 C 
HETATM   22  O2  UNL     1      30.768   7.781  46.485  1.00  0.00    -0.389 OA
HETATM   23  C15 UNL     1      31.098   6.605  46.909  1.00  0.00     0.169 C 
HETATM   24  C16 UNL     1      30.629   5.860  48.092  1.00  0.00     0.053 C 
HETATM   25  C17 UNL     1      29.211   5.471  48.344  1.00  0.00     0.178 C 
HETATM   26  O3  UNL     1      28.314   6.482  48.538  1.00  0.00    -0.347 OA
ENDBRANCH  13  17
ENDBRANCH   9  11
ENDBRANCH   7   9
TORSDOF 3
ENDMDL
MODEL 9
REMARK VINA RESULT:      -7.6      5.138      8.034
REMARK  3 active torsions:
REMARK  status: ('A' for Active; 'I' for Inactive)
REMARK    1  A    between atoms: C7_7  and  N1_8 
REMARK    2  A    between atoms: N1_8  and  C8_9 
REMARK    3  A    between atoms: C10_11  and  C11_12 
ROOT
HETATM    1  C1  UNL     1      23.846  -1.409  55.672  1.00  0.00     0.018 C 
HETATM    2  C2  UNL     1      24.432  -0.837  54.760  1.00  0.00    -0.078 C 
HETATM    3  C3  UNL     1      25.123  -0.152  53.708  1.00  0.00     0.019 A 
HETATM    4  C4  UNL     1      26.069  -0.834  52.973  1.00  0.00     0.021 A 
HETATM    5  C5  UNL     1      26.716  -0.167  51.977  1.00  0.00     0.004 A 
HETATM    6  C6  UNL     1      26.412   1.153  51.734  1.00  0.00     0.029 A 
HETATM    7  C7  UNL     1      25.489   1.894  52.416  1.00  0.00     0.035 A 
HETATM    8  C19 UNL     1      24.863   1.156  53.421  1.00  0.00     0.050 A 
ENDROOT
BRANCH   7   9
HETATM    9  N1  UNL     1      25.152   3.238  52.198  1.00  0.00    -0.341 N 
HETATM   10  H5  UNL     1      25.974   3.908  52.180  1.00  0.00     0.167 HD
BRANCH   9  11
HETATM   11  C8  UNL     1      23.861   3.773  52.005  1.00  0.00     0.131 A 
HETATM   12  C9  UNL     1      22.783   2.900  51.979  1.00  0.00     0.085 A 
HETATM   13  C10 UNL     1      21.488   3.290  51.799  1.00  0.00     0.097 A 
HETATM   14  N2  UNL     1      21.259   4.604  51.640  1.00  0.00    -0.239 NA
HETATM   15  C18 UNL     1      22.301   5.449  51.666  1.00  0.00     0.236 A 
HETATM   16  N3  UNL     1      23.560   5.049  51.842  1.00  0.00    -0.224 NA
BRANCH  13  17
HETATM   17  C11 UNL     1      20.302   2.455  51.758  1.00  0.00     0.119 C 
HETATM   18  C12 UNL     1      19.195   3.000  51.185  1.00  0.00     0.173 C 
HETATM   19  O1  UNL     1      17.878   2.429  50.998  1.00  0.00    -0.358 OA
HETATM   20  C13 UNL     1      17.874   1.177  51.548  1.00  0.00     0.200 C 
HETATM   21  C14 UNL     1      16.869   0.209  51.866  1.00  0.00     0.194 C 
HETATM   22  O2  UNL     1      17.481  -0.867  52.376  1.00  0.00    -0.389 OA
HETATM   23  C15 UNL     1      18.322  -1.152  53.316  1.00  0.00     0.169 C 
HETATM   24  C16 UNL     1      19.766  -0.869  53.411  1.00  0.00     0.053 C 
HETATM   25  C17 UNL     1      20.369   0.495  53.389  1.00  0.00     0.178 C 
HETATM   26  O3  UNL     1      20.232   1.215  52.236  1.00  0.00    -0.347 OA
ENDBRANCH  13  17
ENDBRANCH   9  11
ENDBRANCH   7   9
TORSDOF 3
ENDMDL
