MODEL 1
REMARK VINA RESULT:      -8.4      0.000      0.000
REMARK  2 active torsions:
REMARK  status: ('A' for Active; 'I' for Inactive)
REMARK    1  A    between atoms: C3_3  and  C4_5 
REMARK    2  A    between atoms: C7_8  and  N1_9 
ROOT
HETATM    1  C4  UNL     1      23.249   2.593  51.306  1.00  0.00     0.191 A 
HETATM    2  C5  UNL     1      22.677   2.171  49.976  1.00  0.00     0.062 C 
HETATM    3  C6  UNL     1      24.621   3.113  51.062  1.00  0.00     0.157 A 
HETATM    4  C7  UNL     1      25.811   2.432  51.685  1.00  0.00     0.127 A 
HETATM    5  C8  UNL     1      26.028   1.182  52.591  1.00  0.00     0.116 A 
HETATM    6  S1  UNL     1      24.343   1.410  52.230  1.00  0.00    -0.020 SA
HETATM    7  C9  UNL     1      23.653   0.117  53.055  1.00  0.00     0.343 A 
HETATM    8  N2  UNL     1      24.668  -0.358  53.507  1.00  0.00    -0.237 NA
HETATM    9  C10 UNL     1      25.923   0.052  53.370  1.00  0.00     0.066 A 
HETATM   10  C11 UNL     1      27.352  -0.001  53.522  1.00  0.00    -0.010 A 
HETATM   11  C12 UNL     1      27.787  -1.256  53.026  1.00  0.00     0.013 A 
HETATM   12  C13 UNL     1      29.095  -1.709  53.071  1.00  0.00     0.001 A 
HETATM   13  C14 UNL     1      29.968  -0.818  53.652  1.00  0.00     0.000 A 
HETATM   14  C15 UNL     1      29.626   0.413  54.153  1.00  0.00     0.001 A 
HETATM   15  C16 UNL     1      28.307   0.790  54.072  1.00  0.00     0.013 A 
HETATM   16  N3  UNL     1      23.056   1.345  52.130  1.00  0.00     0.020 N 
HETATM   17  H16 UNL     1      22.117   0.766  52.392  1.00  0.00     0.298 HD
ENDROOT
BRANCH   4  18
HETATM   18  N1  UNL     1      27.141   2.392  51.870  1.00  0.00    -0.317 NA
HETATM   19  H10 UNL     1      27.483   2.342  52.832  1.00  0.00     0.181 HD
ENDBRANCH   4  18
BRANCH   1  20
HETATM   20  C3  UNL     1      22.359   3.577  51.937  1.00  0.00     0.051 C 
HETATM   21  C2  UNL     1      21.084   3.282  52.191  1.00  0.00    -0.008 C 
HETATM   22  C1  UNL     1      19.848   2.470  52.248  1.00  0.00     0.037 C 
HETATM   23 CL1  UNL     1      23.463   4.961  52.128  1.00  0.00    -0.086 Cl
ENDBRANCH   1  20
TORSDOF 2
ENDMDL
MODEL 2
REMARK VINA RESULT:      -7.8      1.862      3.166
REMARK  2 active torsions:
REMARK  status: ('A' for Active; 'I' for Inactive)
REMARK    1  A    between atoms: C3_3  and  C4_5 
REMARK    2  A    between atoms: C7_8  and  N1_9 
ROOT
HETATM    1  C4  UNL     1      22.786   2.820  50.642  1.00  0.00     0.191 A 
HETATM    2  C5  UNL     1      22.090   4.025  51.222  1.00  0.00     0.062 C 
HETATM    3  C6  UNL     1      22.779   1.753  51.679  1.00  0.00     0.157 A 
HETATM    4  C7  UNL     1      24.076   1.223  52.229  1.00  0.00     0.127 A 
HETATM    5  C8  UNL     1      25.588   1.536  52.009  1.00  0.00     0.116 A 
HETATM    6  S1  UNL     1      24.586   2.553  51.018  1.00  0.00    -0.020 SA
HETATM    7  C9  UNL     1      25.744   3.475  50.219  1.00  0.00     0.343 A 
HETATM    8  N2  UNL     1      26.728   2.987  50.722  1.00  0.00    -0.237 NA
HETATM    9  C10 UNL     1      26.818   2.018  51.625  1.00  0.00     0.066 A 
HETATM   10  C11 UNL     1      27.477   1.128  52.543  1.00  0.00    -0.010 A 
HETATM   11  C12 UNL     1      28.244   1.924  53.431  1.00  0.00     0.013 A 
HETATM   12  C13 UNL     1      29.080   1.422  54.414  1.00  0.00     0.001 A 
HETATM   13  C14 UNL     1      29.109   0.048  54.466  1.00  0.00     0.000 A 
HETATM   14  C15 UNL     1      28.397  -0.790  53.645  1.00  0.00     0.001 A 
HETATM   15  C16 UNL     1      27.589  -0.216  52.693  1.00  0.00     0.013 A 
HETATM   16  N3  UNL     1      24.096   3.413  50.187  1.00  0.00     0.020 N 
HETATM   17  H16 UNL     1      24.317   4.252  49.456  1.00  0.00     0.298 HD
ENDROOT
BRANCH   4  18
HETATM   18  N1  UNL     1      24.708   0.371  53.053  1.00  0.00    -0.317 NA
HETATM   19  H10 UNL     1      25.014  -0.523  52.664  1.00  0.00     0.181 HD
ENDBRANCH   4  18
BRANCH   1  20
HETATM   20  C3  UNL     1      22.124   2.420  49.393  1.00  0.00     0.051 C 
HETATM   21  C2  UNL     1      22.085   3.244  48.345  1.00  0.00    -0.008 C 
HETATM   22  C1  UNL     1      22.334   4.469  47.552  1.00  0.00     0.037 C 
HETATM   23 CL1  UNL     1      21.544   0.792  49.821  1.00  0.00    -0.086 Cl
ENDBRANCH   1  20
TORSDOF 2
ENDMDL
MODEL 3
REMARK VINA RESULT:      -7.7      1.556      2.803
REMARK  2 active torsions:
REMARK  status: ('A' for Active; 'I' for Inactive)
REMARK    1  A    between atoms: C3_3  and  C4_5 
REMARK    2  A    between atoms: C7_8  and  N1_9 
ROOT
HETATM    1  C4  UNL     1      22.869   3.540  51.183  1.00  0.00     0.191 A 
HETATM    2  C5  UNL     1      22.449   4.805  51.889  1.00  0.00     0.062 C 
HETATM    3  C6  UNL     1      22.802   2.429  52.170  1.00  0.00     0.157 A 
HETATM    4  C7  UNL     1      24.047   1.669  52.541  1.00  0.00     0.127 A 
HETATM    5  C8  UNL     1      25.556   1.751  52.155  1.00  0.00     0.116 A 
HETATM    6  S1  UNL     1      24.630   2.970  51.331  1.00  0.00    -0.020 SA
HETATM    7  C9  UNL     1      25.828   3.742  50.438  1.00  0.00     0.343 A 
HETATM    8  N2  UNL     1      26.768   3.075  50.800  1.00  0.00    -0.237 NA
HETATM    9  C10 UNL     1      26.798   2.053  51.646  1.00  0.00     0.066 A 
HETATM   10  C11 UNL     1      27.399   1.018  52.444  1.00  0.00    -0.010 A 
HETATM   11  C12 UNL     1      28.381   1.628  53.265  1.00  0.00     0.013 A 
HETATM   12  C13 UNL     1      29.227   0.944  54.121  1.00  0.00     0.001 A 
HETATM   13  C14 UNL     1      29.035  -0.419  54.114  1.00  0.00     0.000 A 
HETATM   14  C15 UNL     1      28.108  -1.084  53.351  1.00  0.00     0.001 A 
HETATM   15  C16 UNL     1      27.305  -0.333  52.526  1.00  0.00     0.013 A 
HETATM   16  N3  UNL     1      24.199   3.944  50.599  1.00  0.00     0.020 N 
HETATM   17  H16 UNL     1      24.473   4.778  49.882  1.00  0.00     0.298 HD
ENDROOT
BRANCH   4  18
HETATM   18  N1  UNL     1      24.617   0.681  53.249  1.00  0.00    -0.317 NA
HETATM   19  H10 UNL     1      24.767   0.840  54.248  1.00  0.00     0.181 HD
ENDBRANCH   4  18
BRANCH   1  20
HETATM   20  C3  UNL     1      22.015   3.325  50.007  1.00  0.00     0.051 C 
HETATM   21  C2  UNL     1      21.501   2.122  49.746  1.00  0.00    -0.008 C 
HETATM   22  C1  UNL     1      21.211   0.684  49.934  1.00  0.00     0.037 C 
HETATM   23 CL1  UNL     1      22.010   4.954  49.287  1.00  0.00    -0.086 Cl
ENDBRANCH   1  20
TORSDOF 2
ENDMDL
MODEL 4
REMARK VINA RESULT:      -7.5      2.445      3.090
REMARK  2 active torsions:
REMARK  status: ('A' for Active; 'I' for Inactive)
REMARK    1  A    between atoms: C3_3  and  C4_5 
REMARK    2  A    between atoms: C7_8  and  N1_9 
ROOT
HETATM    1  C4  UNL     1      24.011   5.462  49.895  1.00  0.00     0.191 A 
HETATM    2  C5  UNL     1      23.237   5.222  48.623  1.00  0.00     0.062 C 
HETATM    3  C6  UNL     1      25.424   5.068  49.645  1.00  0.00     0.157 A 
HETATM    4  C7  UNL     1      26.050   3.951  50.435  1.00  0.00     0.127 A 
HETATM    5  C8  UNL     1      25.568   2.968  51.545  1.00  0.00     0.116 A 
HETATM    6  S1  UNL     1      24.290   4.042  51.060  1.00  0.00    -0.020 SA
HETATM    7  C9  UNL     1      23.032   3.521  52.047  1.00  0.00     0.343 A 
HETATM    8  N2  UNL     1      23.623   2.641  52.626  1.00  0.00    -0.237 NA
HETATM    9  C10 UNL     1      24.882   2.243  52.492  1.00  0.00     0.066 A 
HETATM   10  C11 UNL     1      26.037   1.420  52.729  1.00  0.00    -0.010 A 
HETATM   11  C12 UNL     1      25.664   0.076  52.471  1.00  0.00     0.013 A 
HETATM   12  C13 UNL     1      26.489  -1.020  52.661  1.00  0.00     0.001 A 
HETATM   13  C14 UNL     1      27.739  -0.694  53.134  1.00  0.00     0.000 A 
HETATM   14  C15 UNL     1      28.176   0.578  53.407  1.00  0.00     0.001 A 
HETATM   15  C16 UNL     1      27.298   1.613  53.192  1.00  0.00     0.013 A 
HETATM   16  N3  UNL     1      23.188   4.698  50.902  1.00  0.00     0.020 N 
HETATM   17  H16 UNL     1      22.100   4.802  51.204  1.00  0.00     0.298 HD
ENDROOT
BRANCH   4  18
HETATM   18  N1  UNL     1      27.133   3.200  50.697  1.00  0.00    -0.317 NA
HETATM   19  H10 UNL     1      28.020   3.685  50.845  1.00  0.00     0.181 HD
ENDBRANCH   4  18
BRANCH   1  20
HETATM   20  C3  UNL     1      23.863   6.865  50.306  1.00  0.00     0.051 C 
HETATM   21  C2  UNL     1      22.656   7.400  50.491  1.00  0.00    -0.008 C 
HETATM   22  C1  UNL     1      21.179   7.465  50.555  1.00  0.00     0.037 C 
HETATM   23 CL1  UNL     1      25.567   7.375  50.396  1.00  0.00    -0.086 Cl
ENDBRANCH   1  20
TORSDOF 2
ENDMDL
MODEL 5
REMARK VINA RESULT:      -7.2      3.288      4.956
REMARK  2 active torsions:
REMARK  status: ('A' for Active; 'I' for Inactive)
REMARK    1  A    between atoms: C3_3  and  C4_5 
REMARK    2  A    between atoms: C7_8  and  N1_9 
ROOT
HETATM    1  C4  UNL     1      21.452   1.572  51.326  1.00  0.00     0.191 A 
HETATM    2  C5  UNL     1      21.228   0.230  50.676  1.00  0.00     0.062 C 
HETATM    3  C6  UNL     1      21.308   2.613  50.274  1.00  0.00     0.157 A 
HETATM    4  C7  UNL     1      22.472   3.500  49.922  1.00  0.00     0.127 A 
HETATM    5  C8  UNL     1      23.955   3.626  50.387  1.00  0.00     0.116 A 
HETATM    6  S1  UNL     1      23.138   2.346  51.234  1.00  0.00    -0.020 SA
HETATM    7  C9  UNL     1      24.367   1.776  52.230  1.00  0.00     0.343 A 
HETATM    8  N2  UNL     1      25.239   2.534  51.877  1.00  0.00    -0.237 NA
HETATM    9  C10 UNL     1      25.194   3.506  50.975  1.00  0.00     0.066 A 
HETATM   10  C11 UNL     1      25.710   4.564  50.149  1.00  0.00    -0.010 A 
HETATM   11  C12 UNL     1      26.804   4.037  49.416  1.00  0.00     0.013 A 
HETATM   12  C13 UNL     1      27.609   4.775  48.565  1.00  0.00     0.001 A 
HETATM   13  C14 UNL     1      27.254   6.102  48.481  1.00  0.00     0.000 A 
HETATM   14  C15 UNL     1      26.212   6.687  49.156  1.00  0.00     0.001 A 
HETATM   15  C16 UNL     1      25.459   5.887  49.983  1.00  0.00     0.013 A 
HETATM   16  N3  UNL     1      22.786   1.366  51.999  1.00  0.00     0.020 N 
HETATM   17  H16 UNL     1      23.116   0.611  52.778  1.00  0.00     0.298 HD
ENDROOT
BRANCH   4  18
HETATM   18  N1  UNL     1      22.959   4.513  49.186  1.00  0.00    -0.317 NA
HETATM   19  H10 UNL     1      22.543   4.671  48.266  1.00  0.00     0.181 HD
ENDBRANCH   4  18
BRANCH   1  20
HETATM   20  C3  UNL     1      20.513   1.742  52.444  1.00  0.00     0.051 C 
HETATM   21  C2  UNL     1      20.568   0.944  53.511  1.00  0.00    -0.008 C 
HETATM   22  C1  UNL     1      21.056  -0.144  54.388  1.00  0.00     0.037 C 
HETATM   23 CL1  UNL     1      19.533   3.109  51.859  1.00  0.00    -0.086 Cl
ENDBRANCH   1  20
TORSDOF 2
ENDMDL
MODEL 6
REMARK VINA RESULT:      -7.2      3.046      4.799
REMARK  2 active torsions:
REMARK  status: ('A' for Active; 'I' for Inactive)
REMARK    1  A    between atoms: C3_3  and  C4_5 
REMARK    2  A    between atoms: C7_8  and  N1_9 
ROOT
HETATM    1  C4  UNL     1      24.882   5.891  49.390  1.00  0.00     0.191 A 
HETATM    2  C5  UNL     1      23.973   5.916  48.188  1.00  0.00     0.062 C 
HETATM    3  C6  UNL     1      25.790   4.721  49.245  1.00  0.00     0.157 A 
HETATM    4  C7  UNL     1      25.762   3.610  50.260  1.00  0.00     0.127 A 
HETATM    5  C8  UNL     1      24.936   3.299  51.546  1.00  0.00     0.116 A 
HETATM    6  S1  UNL     1      24.441   4.804  50.830  1.00  0.00    -0.020 SA
HETATM    7  C9  UNL     1      23.227   5.286  51.890  1.00  0.00     0.343 A 
HETATM    8  N2  UNL     1      23.279   4.347  52.648  1.00  0.00    -0.237 NA
HETATM    9  C10 UNL     1      24.071   3.282  52.616  1.00  0.00     0.066 A 
HETATM   10  C11 UNL     1      24.580   2.004  53.034  1.00  0.00    -0.010 A 
HETATM   11  C12 UNL     1      23.489   1.099  53.059  1.00  0.00     0.013 A 
HETATM   12  C13 UNL     1      23.569  -0.217  53.485  1.00  0.00     0.001 A 
HETATM   13  C14 UNL     1      24.828  -0.590  53.894  1.00  0.00     0.000 A 
HETATM   14  C15 UNL     1      25.932   0.225  53.899  1.00  0.00     0.001 A 
HETATM   15  C16 UNL     1      25.772   1.518  53.462  1.00  0.00     0.013 A 
HETATM   16  N3  UNL     1      23.890   5.932  50.525  1.00  0.00     0.020 N 
HETATM   17  H16 UNL     1      23.091   6.694  50.785  1.00  0.00     0.298 HD
ENDROOT
BRANCH   4  18
HETATM   18  N1  UNL     1      26.254   2.435  50.686  1.00  0.00    -0.317 NA
HETATM   19  H10 UNL     1      27.270   2.340  50.740  1.00  0.00     0.181 HD
ENDBRANCH   4  18
BRANCH   1  20
HETATM   20  C3  UNL     1      25.597   7.171  49.496  1.00  0.00     0.051 C 
HETATM   21  C2  UNL     1      26.834   7.305  49.017  1.00  0.00    -0.008 C 
HETATM   22  C1  UNL     1      28.097   6.918  48.350  1.00  0.00     0.037 C 
HETATM   23 CL1  UNL     1      24.387   8.167  50.341  1.00  0.00    -0.086 Cl
ENDBRANCH   1  20
TORSDOF 2
ENDMDL
MODEL 7
REMARK VINA RESULT:      -6.8      5.051      7.007
REMARK  2 active torsions:
REMARK  status: ('A' for Active; 'I' for Inactive)
REMARK    1  A    between atoms: C3_3  and  C4_5 
REMARK    2  A    between atoms: C7_8  and  N1_9 
ROOT
HETATM    1  C4  UNL     1      27.245   8.442  48.843  1.00  0.00     0.191 A 
HETATM    2  C5  UNL     1      28.290   9.180  49.641  1.00  0.00     0.062 C 
HETATM    3  C6  UNL     1      26.058   8.253  49.718  1.00  0.00     0.157 A 
HETATM    4  C7  UNL     1      25.594   6.867  50.076  1.00  0.00     0.127 A 
HETATM    5  C8  UNL     1      26.082   5.417  49.771  1.00  0.00     0.116 A 
HETATM    6  S1  UNL     1      27.113   6.598  49.020  1.00  0.00    -0.020 SA
HETATM    7  C9  UNL     1      28.242   5.610  48.260  1.00  0.00     0.343 A 
HETATM    8  N2  UNL     1      27.793   4.542  48.603  1.00  0.00    -0.237 NA
HETATM    9  C10 UNL     1      26.729   4.278  49.352  1.00  0.00     0.066 A 
HETATM   10  C11 UNL     1      25.799   3.457  50.078  1.00  0.00    -0.010 A 
HETATM   11  C12 UNL     1      26.546   2.677  50.997  1.00  0.00     0.013 A 
HETATM   12  C13 UNL     1      26.007   1.707  51.825  1.00  0.00     0.001 A 
HETATM   13  C14 UNL     1      24.647   1.553  51.684  1.00  0.00     0.000 A 
HETATM   14  C15 UNL     1      23.855   2.268  50.820  1.00  0.00     0.001 A 
HETATM   15  C16 UNL     1      24.465   3.213  50.030  1.00  0.00     0.013 A 
HETATM   16  N3  UNL     1      28.020   7.241  48.362  1.00  0.00     0.020 N 
HETATM   17  H16 UNL     1      28.964   7.168  47.738  1.00  0.00     0.298 HD
ENDROOT
BRANCH   4  18
HETATM   18  N1  UNL     1      24.709   6.084  50.717  1.00  0.00    -0.317 NA
HETATM   19  H10 UNL     1      23.752   6.431  50.808  1.00  0.00     0.181 HD
ENDBRANCH   4  18
BRANCH   1  20
HETATM   20  C3  UNL     1      26.947   9.188  47.612  1.00  0.00     0.051 C 
HETATM   21  C2  UNL     1      25.929   8.833  46.827  1.00  0.00    -0.008 C 
HETATM   22  C1  UNL     1      24.754   8.059  46.370  1.00  0.00     0.037 C 
HETATM   23 CL1  UNL     1      28.230  10.422  47.642  1.00  0.00    -0.086 Cl
ENDBRANCH   1  20
TORSDOF 2
ENDMDL
MODEL 8
REMARK VINA RESULT:      -6.8      6.305      8.836
REMARK  2 active torsions:
REMARK  status: ('A' for Active; 'I' for Inactive)
REMARK    1  A    between atoms: C3_3  and  C4_5 
REMARK    2  A    between atoms: C7_8  and  N1_9 
ROOT
HETATM    1  C4  UNL     1      29.701   8.020  48.045  1.00  0.00     0.191 A 
HETATM    2  C5  UNL     1      29.886   8.566  46.651  1.00  0.00     0.062 C 
HETATM    3  C6  UNL     1      29.712   6.535  47.953  1.00  0.00     0.157 A 
HETATM    4  C7  UNL     1      28.498   5.743  48.359  1.00  0.00     0.127 A 
HETATM    5  C8  UNL     1      27.069   6.086  48.880  1.00  0.00     0.116 A 
HETATM    6  S1  UNL     1      27.998   7.528  48.600  1.00  0.00    -0.020 SA
HETATM    7  C9  UNL     1      26.892   8.719  49.033  1.00  0.00     0.343 A 
HETATM    8  N2  UNL     1      25.972   7.997  49.333  1.00  0.00    -0.237 NA
HETATM    9  C10 UNL     1      25.901   6.672  49.313  1.00  0.00     0.066 A 
HETATM   10  C11 UNL     1      25.278   5.382  49.442  1.00  0.00    -0.010 A 
HETATM   11  C12 UNL     1      24.127   5.381  48.615  1.00  0.00     0.013 A 
HETATM   12  C13 UNL     1      23.221   4.336  48.529  1.00  0.00     0.001 A 
HETATM   13  C14 UNL     1      23.535   3.265  49.333  1.00  0.00     0.000 A 
HETATM   14  C15 UNL     1      24.629   3.190  50.159  1.00  0.00     0.001 A 
HETATM   15  C16 UNL     1      25.481   4.267  50.189  1.00  0.00     0.013 A 
HETATM   16  N3  UNL     1      28.449   8.734  48.489  1.00  0.00     0.020 N 
HETATM   17  H16 UNL     1      28.219   9.841  48.581  1.00  0.00     0.298 HD
ENDROOT
BRANCH   4  18
HETATM   18  N1  UNL     1      27.915   4.544  48.523  1.00  0.00    -0.317 NA
HETATM   19  H10 UNL     1      28.318   3.750  48.020  1.00  0.00     0.181 HD
ENDBRANCH   4  18
BRANCH   1  20
HETATM   20  C3  UNL     1      30.748   8.555  48.927  1.00  0.00     0.051 C 
HETATM   21  C2  UNL     1      30.854   9.866  49.145  1.00  0.00    -0.008 C 
HETATM   22  C1  UNL     1      30.526  11.306  49.043  1.00  0.00     0.037 C 
HETATM   23 CL1  UNL     1      31.581   7.058  49.413  1.00  0.00    -0.086 Cl
ENDBRANCH   1  20
TORSDOF 2
ENDMDL
MODEL 9
REMARK VINA RESULT:      -6.8      7.374      9.635
REMARK  2 active torsions:
REMARK  status: ('A' for Active; 'I' for Inactive)
REMARK    1  A    between atoms: C3_3  and  C4_5 
REMARK    2  A    between atoms: C7_8  and  N1_9 
ROOT
HETATM    1  C4  UNL     1      29.647  10.167  48.892  1.00  0.00     0.191 A 
HETATM    2  C5  UNL     1      30.928  10.227  49.686  1.00  0.00     0.062 C 
HETATM    3  C6  UNL     1      28.527   9.992  49.856  1.00  0.00     0.157 A 
HETATM    4  C7  UNL     1      27.665   8.759  49.799  1.00  0.00     0.127 A 
HETATM    5  C8  UNL     1      27.635   7.461  48.934  1.00  0.00     0.116 A 
HETATM    6  S1  UNL     1      28.938   8.507  48.453  1.00  0.00    -0.020 SA
HETATM    7  C9  UNL     1      29.629   7.615  47.206  1.00  0.00     0.343 A 
HETATM    8  N2  UNL     1      28.884   6.665  47.242  1.00  0.00    -0.237 NA
HETATM    9  C10 UNL     1      27.848   6.438  48.040  1.00  0.00     0.066 A 
HETATM   10  C11 UNL     1      26.755   5.692  48.602  1.00  0.00    -0.010 A 
HETATM   11  C12 UNL     1      27.272   4.448  49.045  1.00  0.00     0.013 A 
HETATM   12  C13 UNL     1      26.508   3.424  49.578  1.00  0.00     0.001 A 
HETATM   13  C14 UNL     1      25.165   3.715  49.648  1.00  0.00     0.000 A 
HETATM   14  C15 UNL     1      24.588   4.892  49.242  1.00  0.00     0.001 A 
HETATM   15  C16 UNL     1      25.414   5.861  48.723  1.00  0.00     0.013 A 
HETATM   16  N3  UNL     1      29.956   9.077  47.896  1.00  0.00     0.020 N 
HETATM   17  H16 UNL     1      30.779   8.991  47.121  1.00  0.00     0.298 HD
ENDROOT
BRANCH   4  18
HETATM   18  N1  UNL     1      26.622   8.067  50.287  1.00  0.00    -0.317 NA
HETATM   19  H10 UNL     1      26.610   7.057  50.130  1.00  0.00     0.181 HD
ENDBRANCH   4  18
BRANCH   1  20
HETATM   20  C3  UNL     1      29.520  11.376  48.067  1.00  0.00     0.051 C 
HETATM   21  C2  UNL     1      30.470  11.711  47.194  1.00  0.00    -0.008 C 
HETATM   22  C1  UNL     1      31.735  11.603  46.432  1.00  0.00     0.037 C 
HETATM   23 CL1  UNL     1      27.958  12.014  48.637  1.00  0.00    -0.086 Cl
ENDBRANCH   1  20
TORSDOF 2
ENDMDL
