MODEL 1
REMARK VINA RESULT:      -9.3      0.000      0.000
REMARK  4 active torsions:
REMARK  status: ('A' for Active; 'I' for Inactive)
REMARK    1  A    between atoms: N4_19  and  C15_20 
REMARK    2  A    between atoms: C15_20  and  C16_21 
REMARK    3  A    between atoms: C16_21  and  C17_22 
REMARK    4  A    between atoms: C17_22  and  N5_23 
ROOT
HETATM    1  C1  UNL     1      27.030  -1.710  52.335  1.00  0.00     0.327 C 
HETATM    2  C2  UNL     1      26.836  -0.417  52.120  1.00  0.00     0.070 A 
HETATM    3  F1  UNL     1      26.091  -1.403  51.521  1.00  0.00    -0.456 F 
HETATM    4  C3  UNL     1      27.330   0.926  52.476  1.00  0.00     0.018 A 
HETATM    5  C4  UNL     1      27.442   2.238  52.485  1.00  0.00     0.014 A 
HETATM    6  C5  UNL     1      28.335   1.672  53.386  1.00  0.00     0.044 A 
HETATM    7  C6  UNL     1      29.247   1.688  54.255  1.00  0.00     0.088 C 
HETATM    8  N1  UNL     1      29.250   0.280  54.397  1.00  0.00    -0.292 N 
HETATM    9  N2  UNL     1      28.231  -0.076  55.326  1.00  0.00    -0.169 NA
HETATM   10  C7  UNL     1      26.997  -0.159  55.095  1.00  0.00     0.250 C 
HETATM   11  N3  UNL     1      25.751  -0.178  54.601  1.00  0.00    -0.261 NA
HETATM   12  C8  UNL     1      25.029   0.073  53.599  1.00  0.00     0.110 A 
HETATM   13  C9  UNL     1      23.963  -0.406  54.448  1.00  0.00     0.051 A 
HETATM   14  C10 UNL     1      22.578  -0.460  54.138  1.00  0.00     0.095 A 
HETATM   15  C11 UNL     1      22.302   0.015  52.876  1.00  0.00     0.070 A 
HETATM   16  C12 UNL     1      23.303   0.463  52.078  1.00  0.00     0.039 A 
HETATM   17  C13 UNL     1      24.619   0.569  52.233  1.00  0.00    -0.033 A 
HETATM   18  C14 UNL     1      25.846   0.928  52.271  1.00  0.00     0.091 A 
HETATM   19  N4  UNL     1      21.075   0.163  52.202  1.00  0.00    -0.314 N 
HETATM   20  C23 UNL     1      19.939  -0.246  52.973  1.00  0.00     0.248 C 
HETATM   21  O1  UNL     1      18.873  -0.642  52.436  1.00  0.00    -0.271 OA
HETATM   22  C24 UNL     1      20.163  -0.148  54.465  1.00  0.00     0.279 C 
HETATM   23  O2  UNL     1      21.393  -0.844  54.716  1.00  0.00    -0.340 OA
HETATM   24  H6  UNL     1      29.443  -0.731  54.339  1.00  0.00     0.188 HD
ENDROOT
BRANCH  19  25
HETATM   25  C15 UNL     1      20.866   0.653  50.854  1.00  0.00     0.134 C 
BRANCH  25  26
HETATM   26  C16 UNL     1      20.236   2.036  50.880  1.00  0.00     0.050 C 
BRANCH  26  27
HETATM   27  C17 UNL     1      21.006   3.000  51.746  1.00  0.00     0.274 C 
BRANCH  27  28
HETATM   28  N5  UNL     1      21.510   4.142  51.017  1.00  0.00     0.088 N 
HETATM   29  C18 UNL     1      22.076   3.833  49.734  1.00  0.00     0.272 C 
HETATM   30  C19 UNL     1      23.472   3.262  49.845  1.00  0.00     0.030 C 
HETATM   31  C20 UNL     1      24.363   4.110  50.713  1.00  0.00     0.003 C 
HETATM   32  C21 UNL     1      23.690   4.278  52.055  1.00  0.00     0.030 C 
HETATM   33  C22 UNL     1      22.371   4.973  51.822  1.00  0.00     0.272 C 
ENDBRANCH  27  28
ENDBRANCH  26  27
ENDBRANCH  25  26
ENDBRANCH  19  25
TORSDOF 4
ENDMDL
MODEL 2
REMARK VINA RESULT:      -9.0      2.214      3.199
REMARK  4 active torsions:
REMARK  status: ('A' for Active; 'I' for Inactive)
REMARK    1  A    between atoms: N4_19  and  C15_20 
REMARK    2  A    between atoms: C15_20  and  C16_21 
REMARK    3  A    between atoms: C16_21  and  C17_22 
REMARK    4  A    between atoms: C17_22  and  N5_23 
ROOT
HETATM    1  C1  UNL     1      25.382  -0.439  55.703  1.00  0.00     0.327 C 
HETATM    2  C2  UNL     1      25.467  -0.785  54.427  1.00  0.00     0.070 A 
HETATM    3  F1  UNL     1      24.275  -0.628  55.089  1.00  0.00    -0.456 F 
HETATM    4  C3  UNL     1      26.426  -1.072  53.344  1.00  0.00     0.018 A 
HETATM    5  C4  UNL     1      26.881  -1.415  52.156  1.00  0.00     0.014 A 
HETATM    6  C5  UNL     1      27.933  -1.075  52.996  1.00  0.00     0.044 A 
HETATM    7  C6  UNL     1      29.144  -0.897  53.299  1.00  0.00     0.088 C 
HETATM    8  N1  UNL     1      28.839  -0.478  54.615  1.00  0.00    -0.292 N 
HETATM    9  N2  UNL     1      28.539   0.913  54.581  1.00  0.00    -0.169 NA
HETATM   10  C7  UNL     1      27.455   1.441  54.223  1.00  0.00     0.250 C 
HETATM   11  N3  UNL     1      26.220   1.752  53.802  1.00  0.00    -0.261 NA
HETATM   12  C8  UNL     1      25.146   1.303  53.319  1.00  0.00     0.110 A 
HETATM   13  C9  UNL     1      24.728   2.685  53.383  1.00  0.00     0.051 A 
HETATM   14  C10 UNL     1      23.491   3.228  52.946  1.00  0.00     0.095 A 
HETATM   15  C11 UNL     1      22.656   2.272  52.411  1.00  0.00     0.070 A 
HETATM   16  C12 UNL     1      23.047   0.976  52.352  1.00  0.00     0.039 A 
HETATM   17  C13 UNL     1      24.154   0.337  52.719  1.00  0.00    -0.033 A 
HETATM   18  C14 UNL     1      25.194  -0.402  52.817  1.00  0.00     0.091 A 
HETATM   19  N4  UNL     1      21.374   2.392  51.843  1.00  0.00    -0.314 N 
HETATM   20  C23 UNL     1      20.875   3.736  51.818  1.00  0.00     0.248 C 
HETATM   21  O1  UNL     1      19.645   3.994  51.814  1.00  0.00    -0.271 OA
HETATM   22  C24 UNL     1      21.971   4.779  51.795  1.00  0.00     0.279 C 
HETATM   23  O2  UNL     1      22.847   4.440  52.881  1.00  0.00    -0.340 OA
HETATM   24  H6  UNL     1      28.666  -0.412  55.630  1.00  0.00     0.188 HD
ENDROOT
BRANCH  19  25
HETATM   25  C15 UNL     1      20.541   1.328  51.320  1.00  0.00     0.134 C 
BRANCH  25  26
HETATM   26  C16 UNL     1      20.878   1.054  49.863  1.00  0.00     0.050 C 
BRANCH  26  27
HETATM   27  C17 UNL     1      20.249   2.057  48.931  1.00  0.00     0.274 C 
BRANCH  27  28
HETATM   28  N5  UNL     1      21.054   2.331  47.762  1.00  0.00     0.088 N 
HETATM   29  C18 UNL     1      22.459   2.088  47.930  1.00  0.00     0.272 C 
HETATM   30  C19 UNL     1      23.147   3.201  48.689  1.00  0.00     0.030 C 
HETATM   31  C20 UNL     1      22.829   4.557  48.117  1.00  0.00     0.003 C 
HETATM   32  C21 UNL     1      21.326   4.712  48.081  1.00  0.00     0.030 C 
HETATM   33  C22 UNL     1      20.774   3.625  47.191  1.00  0.00     0.272 C 
ENDBRANCH  27  28
ENDBRANCH  26  27
ENDBRANCH  25  26
ENDBRANCH  19  25
TORSDOF 4
ENDMDL
MODEL 3
REMARK VINA RESULT:      -8.9      2.141      4.048
REMARK  4 active torsions:
REMARK  status: ('A' for Active; 'I' for Inactive)
REMARK    1  A    between atoms: N4_19  and  C15_20 
REMARK    2  A    between atoms: C15_20  and  C16_21 
REMARK    3  A    between atoms: C16_21  and  C17_22 
REMARK    4  A    between atoms: C17_22  and  N5_23 
ROOT
HETATM    1  C1  UNL     1      25.299  -0.511  55.410  1.00  0.00     0.327 C 
HETATM    2  C2  UNL     1      25.572  -0.713  54.129  1.00  0.00     0.070 A 
HETATM    3  F1  UNL     1      24.296  -0.586  54.619  1.00  0.00    -0.456 F 
HETATM    4  C3  UNL     1      26.680  -0.913  53.176  1.00  0.00     0.018 A 
HETATM    5  C4  UNL     1      27.304  -1.136  52.039  1.00  0.00     0.014 A 
HETATM    6  C5  UNL     1      28.222  -0.934  53.061  1.00  0.00     0.044 A 
HETATM    7  C6  UNL     1      29.375  -0.838  53.561  1.00  0.00     0.088 C 
HETATM    8  N1  UNL     1      28.881  -0.559  54.856  1.00  0.00    -0.292 N 
HETATM    9  N2  UNL     1      28.618   0.838  54.941  1.00  0.00    -0.169 NA
HETATM   10  C7  UNL     1      27.613   1.444  54.489  1.00  0.00     0.250 C 
HETATM   11  N3  UNL     1      26.464   1.847  53.927  1.00  0.00    -0.261 NA
HETATM   12  C8  UNL     1      25.468   1.498  53.238  1.00  0.00     0.110 A 
HETATM   13  C9  UNL     1      25.074   2.878  53.402  1.00  0.00     0.051 A 
HETATM   14  C10 UNL     1      23.930   3.514  52.850  1.00  0.00     0.095 A 
HETATM   15  C11 UNL     1      23.168   2.658  52.088  1.00  0.00     0.070 A 
HETATM   16  C12 UNL     1      23.537   1.362  51.936  1.00  0.00     0.039 A 
HETATM   17  C13 UNL     1      24.560   0.644  52.388  1.00  0.00    -0.033 A 
HETATM   18  C14 UNL     1      25.557  -0.141  52.553  1.00  0.00     0.091 A 
HETATM   19  N4  UNL     1      21.991   2.890  51.351  1.00  0.00    -0.314 N 
HETATM   20  C23 UNL     1      21.530   4.246  51.410  1.00  0.00     0.248 C 
HETATM   21  O1  UNL     1      20.320   4.550  51.251  1.00  0.00    -0.271 OA
HETATM   22  C24 UNL     1      22.637   5.242  51.674  1.00  0.00     0.279 C 
HETATM   23  O2  UNL     1      23.329   4.749  52.832  1.00  0.00    -0.340 OA
HETATM   24  H6  UNL     1      28.556  -0.601  55.834  1.00  0.00     0.188 HD
ENDROOT
BRANCH  19  25
HETATM   25  C15 UNL     1      21.226   1.924  50.588  1.00  0.00     0.134 C 
BRANCH  25  26
HETATM   26  C16 UNL     1      19.950   1.551  51.325  1.00  0.00     0.050 C 
BRANCH  26  27
HETATM   27  C17 UNL     1      19.943   0.109  51.763  1.00  0.00     0.274 C 
BRANCH  27  28
HETATM   28  N5  UNL     1      19.461  -0.073  53.113  1.00  0.00     0.088 N 
HETATM   29  C18 UNL     1      20.057   0.799  54.086  1.00  0.00     0.272 C 
HETATM   30  C19 UNL     1      21.439   0.341  54.496  1.00  0.00     0.030 C 
HETATM   31  C20 UNL     1      21.460  -1.113  54.889  1.00  0.00     0.003 C 
HETATM   32  C21 UNL     1      20.891  -1.917  53.744  1.00  0.00     0.030 C 
HETATM   33  C22 UNL     1      19.472  -1.456  53.521  1.00  0.00     0.272 C 
ENDBRANCH  27  28
ENDBRANCH  26  27
ENDBRANCH  25  26
ENDBRANCH  19  25
TORSDOF 4
ENDMDL
MODEL 4
REMARK VINA RESULT:      -8.8      2.470      4.595
REMARK  4 active torsions:
REMARK  status: ('A' for Active; 'I' for Inactive)
REMARK    1  A    between atoms: N4_19  and  C15_20 
REMARK    2  A    between atoms: C15_20  and  C16_21 
REMARK    3  A    between atoms: C16_21  and  C17_22 
REMARK    4  A    between atoms: C17_22  and  N5_23 
ROOT
HETATM    1  C1  UNL     1      26.424   0.700  55.069  1.00  0.00     0.327 C 
HETATM    2  C2  UNL     1      26.259  -0.127  54.047  1.00  0.00     0.070 A 
HETATM    3  F1  UNL     1      25.274   0.711  54.509  1.00  0.00    -0.456 F 
HETATM    4  C3  UNL     1      26.940  -1.153  53.236  1.00  0.00     0.018 A 
HETATM    5  C4  UNL     1      27.125  -2.079  52.319  1.00  0.00     0.014 A 
HETATM    6  C5  UNL     1      28.302  -1.854  53.021  1.00  0.00     0.044 A 
HETATM    7  C6  UNL     1      29.515  -2.037  53.309  1.00  0.00     0.088 C 
HETATM    8  N1  UNL     1      29.509  -1.051  54.323  1.00  0.00    -0.292 N 
HETATM    9  N2  UNL     1      29.739   0.215  53.715  1.00  0.00    -0.169 NA
HETATM   10  C7  UNL     1      28.896   0.922  53.103  1.00  0.00     0.250 C 
HETATM   11  N3  UNL     1      27.829   1.476  52.511  1.00  0.00    -0.261 NA
HETATM   12  C8  UNL     1      26.625   1.308  52.176  1.00  0.00     0.110 A 
HETATM   13  C9  UNL     1      26.752   2.650  51.655  1.00  0.00     0.051 A 
HETATM   14  C10 UNL     1      25.766   3.394  50.954  1.00  0.00     0.095 A 
HETATM   15  C11 UNL     1      24.593   2.691  50.791  1.00  0.00     0.070 A 
HETATM   16  C12 UNL     1      24.473   1.434  51.283  1.00  0.00     0.039 A 
HETATM   17  C13 UNL     1      25.297   0.630  51.949  1.00  0.00    -0.033 A 
HETATM   18  C14 UNL     1      25.997  -0.340  52.404  1.00  0.00     0.091 A 
HETATM   19  N4  UNL     1      23.397   3.045  50.137  1.00  0.00    -0.314 N 
HETATM   20  C23 UNL     1      23.427   4.349  49.543  1.00  0.00     0.248 C 
HETATM   21  O1  UNL     1      22.382   5.023  49.353  1.00  0.00    -0.271 OA
HETATM   22  C24 UNL     1      24.822   4.807  49.179  1.00  0.00     0.279 C 
HETATM   23  O2  UNL     1      25.609   4.625  50.366  1.00  0.00    -0.340 OA
HETATM   24  H6  UNL     1      29.468  -0.530  55.212  1.00  0.00     0.188 HD
ENDROOT
BRANCH  19  25
HETATM   25  C15 UNL     1      22.187   2.254  50.029  1.00  0.00     0.134 C 
BRANCH  25  26
HETATM   26  C16 UNL     1      21.329   2.420  51.273  1.00  0.00     0.050 C 
BRANCH  26  27
HETATM   27  C17 UNL     1      20.846   1.100  51.816  1.00  0.00     0.274 C 
BRANCH  27  28
HETATM   28  N5  UNL     1      20.900   1.024  53.258  1.00  0.00     0.088 N 
HETATM   29  C18 UNL     1      22.164   0.600  53.790  1.00  0.00     0.272 C 
HETATM   30  C19 UNL     1      22.358  -0.897  53.685  1.00  0.00     0.030 C 
HETATM   31  C20 UNL     1      21.181  -1.660  54.232  1.00  0.00     0.003 C 
HETATM   32  C21 UNL     1      19.937  -1.178  53.524  1.00  0.00     0.030 C 
HETATM   33  C22 UNL     1      19.786   0.296  53.814  1.00  0.00     0.272 C 
ENDBRANCH  27  28
ENDBRANCH  26  27
ENDBRANCH  25  26
ENDBRANCH  19  25
TORSDOF 4
ENDMDL
MODEL 5
REMARK VINA RESULT:      -8.6      1.713      2.371
REMARK  4 active torsions:
REMARK  status: ('A' for Active; 'I' for Inactive)
REMARK    1  A    between atoms: N4_19  and  C15_20 
REMARK    2  A    between atoms: C15_20  and  C16_21 
REMARK    3  A    between atoms: C16_21  and  C17_22 
REMARK    4  A    between atoms: C17_22  and  N5_23 
ROOT
HETATM    1  C1  UNL     1      26.754  -1.379  52.201  1.00  0.00     0.327 C 
HETATM    2  C2  UNL     1      26.978  -0.079  52.076  1.00  0.00     0.070 A 
HETATM    3  F1  UNL     1      26.210  -0.801  51.197  1.00  0.00    -0.456 F 
HETATM    4  C3  UNL     1      27.681   1.062  52.692  1.00  0.00     0.018 A 
HETATM    5  C4  UNL     1      28.126   2.289  52.868  1.00  0.00     0.014 A 
HETATM    6  C5  UNL     1      28.534   1.473  53.915  1.00  0.00     0.044 A 
HETATM    7  C6  UNL     1      29.122   1.211  54.998  1.00  0.00     0.088 C 
HETATM    8  N1  UNL     1      28.714  -0.143  54.988  1.00  0.00    -0.292 N 
HETATM    9  N2  UNL     1      27.413  -0.220  55.559  1.00  0.00    -0.169 NA
HETATM   10  C7  UNL     1      26.323   0.053  54.991  1.00  0.00     0.250 C 
HETATM   11  N3  UNL     1      25.317   0.398  54.175  1.00  0.00    -0.261 NA
HETATM   12  C8  UNL     1      25.013   0.865  53.045  1.00  0.00     0.110 A 
HETATM   13  C9  UNL     1      23.658   0.685  53.514  1.00  0.00     0.051 A 
HETATM   14  C10 UNL     1      22.461   1.030  52.832  1.00  0.00     0.095 A 
HETATM   15  C11 UNL     1      22.702   1.594  51.599  1.00  0.00     0.070 A 
HETATM   16  C12 UNL     1      23.973   1.761  51.158  1.00  0.00     0.039 A 
HETATM   17  C13 UNL     1      25.165   1.488  51.679  1.00  0.00    -0.033 A 
HETATM   18  C14 UNL     1      26.377   1.486  52.089  1.00  0.00     0.091 A 
HETATM   19  N4  UNL     1      21.810   2.097  50.633  1.00  0.00    -0.314 N 
HETATM   20  C23 UNL     1      20.432   2.006  51.015  1.00  0.00     0.248 C 
HETATM   21  O1  UNL     1      19.505   1.939  50.169  1.00  0.00    -0.271 OA
HETATM   22  C24 UNL     1      20.227   2.002  52.514  1.00  0.00     0.279 C 
HETATM   23  O2  UNL     1      21.102   0.982  53.019  1.00  0.00    -0.340 OA
HETATM   24  H6  UNL     1      28.643  -1.166  54.881  1.00  0.00     0.188 HD
ENDROOT
BRANCH  19  25
HETATM   25  C15 UNL     1      22.141   2.658  49.338  1.00  0.00     0.134 C 
BRANCH  25  26
HETATM   26  C16 UNL     1      22.054   4.175  49.375  1.00  0.00     0.050 C 
BRANCH  26  27
HETATM   27  C17 UNL     1      23.372   4.832  49.061  1.00  0.00     0.274 C 
BRANCH  27  28
HETATM   28  N5  UNL     1      24.249   4.927  50.207  1.00  0.00     0.088 N 
HETATM   29  C18 UNL     1      23.857   5.906  51.182  1.00  0.00     0.272 C 
HETATM   30  C19 UNL     1      24.223   7.313  50.761  1.00  0.00     0.030 C 
HETATM   31  C20 UNL     1      25.663   7.421  50.335  1.00  0.00     0.003 C 
HETATM   32  C21 UNL     1      25.910   6.400  49.249  1.00  0.00     0.030 C 
HETATM   33  C22 UNL     1      25.637   5.035  49.832  1.00  0.00     0.272 C 
ENDBRANCH  27  28
ENDBRANCH  26  27
ENDBRANCH  25  26
ENDBRANCH  19  25
TORSDOF 4
ENDMDL
MODEL 6
REMARK VINA RESULT:      -8.5      2.665      4.547
REMARK  4 active torsions:
REMARK  status: ('A' for Active; 'I' for Inactive)
REMARK    1  A    between atoms: N4_19  and  C15_20 
REMARK    2  A    between atoms: C15_20  and  C16_21 
REMARK    3  A    between atoms: C16_21  and  C17_22 
REMARK    4  A    between atoms: C17_22  and  N5_23 
ROOT
HETATM    1  C1  UNL     1      25.487  -0.329  55.705  1.00  0.00     0.327 C 
HETATM    2  C2  UNL     1      25.577  -0.711  54.440  1.00  0.00     0.070 A 
HETATM    3  F1  UNL     1      24.383  -0.537  55.094  1.00  0.00    -0.456 F 
HETATM    4  C3  UNL     1      26.540  -1.028  53.368  1.00  0.00     0.018 A 
HETATM    5  C4  UNL     1      26.998  -1.404  52.193  1.00  0.00     0.014 A 
HETATM    6  C5  UNL     1      28.048  -1.037  53.025  1.00  0.00     0.044 A 
HETATM    7  C6  UNL     1      29.257  -0.849  53.326  1.00  0.00     0.088 C 
HETATM    8  N1  UNL     1      28.947  -0.392  54.629  1.00  0.00    -0.292 N 
HETATM    9  N2  UNL     1      28.645   0.997  54.553  1.00  0.00    -0.169 NA
HETATM   10  C7  UNL     1      27.560   1.512  54.177  1.00  0.00     0.250 C 
HETATM   11  N3  UNL     1      26.326   1.808  53.743  1.00  0.00    -0.261 NA
HETATM   12  C8  UNL     1      25.255   1.343  53.270  1.00  0.00     0.110 A 
HETATM   13  C9  UNL     1      24.834   2.725  53.293  1.00  0.00     0.051 A 
HETATM   14  C10 UNL     1      23.597   3.253  52.836  1.00  0.00     0.095 A 
HETATM   15  C11 UNL     1      22.766   2.280  52.328  1.00  0.00     0.070 A 
HETATM   16  C12 UNL     1      23.160   0.983  52.307  1.00  0.00     0.039 A 
HETATM   17  C13 UNL     1      24.267   0.357  52.696  1.00  0.00    -0.033 A 
HETATM   18  C14 UNL     1      25.308  -0.376  52.819  1.00  0.00     0.091 A 
HETATM   19  N4  UNL     1      21.485   2.381  51.752  1.00  0.00    -0.314 N 
HETATM   20  C23 UNL     1      20.984   3.722  51.686  1.00  0.00     0.248 C 
HETATM   21  O1  UNL     1      19.753   3.977  51.671  1.00  0.00    -0.271 OA
HETATM   22  C24 UNL     1      22.077   4.766  51.636  1.00  0.00     0.279 C 
HETATM   23  O2  UNL     1      22.951   4.460  52.734  1.00  0.00    -0.340 OA
HETATM   24  H6  UNL     1      28.772  -0.297  55.640  1.00  0.00     0.188 HD
ENDROOT
BRANCH  19  25
HETATM   25  C15 UNL     1      20.656   1.299  51.258  1.00  0.00     0.134 C 
BRANCH  25  26
HETATM   26  C16 UNL     1      19.728   0.795  52.352  1.00  0.00     0.050 C 
BRANCH  26  27
HETATM   27  C17 UNL     1      18.665  -0.131  51.820  1.00  0.00     0.274 C 
BRANCH  27  28
HETATM   28  N5  UNL     1      17.353   0.474  51.776  1.00  0.00     0.088 N 
HETATM   29  C18 UNL     1      16.324  -0.276  52.439  1.00  0.00     0.272 C 
HETATM   30  C19 UNL     1      15.837  -1.440  51.606  1.00  0.00     0.030 C 
HETATM   31  C20 UNL     1      15.478  -1.024  50.204  1.00  0.00     0.003 C 
HETATM   32  C21 UNL     1      16.676  -0.330  49.599  1.00  0.00     0.030 C 
HETATM   33  C22 UNL     1      16.979   0.883  50.444  1.00  0.00     0.272 C 
ENDBRANCH  27  28
ENDBRANCH  26  27
ENDBRANCH  25  26
ENDBRANCH  19  25
TORSDOF 4
ENDMDL
MODEL 7
REMARK VINA RESULT:      -8.5      3.655      7.142
REMARK  4 active torsions:
REMARK  status: ('A' for Active; 'I' for Inactive)
REMARK    1  A    between atoms: N4_19  and  C15_20 
REMARK    2  A    between atoms: C15_20  and  C16_21 
REMARK    3  A    between atoms: C16_21  and  C17_22 
REMARK    4  A    between atoms: C17_22  and  N5_23 
ROOT
HETATM    1  C1  UNL     1      24.773   7.826  50.504  1.00  0.00     0.327 C 
HETATM    2  C2  UNL     1      25.690   6.982  50.054  1.00  0.00     0.070 A 
HETATM    3  F1  UNL     1      24.971   6.775  51.206  1.00  0.00    -0.456 F 
HETATM    4  C3  UNL     1      26.664   6.766  48.969  1.00  0.00     0.018 A 
HETATM    5  C4  UNL     1      27.620   6.199  48.263  1.00  0.00     0.014 A 
HETATM    6  C5  UNL     1      27.174   7.352  47.632  1.00  0.00     0.044 A 
HETATM    7  C6  UNL     1      27.157   8.224  46.722  1.00  0.00     0.088 C 
HETATM    8  N1  UNL     1      26.109   8.955  47.329  1.00  0.00    -0.292 N 
HETATM    9  N2  UNL     1      24.872   8.372  46.934  1.00  0.00    -0.169 NA
HETATM   10  C7  UNL     1      24.344   7.333  47.406  1.00  0.00     0.250 C 
HETATM   11  N3  UNL     1      23.996   6.220  48.068  1.00  0.00    -0.261 NA
HETATM   12  C8  UNL     1      24.362   5.360  48.915  1.00  0.00     0.110 A 
HETATM   13  C9  UNL     1      23.059   4.789  48.658  1.00  0.00     0.051 A 
HETATM   14  C10 UNL     1      22.521   3.597  49.211  1.00  0.00     0.095 A 
HETATM   15  C11 UNL     1      23.397   2.975  50.073  1.00  0.00     0.070 A 
HETATM   16  C12 UNL     1      24.618   3.511  50.315  1.00  0.00     0.039 A 
HETATM   17  C13 UNL     1      25.241   4.601  49.878  1.00  0.00    -0.033 A 
HETATM   18  C14 UNL     1      26.061   5.473  49.425  1.00  0.00     0.091 A 
HETATM   19  N4  UNL     1      23.270   1.773  50.795  1.00  0.00    -0.314 N 
HETATM   20  C23 UNL     1      22.024   1.098  50.581  1.00  0.00     0.248 C 
HETATM   21  O1  UNL     1      21.526   0.325  51.439  1.00  0.00    -0.271 OA
HETATM   22  C24 UNL     1      21.397   1.412  49.242  1.00  0.00     0.279 C 
HETATM   23  O2  UNL     1      21.373   2.845  49.154  1.00  0.00    -0.340 OA
HETATM   24  H6  UNL     1      25.534   9.626  47.862  1.00  0.00     0.188 HD
ENDROOT
BRANCH  19  25
HETATM   25  C15 UNL     1      24.234   1.191  51.708  1.00  0.00     0.134 C 
BRANCH  25  26
HETATM   26  C16 UNL     1      24.219   1.925  53.039  1.00  0.00     0.050 C 
BRANCH  26  27
HETATM   27  C17 UNL     1      25.571   1.936  53.703  1.00  0.00     0.274 C 
BRANCH  27  28
HETATM   28  N5  UNL     1      26.571   1.191  52.970  1.00  0.00     0.088 N 
HETATM   29  C18 UNL     1      27.025  -0.005  53.622  1.00  0.00     0.272 C 
HETATM   30  C19 UNL     1      28.020   0.285  54.724  1.00  0.00     0.030 C 
HETATM   31  C20 UNL     1      29.135   1.184  54.259  1.00  0.00     0.003 C 
HETATM   32  C21 UNL     1      28.518   2.436  53.681  1.00  0.00     0.030 C 
HETATM   33  C22 UNL     1      27.654   2.026  52.513  1.00  0.00     0.272 C 
ENDBRANCH  27  28
ENDBRANCH  26  27
ENDBRANCH  25  26
ENDBRANCH  19  25
TORSDOF 4
ENDMDL
MODEL 8
REMARK VINA RESULT:      -8.4      6.329      9.419
REMARK  4 active torsions:
REMARK  status: ('A' for Active; 'I' for Inactive)
REMARK    1  A    between atoms: N4_19  and  C15_20 
REMARK    2  A    between atoms: C15_20  and  C16_21 
REMARK    3  A    between atoms: C16_21  and  C17_22 
REMARK    4  A    between atoms: C17_22  and  N5_23 
ROOT
HETATM    1  C1  UNL     1      22.816   4.647  48.843  1.00  0.00     0.327 C 
HETATM    2  C2  UNL     1      23.927   4.040  49.232  1.00  0.00     0.070 A 
HETATM    3  F1  UNL     1      23.833   4.778  48.078  1.00  0.00    -0.456 F 
HETATM    4  C3  UNL     1      24.497   3.187  50.292  1.00  0.00     0.018 A 
HETATM    5  C4  UNL     1      25.372   2.458  50.952  1.00  0.00     0.014 A 
HETATM    6  C5  UNL     1      24.177   2.532  51.656  1.00  0.00     0.044 A 
HETATM    7  C6  UNL     1      23.398   2.287  52.615  1.00  0.00     0.088 C 
HETATM    8  N1  UNL     1      22.344   3.053  52.064  1.00  0.00    -0.292 N 
HETATM    9  N2  UNL     1      22.540   4.413  52.438  1.00  0.00    -0.169 NA
HETATM   10  C7  UNL     1      23.336   5.232  51.910  1.00  0.00     0.250 C 
HETATM   11  N3  UNL     1      24.246   5.901  51.188  1.00  0.00    -0.261 NA
HETATM   12  C8  UNL     1      25.125   5.812  50.288  1.00  0.00     0.110 A 
HETATM   13  C9  UNL     1      25.280   7.228  50.525  1.00  0.00     0.051 A 
HETATM   14  C10 UNL     1      26.213   8.104  49.908  1.00  0.00     0.095 A 
HETATM   15  C11 UNL     1      27.023   7.456  49.002  1.00  0.00     0.070 A 
HETATM   16  C12 UNL     1      26.876   6.127  48.779  1.00  0.00     0.039 A 
HETATM   17  C13 UNL     1      26.059   5.201  49.272  1.00  0.00    -0.033 A 
HETATM   18  C14 UNL     1      25.512   4.156  49.767  1.00  0.00     0.091 A 
HETATM   19  N4  UNL     1      28.082   7.941  48.211  1.00  0.00    -0.314 N 
HETATM   20  C23 UNL     1      28.352   9.336  48.398  1.00  0.00     0.248 C 
HETATM   21  O1  UNL     1      28.881  10.042  47.503  1.00  0.00    -0.271 OA
HETATM   22  C24 UNL     1      27.940   9.846  49.761  1.00  0.00     0.279 C 
HETATM   23  O2  UNL     1      26.577   9.428  49.933  1.00  0.00    -0.340 OA
HETATM   24  H6  UNL     1      21.499   3.389  51.578  1.00  0.00     0.188 HD
ENDROOT
BRANCH  19  25
HETATM   25  C15 UNL     1      28.877   7.197  47.255  1.00  0.00     0.134 C 
BRANCH  25  26
HETATM   26  C16 UNL     1      30.289   6.992  47.780  1.00  0.00     0.050 C 
BRANCH  26  27
HETATM   27  C17 UNL     1      30.681   5.538  47.819  1.00  0.00     0.274 C 
BRANCH  27  28
HETATM   28  N5  UNL     1      32.112   5.334  47.836  1.00  0.00     0.088 N 
HETATM   29  C18 UNL     1      32.841   6.120  46.882  1.00  0.00     0.272 C 
HETATM   30  C19 UNL     1      32.757   5.549  45.484  1.00  0.00     0.030 C 
HETATM   31  C20 UNL     1      33.096   4.082  45.449  1.00  0.00     0.003 C 
HETATM   32  C21 UNL     1      32.196   3.368  46.430  1.00  0.00     0.030 C 
HETATM   33  C22 UNL     1      32.470   3.937  47.801  1.00  0.00     0.272 C 
ENDBRANCH  27  28
ENDBRANCH  26  27
ENDBRANCH  25  26
ENDBRANCH  19  25
TORSDOF 4
ENDMDL
MODEL 9
REMARK VINA RESULT:      -8.2      2.824      5.028
REMARK  4 active torsions:
REMARK  status: ('A' for Active; 'I' for Inactive)
REMARK    1  A    between atoms: N4_19  and  C15_20 
REMARK    2  A    between atoms: C15_20  and  C16_21 
REMARK    3  A    between atoms: C16_21  and  C17_22 
REMARK    4  A    between atoms: C17_22  and  N5_23 
ROOT
HETATM    1  C1  UNL     1      23.521   2.770  48.669  1.00  0.00     0.327 C 
HETATM    2  C2  UNL     1      23.223   3.585  49.670  1.00  0.00     0.070 A 
HETATM    3  F1  UNL     1      22.527   2.433  49.400  1.00  0.00    -0.456 F 
HETATM    4  C3  UNL     1      23.620   4.847  50.322  1.00  0.00     0.018 A 
HETATM    5  C4  UNL     1      23.601   5.862  51.161  1.00  0.00     0.014 A 
HETATM    6  C5  UNL     1      24.682   5.971  50.295  1.00  0.00     0.044 A 
HETATM    7  C6  UNL     1      25.714   6.514  49.817  1.00  0.00     0.088 C 
HETATM    8  N1  UNL     1      25.906   5.493  48.857  1.00  0.00    -0.292 N 
HETATM    9  N2  UNL     1      26.627   4.432  49.474  1.00  0.00    -0.169 NA
HETATM   10  C7  UNL     1      26.160   3.547  50.237  1.00  0.00     0.250 C 
HETATM   11  N3  UNL     1      25.429   2.730  51.009  1.00  0.00    -0.261 NA
HETATM   12  C8  UNL     1      24.295   2.524  51.518  1.00  0.00     0.110 A 
HETATM   13  C9  UNL     1      24.933   1.351  52.069  1.00  0.00     0.051 A 
HETATM   14  C10 UNL     1      24.357   0.392  52.944  1.00  0.00     0.095 A 
HETATM   15  C11 UNL     1      23.048   0.684  53.256  1.00  0.00     0.070 A 
HETATM   16  C12 UNL     1      22.448   1.784  52.738  1.00  0.00     0.039 A 
HETATM   17  C13 UNL     1      22.858   2.749  51.920  1.00  0.00    -0.033 A 
HETATM   18  C14 UNL     1      23.124   3.848  51.323  1.00  0.00     0.091 A 
HETATM   19  N4  UNL     1      22.139   0.019  54.101  1.00  0.00    -0.314 N 
HETATM   20  C23 UNL     1      22.684  -1.144  54.737  1.00  0.00     0.248 C 
HETATM   21  O1  UNL     1      21.962  -2.102  55.113  1.00  0.00    -0.271 OA
HETATM   22  C24 UNL     1      24.186  -1.086  54.900  1.00  0.00     0.279 C 
HETATM   23  O2  UNL     1      24.703  -0.764  53.599  1.00  0.00    -0.340 OA
HETATM   24  H6  UNL     1      25.926   4.909  48.007  1.00  0.00     0.188 HD
ENDROOT
BRANCH  19  25
HETATM   25  C15 UNL     1      20.758   0.377  54.362  1.00  0.00     0.134 C 
BRANCH  25  26
HETATM   26  C16 UNL     1      19.817  -0.516  53.570  1.00  0.00     0.050 C 
BRANCH  26  27
HETATM   27  C17 UNL     1      19.574   0.001  52.176  1.00  0.00     0.274 C 
BRANCH  27  28
HETATM   28  N5  UNL     1      18.506   0.973  52.107  1.00  0.00     0.088 N 
HETATM   29  C18 UNL     1      17.326   0.519  51.427  1.00  0.00     0.272 C 
HETATM   30  C19 UNL     1      17.481   0.554  49.923  1.00  0.00     0.030 C 
HETATM   31  C20 UNL     1      17.988   1.885  49.436  1.00  0.00     0.003 C 
HETATM   32  C21 UNL     1      19.275   2.193  50.166  1.00  0.00     0.030 C 
HETATM   33  C22 UNL     1      18.961   2.259  51.641  1.00  0.00     0.272 C 
ENDBRANCH  27  28
ENDBRANCH  26  27
ENDBRANCH  25  26
ENDBRANCH  19  25
TORSDOF 4
ENDMDL
