MODEL 1
REMARK VINA RESULT:      -7.1      0.000      0.000
REMARK  10 active torsions:
REMARK  status: ('A' for Active; 'I' for Inactive)
REMARK    1  A    between atoms: C7_7  and  N1_8 
REMARK    2  A    between atoms: N1_8  and  C8_9 
REMARK    3  A    between atoms: C14_16  and  O1_17 
REMARK    4  A    between atoms: O1_17  and  C15_18 
REMARK    5  A    between atoms: C15_18  and  C16_19 
REMARK    6  A    between atoms: C16_19  and  O2_20 
REMARK    7  A    between atoms: C18_22  and  O3_23 
REMARK    8  A    between atoms: O3_23  and  C19_24 
REMARK    9  A    between atoms: C19_24  and  C20_25 
REMARK   10  A    between atoms: C20_25  and  O4_26 
ROOT
HETATM    1  C1  UNL     1      29.407  -0.094  53.509  1.00  0.00     0.018 C 
HETATM    2  C2  UNL     1      28.211   0.038  53.383  1.00  0.00    -0.078 C 
HETATM    3  C3  UNL     1      26.782   0.171  53.227  1.00  0.00     0.019 A 
HETATM    4  C4  UNL     1      25.910  -0.469  54.071  1.00  0.00     0.021 A 
HETATM    5  C5  UNL     1      24.556  -0.279  53.833  1.00  0.00     0.004 A 
HETATM    6  C6  UNL     1      24.097   0.515  52.799  1.00  0.00     0.029 A 
HETATM    7  C7  UNL     1      25.023   1.150  51.963  1.00  0.00     0.034 A 
HETATM    8  C22 UNL     1      26.375   0.974  52.183  1.00  0.00     0.050 A 
ENDROOT
BRANCH   7   9
HETATM    9  N1  UNL     1      24.431   1.923  50.951  1.00  0.00    -0.354 N 
HETATM   10  H5  UNL     1      23.948   1.524  50.137  1.00  0.00     0.166 HD
BRANCH   9  11
HETATM   11  C8  UNL     1      24.520   3.311  51.088  1.00  0.00     0.075 C 
HETATM   12  C9  UNL     1      23.798   4.074  51.880  1.00  0.00     0.115 C 
HETATM   13  N2  UNL     1      23.377   5.213  51.486  1.00  0.00    -0.255 NA
HETATM   14  C10 UNL     1      24.236   6.106  50.747  1.00  0.00     0.132 C 
HETATM   15  C11 UNL     1      25.268   5.509  50.176  1.00  0.00     0.030 A 
HETATM   16  C12 UNL     1      25.504   4.075  50.293  1.00  0.00     0.010 A 
HETATM   17  C18 UNL     1      26.372   6.018  49.349  1.00  0.00     0.114 A 
HETATM   18  C13 UNL     1      26.599   3.769  49.626  1.00  0.00     0.054 A 
HETATM   19  C14 UNL     1      27.153   5.001  49.026  1.00  0.00     0.103 A 
BRANCH  19  20
HETATM   20  O1  UNL     1      28.310   4.861  48.288  1.00  0.00    -0.346 OA
BRANCH  20  21
HETATM   21  C15 UNL     1      29.170   5.945  47.974  1.00  0.00     0.201 C 
BRANCH  21  22
HETATM   22  C16 UNL     1      30.534   5.664  48.571  1.00  0.00     0.193 C 
BRANCH  22  23
HETATM   23  O2  UNL     1      31.251   4.975  47.599  1.00  0.00    -0.394 OA
HETATM   24  C17 UNL     1      32.418   4.397  48.081  1.00  0.00     0.201 C 
ENDBRANCH  22  23
ENDBRANCH  21  22
ENDBRANCH  20  21
ENDBRANCH  19  20
BRANCH  17  25
HETATM   25  O3  UNL     1      26.624   7.297  48.938  1.00  0.00    -0.345 OA
BRANCH  25  26
HETATM   26  C19 UNL     1      26.859   8.425  49.702  1.00  0.00     0.202 C 
BRANCH  26  27
HETATM   27  C20 UNL     1      26.044   9.630  49.292  1.00  0.00     0.193 C 
BRANCH  27  28
HETATM   28  O4  UNL     1      26.778  10.804  49.318  1.00  0.00    -0.394 OA
HETATM   29  C21 UNL     1      28.060  10.653  48.814  1.00  0.00     0.201 C 
ENDBRANCH  27  28
ENDBRANCH  26  27
ENDBRANCH  25  26
ENDBRANCH  17  25
ENDBRANCH   9  11
ENDBRANCH   7   9
TORSDOF 10
ENDMDL
MODEL 2
REMARK VINA RESULT:      -7.0      3.921      8.230
REMARK  10 active torsions:
REMARK  status: ('A' for Active; 'I' for Inactive)
REMARK    1  A    between atoms: C7_7  and  N1_8 
REMARK    2  A    between atoms: N1_8  and  C8_9 
REMARK    3  A    between atoms: C14_16  and  O1_17 
REMARK    4  A    between atoms: O1_17  and  C15_18 
REMARK    5  A    between atoms: C15_18  and  C16_19 
REMARK    6  A    between atoms: C16_19  and  O2_20 
REMARK    7  A    between atoms: C18_22  and  O3_23 
REMARK    8  A    between atoms: O3_23  and  C19_24 
REMARK    9  A    between atoms: C19_24  and  C20_25 
REMARK   10  A    between atoms: C20_25  and  O4_26 
ROOT
HETATM    1  C1  UNL     1      28.247   6.444  47.866  1.00  0.00     0.018 C 
HETATM    2  C2  UNL     1      27.228   6.782  48.425  1.00  0.00    -0.078 C 
HETATM    3  C3  UNL     1      26.022   7.206  49.097  1.00  0.00     0.019 A 
HETATM    4  C4  UNL     1      25.316   8.301  48.670  1.00  0.00     0.021 A 
HETATM    5  C5  UNL     1      24.174   8.629  49.387  1.00  0.00     0.004 A 
HETATM    6  C6  UNL     1      23.759   7.892  50.481  1.00  0.00     0.029 A 
HETATM    7  C7  UNL     1      24.511   6.781  50.880  1.00  0.00     0.034 A 
HETATM    8  C22 UNL     1      25.651   6.439  50.180  1.00  0.00     0.050 A 
ENDROOT
BRANCH   7   9
HETATM    9  N1  UNL     1      23.987   6.121  52.005  1.00  0.00    -0.354 N 
HETATM   10  H5  UNL     1      24.257   6.339  52.972  1.00  0.00     0.166 HD
BRANCH   9  11
HETATM   11  C8  UNL     1      23.047   5.117  51.761  1.00  0.00     0.075 C 
HETATM   12  C9  UNL     1      21.893   5.249  51.143  1.00  0.00     0.115 C 
HETATM   13  N2  UNL     1      20.853   4.639  51.561  1.00  0.00    -0.255 NA
HETATM   14  C10 UNL     1      20.921   3.262  51.987  1.00  0.00     0.132 C 
HETATM   15  C11 UNL     1      22.140   2.856  52.300  1.00  0.00     0.030 A 
HETATM   16  C12 UNL     1      23.301   3.734  52.216  1.00  0.00     0.010 A 
HETATM   17  C18 UNL     1      22.662   1.565  52.770  1.00  0.00     0.114 A 
HETATM   18  C13 UNL     1      24.371   3.059  52.586  1.00  0.00     0.054 A 
HETATM   19  C14 UNL     1      23.969   1.680  52.938  1.00  0.00     0.103 A 
BRANCH  19  20
HETATM   20  O1  UNL     1      24.974   0.830  53.349  1.00  0.00    -0.346 OA
BRANCH  20  21
HETATM   21  C15 UNL     1      25.932   0.272  52.464  1.00  0.00     0.201 C 
BRANCH  21  22
HETATM   22  C16 UNL     1      26.902  -0.564  53.273  1.00  0.00     0.193 C 
BRANCH  22  23
HETATM   23  O2  UNL     1      27.090   0.111  54.475  1.00  0.00    -0.394 OA
HETATM   24  C17 UNL     1      28.425   0.222  54.841  1.00  0.00     0.201 C 
ENDBRANCH  22  23
ENDBRANCH  21  22
ENDBRANCH  20  21
ENDBRANCH  19  20
BRANCH  17  25
HETATM   25  O3  UNL     1      21.990   0.401  53.017  1.00  0.00    -0.345 OA
BRANCH  25  26
HETATM   26  C19 UNL     1      22.498  -0.861  53.266  1.00  0.00     0.202 C 
BRANCH  26  27
HETATM   27  C20 UNL     1      21.608  -1.725  54.131  1.00  0.00     0.193 C 
BRANCH  27  28
HETATM   28  O4  UNL     1      22.144  -1.950  55.388  1.00  0.00    -0.394 OA
HETATM   29  C21 UNL     1      23.394  -1.376  55.555  1.00  0.00     0.201 C 
ENDBRANCH  27  28
ENDBRANCH  26  27
ENDBRANCH  25  26
ENDBRANCH  17  25
ENDBRANCH   9  11
ENDBRANCH   7   9
TORSDOF 10
ENDMDL
MODEL 3
REMARK VINA RESULT:      -7.0      4.359      8.968
REMARK  10 active torsions:
REMARK  status: ('A' for Active; 'I' for Inactive)
REMARK    1  A    between atoms: C7_7  and  N1_8 
REMARK    2  A    between atoms: N1_8  and  C8_9 
REMARK    3  A    between atoms: C14_16  and  O1_17 
REMARK    4  A    between atoms: O1_17  and  C15_18 
REMARK    5  A    between atoms: C15_18  and  C16_19 
REMARK    6  A    between atoms: C16_19  and  O2_20 
REMARK    7  A    between atoms: C18_22  and  O3_23 
REMARK    8  A    between atoms: O3_23  and  C19_24 
REMARK    9  A    between atoms: C19_24  and  C20_25 
REMARK   10  A    between atoms: C20_25  and  O4_26 
ROOT
HETATM    1  C1  UNL     1      23.860   8.260  50.337  1.00  0.00     0.018 C 
HETATM    2  C2  UNL     1      24.731   7.509  49.959  1.00  0.00    -0.078 C 
HETATM    3  C3  UNL     1      25.764   6.619  49.486  1.00  0.00     0.019 A 
HETATM    4  C4  UNL     1      26.837   7.088  48.772  1.00  0.00     0.021 A 
HETATM    5  C5  UNL     1      27.772   6.150  48.358  1.00  0.00     0.004 A 
HETATM    6  C6  UNL     1      27.638   4.804  48.647  1.00  0.00     0.029 A 
HETATM    7  C7  UNL     1      26.527   4.371  49.379  1.00  0.00     0.034 A 
HETATM    8  C22 UNL     1      25.585   5.288  49.800  1.00  0.00     0.050 A 
ENDROOT
BRANCH   7   9
HETATM    9  N1  UNL     1      26.506   2.984  49.602  1.00  0.00    -0.354 N 
HETATM   10  H5  UNL     1      26.715   2.286  48.878  1.00  0.00     0.166 HD
BRANCH   9  11
HETATM   11  C8  UNL     1      26.178   2.561  50.893  1.00  0.00     0.075 C 
HETATM   12  C9  UNL     1      26.989   2.479  51.926  1.00  0.00     0.115 C 
HETATM   13  N2  UNL     1      26.916   1.499  52.740  1.00  0.00    -0.255 NA
HETATM   14  C10 UNL     1      25.639   1.006  53.196  1.00  0.00     0.132 C 
HETATM   15  C11 UNL     1      24.624   1.344  52.419  1.00  0.00     0.030 A 
HETATM   16  C12 UNL     1      24.797   2.143  51.212  1.00  0.00     0.010 A 
HETATM   17  C18 UNL     1      23.182   1.069  52.499  1.00  0.00     0.114 A 
HETATM   18  C13 UNL     1      23.619   2.321  50.647  1.00  0.00     0.054 A 
HETATM   19  C14 UNL     1      22.591   1.640  51.463  1.00  0.00     0.103 A 
BRANCH  19  20
HETATM   20  O1  UNL     1      21.290   1.727  51.013  1.00  0.00    -0.346 OA
BRANCH  20  21
HETATM   21  C15 UNL     1      20.204   2.113  51.840  1.00  0.00     0.201 C 
BRANCH  21  22
HETATM   22  C16 UNL     1      19.798   3.525  51.471  1.00  0.00     0.193 C 
BRANCH  22  23
HETATM   23  O2  UNL     1      18.573   3.752  52.088  1.00  0.00    -0.394 OA
HETATM   24  C17 UNL     1      17.508   3.138  51.440  1.00  0.00     0.201 C 
ENDBRANCH  22  23
ENDBRANCH  21  22
ENDBRANCH  20  21
ENDBRANCH  19  20
BRANCH  17  25
HETATM   25  O3  UNL     1      22.490   0.359  53.440  1.00  0.00    -0.345 OA
BRANCH  25  26
HETATM   26  C19 UNL     1      22.339  -1.010  53.559  1.00  0.00     0.202 C 
BRANCH  26  27
HETATM   27  C20 UNL     1      21.025  -1.435  54.174  1.00  0.00     0.193 C 
BRANCH  27  28
HETATM   28  O4  UNL     1      20.031  -0.484  54.017  1.00  0.00    -0.394 OA
HETATM   29  C21 UNL     1      18.929  -0.961  53.325  1.00  0.00     0.201 C 
ENDBRANCH  27  28
ENDBRANCH  26  27
ENDBRANCH  25  26
ENDBRANCH  17  25
ENDBRANCH   9  11
ENDBRANCH   7   9
TORSDOF 10
ENDMDL
MODEL 4
REMARK VINA RESULT:      -6.9      4.373      8.010
REMARK  10 active torsions:
REMARK  status: ('A' for Active; 'I' for Inactive)
REMARK    1  A    between atoms: C7_7  and  N1_8 
REMARK    2  A    between atoms: N1_8  and  C8_9 
REMARK    3  A    between atoms: C14_16  and  O1_17 
REMARK    4  A    between atoms: O1_17  and  C15_18 
REMARK    5  A    between atoms: C15_18  and  C16_19 
REMARK    6  A    between atoms: C16_19  and  O2_20 
REMARK    7  A    between atoms: C18_22  and  O3_23 
REMARK    8  A    between atoms: O3_23  and  C19_24 
REMARK    9  A    between atoms: C19_24  and  C20_25 
REMARK   10  A    between atoms: C20_25  and  O4_26 
ROOT
HETATM    1  C1  UNL     1      19.371   2.318  48.881  1.00  0.00     0.018 C 
HETATM    2  C2  UNL     1      19.218   1.611  49.851  1.00  0.00    -0.078 C 
HETATM    3  C3  UNL     1      19.014   0.777  51.012  1.00  0.00     0.019 A 
HETATM    4  C4  UNL     1      18.017  -0.164  51.047  1.00  0.00     0.021 A 
HETATM    5  C5  UNL     1      17.901  -0.911  52.211  1.00  0.00     0.004 A 
HETATM    6  C6  UNL     1      18.746  -0.723  53.289  1.00  0.00     0.029 A 
HETATM    7  C7  UNL     1      19.750   0.249  53.208  1.00  0.00     0.034 A 
HETATM    8  C22 UNL     1      19.881   1.003  52.059  1.00  0.00     0.050 A 
ENDROOT
BRANCH   7   9
HETATM    9  N1  UNL     1      20.536   0.344  54.369  1.00  0.00    -0.354 N 
HETATM   10  H5  UNL     1      20.262   0.880  55.202  1.00  0.00     0.166 HD
BRANCH   9  11
HETATM   11  C8  UNL     1      21.753  -0.342  54.359  1.00  0.00     0.075 C 
HETATM   12  C9  UNL     1      21.988  -1.540  54.849  1.00  0.00     0.115 C 
HETATM   13  N2  UNL     1      23.073  -1.793  55.470  1.00  0.00    -0.255 NA
HETATM   14  C10 UNL     1      24.341  -1.309  54.978  1.00  0.00     0.132 C 
HETATM   15  C11 UNL     1      24.238  -0.292  54.140  1.00  0.00     0.030 A 
HETATM   16  C12 UNL     1      22.952   0.278  53.757  1.00  0.00     0.010 A 
HETATM   17  C18 UNL     1      25.244   0.496  53.413  1.00  0.00     0.114 A 
HETATM   18  C13 UNL     1      23.161   1.271  52.915  1.00  0.00     0.054 A 
HETATM   19  C14 UNL     1      24.616   1.412  52.694  1.00  0.00     0.103 A 
BRANCH  19  20
HETATM   20  O1  UNL     1      25.015   2.411  51.831  1.00  0.00    -0.346 OA
BRANCH  20  21
HETATM   21  C15 UNL     1      24.551   2.518  50.495  1.00  0.00     0.201 C 
BRANCH  21  22
HETATM   22  C16 UNL     1      24.294   3.979  50.192  1.00  0.00     0.193 C 
BRANCH  22  23
HETATM   23  O2  UNL     1      23.269   4.379  51.043  1.00  0.00    -0.394 OA
HETATM   24  C17 UNL     1      23.535   5.572  51.703  1.00  0.00     0.201 C 
ENDBRANCH  22  23
ENDBRANCH  21  22
ENDBRANCH  20  21
ENDBRANCH  19  20
BRANCH  17  25
HETATM   25  O3  UNL     1      26.605   0.373  53.419  1.00  0.00    -0.345 OA
BRANCH  25  26
HETATM   26  C19 UNL     1      27.453   0.149  54.487  1.00  0.00     0.202 C 
BRANCH  26  27
HETATM   27  C20 UNL     1      28.732   0.955  54.441  1.00  0.00     0.193 C 
BRANCH  27  28
HETATM   28  O4  UNL     1      29.688   0.390  53.613  1.00  0.00    -0.394 OA
HETATM   29  C21 UNL     1      29.792  -0.983  53.765  1.00  0.00     0.201 C 
ENDBRANCH  27  28
ENDBRANCH  26  27
ENDBRANCH  25  26
ENDBRANCH  17  25
ENDBRANCH   9  11
ENDBRANCH   7   9
TORSDOF 10
ENDMDL
MODEL 5
REMARK VINA RESULT:      -6.9      1.662      2.409
REMARK  10 active torsions:
REMARK  status: ('A' for Active; 'I' for Inactive)
REMARK    1  A    between atoms: C7_7  and  N1_8 
REMARK    2  A    between atoms: N1_8  and  C8_9 
REMARK    3  A    between atoms: C14_16  and  O1_17 
REMARK    4  A    between atoms: O1_17  and  C15_18 
REMARK    5  A    between atoms: C15_18  and  C16_19 
REMARK    6  A    between atoms: C16_19  and  O2_20 
REMARK    7  A    between atoms: C18_22  and  O3_23 
REMARK    8  A    between atoms: O3_23  and  C19_24 
REMARK    9  A    between atoms: C19_24  and  C20_25 
REMARK   10  A    between atoms: C20_25  and  O4_26 
ROOT
HETATM    1  C1  UNL     1      28.542   1.231  53.433  1.00  0.00     0.018 C 
HETATM    2  C2  UNL     1      27.482   1.467  52.901  1.00  0.00    -0.078 C 
HETATM    3  C3  UNL     1      26.213   1.725  52.261  1.00  0.00     0.019 A 
HETATM    4  C4  UNL     1      25.046   1.204  52.757  1.00  0.00     0.021 A 
HETATM    5  C5  UNL     1      23.881   1.507  52.066  1.00  0.00     0.004 A 
HETATM    6  C6  UNL     1      23.886   2.298  50.932  1.00  0.00     0.029 A 
HETATM    7  C7  UNL     1      25.102   2.810  50.463  1.00  0.00     0.034 A 
HETATM    8  C22 UNL     1      26.272   2.519  51.135  1.00  0.00     0.050 A 
ENDROOT
BRANCH   7   9
HETATM    9  N1  UNL     1      24.973   3.592  49.303  1.00  0.00    -0.354 N 
HETATM   10  H5  UNL     1      24.612   3.235  48.410  1.00  0.00     0.166 HD
BRANCH   9  11
HETATM   11  C8  UNL     1      25.367   4.929  49.402  1.00  0.00     0.075 C 
HETATM   12  C9  UNL     1      24.654   5.929  49.876  1.00  0.00     0.115 C 
HETATM   13  N2  UNL     1      24.681   7.075  49.317  1.00  0.00    -0.255 NA
HETATM   14  C10 UNL     1      25.925   7.652  48.865  1.00  0.00     0.132 C 
HETATM   15  C11 UNL     1      26.895   6.770  48.693  1.00  0.00     0.030 A 
HETATM   16  C12 UNL     1      26.708   5.346  48.943  1.00  0.00     0.010 A 
HETATM   17  C18 UNL     1      28.291   6.908  48.255  1.00  0.00     0.114 A 
HETATM   18  C13 UNL     1      27.840   4.718  48.690  1.00  0.00     0.054 A 
HETATM   19  C14 UNL     1      28.847   5.709  48.253  1.00  0.00     0.103 A 
BRANCH  19  20
HETATM   20  O1  UNL     1      30.100   5.219  47.946  1.00  0.00    -0.346 OA
BRANCH  20  21
HETATM   21  C15 UNL     1      31.272   5.571  48.664  1.00  0.00     0.201 C 
BRANCH  21  22
HETATM   22  C16 UNL     1      32.458   4.899  48.004  1.00  0.00     0.193 C 
BRANCH  22  23
HETATM   23  O2  UNL     1      32.103   3.567  47.826  1.00  0.00    -0.394 OA
HETATM   24  C17 UNL     1      33.010   2.853  47.054  1.00  0.00     0.201 C 
ENDBRANCH  22  23
ENDBRANCH  21  22
ENDBRANCH  20  21
ENDBRANCH  19  20
BRANCH  17  25
HETATM   25  O3  UNL     1      28.975   8.036  47.896  1.00  0.00    -0.345 OA
BRANCH  25  26
HETATM   26  C19 UNL     1      29.738   8.878  48.684  1.00  0.00     0.202 C 
BRANCH  26  27
HETATM   27  C20 UNL     1      29.110  10.232  48.927  1.00  0.00     0.193 C 
BRANCH  27  28
HETATM   28  O4  UNL     1      30.052  11.226  49.137  1.00  0.00    -0.394 OA
HETATM   29  C21 UNL     1      29.700  12.436  48.563  1.00  0.00     0.201 C 
ENDBRANCH  27  28
ENDBRANCH  26  27
ENDBRANCH  25  26
ENDBRANCH  17  25
ENDBRANCH   9  11
ENDBRANCH   7   9
TORSDOF 10
ENDMDL
MODEL 6
REMARK VINA RESULT:      -6.9      2.972      4.732
REMARK  10 active torsions:
REMARK  status: ('A' for Active; 'I' for Inactive)
REMARK    1  A    between atoms: C7_7  and  N1_8 
REMARK    2  A    between atoms: N1_8  and  C8_9 
REMARK    3  A    between atoms: C14_16  and  O1_17 
REMARK    4  A    between atoms: O1_17  and  C15_18 
REMARK    5  A    between atoms: C15_18  and  C16_19 
REMARK    6  A    between atoms: C16_19  and  O2_20 
REMARK    7  A    between atoms: C18_22  and  O3_23 
REMARK    8  A    between atoms: O3_23  and  C19_24 
REMARK    9  A    between atoms: C19_24  and  C20_25 
REMARK   10  A    between atoms: C20_25  and  O4_26 
ROOT
HETATM    1  C1  UNL     1      22.719  -1.488  55.348  1.00  0.00     0.018 C 
HETATM    2  C2  UNL     1      22.044  -1.044  54.447  1.00  0.00    -0.078 C 
HETATM    3  C3  UNL     1      21.229  -0.537  53.369  1.00  0.00     0.019 A 
HETATM    4  C4  UNL     1      19.861  -0.505  53.464  1.00  0.00     0.021 A 
HETATM    5  C5  UNL     1      19.169  -0.003  52.371  1.00  0.00     0.004 A 
HETATM    6  C6  UNL     1      19.818   0.447  51.236  1.00  0.00     0.029 A 
HETATM    7  C7  UNL     1      21.216   0.396  51.184  1.00  0.00     0.034 A 
HETATM    8  C22 UNL     1      21.923  -0.100  52.261  1.00  0.00     0.050 A 
ENDROOT
BRANCH   7   9
HETATM    9  N1  UNL     1      21.752   0.877  49.978  1.00  0.00    -0.354 N 
HETATM   10  H5  UNL     1      21.858   0.305  49.131  1.00  0.00     0.166 HD
BRANCH   9  11
HETATM   11  C8  UNL     1      22.155   2.215  49.960  1.00  0.00     0.075 C 
HETATM   12  C9  UNL     1      21.397   3.265  49.724  1.00  0.00     0.115 C 
HETATM   13  N2  UNL     1      21.828   4.239  49.021  1.00  0.00    -0.255 NA
HETATM   14  C10 UNL     1      23.167   4.746  49.197  1.00  0.00     0.132 C 
HETATM   15  C11 UNL     1      23.990   3.898  49.791  1.00  0.00     0.030 A 
HETATM   16  C12 UNL     1      23.565   2.571  50.222  1.00  0.00     0.010 A 
HETATM   17  C18 UNL     1      25.408   3.992  50.164  1.00  0.00     0.114 A 
HETATM   18  C13 UNL     1      24.590   1.957  50.778  1.00  0.00     0.054 A 
HETATM   19  C14 UNL     1      25.763   2.857  50.743  1.00  0.00     0.103 A 
BRANCH  19  20
HETATM   20  O1  UNL     1      26.932   2.369  51.289  1.00  0.00    -0.346 OA
BRANCH  20  21
HETATM   21  C15 UNL     1      27.002   1.773  52.575  1.00  0.00     0.201 C 
BRANCH  21  22
HETATM   22  C16 UNL     1      28.187   2.360  53.312  1.00  0.00     0.193 C 
BRANCH  22  23
HETATM   23  O2  UNL     1      28.370   1.575  54.445  1.00  0.00    -0.394 OA
HETATM   24  C17 UNL     1      27.792   0.316  54.341  1.00  0.00     0.201 C 
ENDBRANCH  22  23
ENDBRANCH  21  22
ENDBRANCH  20  21
ENDBRANCH  19  20
BRANCH  17  25
HETATM   25  O3  UNL     1      26.281   5.029  49.983  1.00  0.00    -0.345 OA
BRANCH  25  26
HETATM   26  C19 UNL     1      26.778   5.551  48.804  1.00  0.00     0.202 C 
BRANCH  26  27
HETATM   27  C20 UNL     1      26.437   7.007  48.581  1.00  0.00     0.193 C 
BRANCH  27  28
HETATM   28  O4  UNL     1      25.357   7.177  47.732  1.00  0.00    -0.394 OA
HETATM   29  C21 UNL     1      24.569   8.266  48.069  1.00  0.00     0.201 C 
ENDBRANCH  27  28
ENDBRANCH  26  27
ENDBRANCH  25  26
ENDBRANCH  17  25
ENDBRANCH   9  11
ENDBRANCH   7   9
TORSDOF 10
ENDMDL
MODEL 7
REMARK VINA RESULT:      -6.8      3.332      7.216
REMARK  10 active torsions:
REMARK  status: ('A' for Active; 'I' for Inactive)
REMARK    1  A    between atoms: C7_7  and  N1_8 
REMARK    2  A    between atoms: N1_8  and  C8_9 
REMARK    3  A    between atoms: C14_16  and  O1_17 
REMARK    4  A    between atoms: O1_17  and  C15_18 
REMARK    5  A    between atoms: C15_18  and  C16_19 
REMARK    6  A    between atoms: C16_19  and  O2_20 
REMARK    7  A    between atoms: C18_22  and  O3_23 
REMARK    8  A    between atoms: O3_23  and  C19_24 
REMARK    9  A    between atoms: C19_24  and  C20_25 
REMARK   10  A    between atoms: C20_25  and  O4_26 
ROOT
HETATM    1  C1  UNL     1      31.687   0.508  46.434  1.00  0.00     0.018 C 
HETATM    2  C2  UNL     1      32.237   1.575  46.587  1.00  0.00    -0.078 C 
HETATM    3  C3  UNL     1      32.909   2.837  46.784  1.00  0.00     0.019 A 
HETATM    4  C4  UNL     1      34.220   3.012  46.421  1.00  0.00     0.021 A 
HETATM    5  C5  UNL     1      34.775   4.262  46.658  1.00  0.00     0.004 A 
HETATM    6  C6  UNL     1      34.049   5.289  47.231  1.00  0.00     0.029 A 
HETATM    7  C7  UNL     1      32.713   5.066  47.584  1.00  0.00     0.034 A 
HETATM    8  C22 UNL     1      32.143   3.830  47.358  1.00  0.00     0.050 A 
ENDROOT
BRANCH   7   9
HETATM    9  N1  UNL     1      32.089   6.186  48.159  1.00  0.00    -0.354 N 
HETATM   10  H5  UNL     1      32.305   6.540  49.099  1.00  0.00     0.166 HD
BRANCH   9  11
HETATM   11  C8  UNL     1      31.124   6.833  47.383  1.00  0.00     0.075 C 
HETATM   12  C9  UNL     1      31.339   7.627  46.356  1.00  0.00     0.115 C 
HETATM   13  N2  UNL     1      30.641   8.681  46.185  1.00  0.00    -0.255 NA
HETATM   14  C10 UNL     1      29.212   8.666  46.384  1.00  0.00     0.132 C 
HETATM   15  C11 UNL     1      28.783   7.659  47.126  1.00  0.00     0.030 A 
HETATM   16  C12 UNL     1      29.688   6.662  47.687  1.00  0.00     0.010 A 
HETATM   17  C18 UNL     1      27.441   7.261  47.573  1.00  0.00     0.114 A 
HETATM   18  C13 UNL     1      28.981   5.787  48.375  1.00  0.00     0.054 A 
HETATM   19  C14 UNL     1      27.553   6.165  48.304  1.00  0.00     0.103 A 
BRANCH  19  20
HETATM   20  O1  UNL     1      26.666   5.348  48.973  1.00  0.00    -0.346 OA
BRANCH  20  21
HETATM   21  C15 UNL     1      26.871   3.956  49.154  1.00  0.00     0.201 C 
BRANCH  21  22
HETATM   22  C16 UNL     1      26.204   3.537  50.448  1.00  0.00     0.193 C 
BRANCH  22  23
HETATM   23  O2  UNL     1      27.134   2.763  51.133  1.00  0.00    -0.394 OA
HETATM   24  C17 UNL     1      26.588   2.062  52.200  1.00  0.00     0.201 C 
ENDBRANCH  22  23
ENDBRANCH  21  22
ENDBRANCH  20  21
ENDBRANCH  19  20
BRANCH  17  25
HETATM   25  O3  UNL     1      26.237   7.858  47.324  1.00  0.00    -0.345 OA
BRANCH  25  26
HETATM   26  C19 UNL     1      25.901   9.198  47.386  1.00  0.00     0.202 C 
BRANCH  26  27
HETATM   27  C20 UNL     1      25.789   9.742  48.792  1.00  0.00     0.193 C 
BRANCH  27  28
HETATM   28  O4  UNL     1      26.302  11.023  48.910  1.00  0.00    -0.394 OA
HETATM   29  C21 UNL     1      25.701  11.928  48.051  1.00  0.00     0.201 C 
ENDBRANCH  27  28
ENDBRANCH  26  27
ENDBRANCH  25  26
ENDBRANCH  17  25
ENDBRANCH   9  11
ENDBRANCH   7   9
TORSDOF 10
ENDMDL
MODEL 8
REMARK VINA RESULT:      -6.8      4.737      7.945
REMARK  10 active torsions:
REMARK  status: ('A' for Active; 'I' for Inactive)
REMARK    1  A    between atoms: C7_7  and  N1_8 
REMARK    2  A    between atoms: N1_8  and  C8_9 
REMARK    3  A    between atoms: C14_16  and  O1_17 
REMARK    4  A    between atoms: O1_17  and  C15_18 
REMARK    5  A    between atoms: C15_18  and  C16_19 
REMARK    6  A    between atoms: C16_19  and  O2_20 
REMARK    7  A    between atoms: C18_22  and  O3_23 
REMARK    8  A    between atoms: O3_23  and  C19_24 
REMARK    9  A    between atoms: C19_24  and  C20_25 
REMARK   10  A    between atoms: C20_25  and  O4_26 
ROOT
HETATM    1  C1  UNL     1      29.441  -2.702  53.414  1.00  0.00     0.018 C 
HETATM    2  C2  UNL     1      29.007  -1.576  53.327  1.00  0.00    -0.078 C 
HETATM    3  C3  UNL     1      28.489  -0.231  53.246  1.00  0.00     0.019 A 
HETATM    4  C4  UNL     1      29.180   0.832  53.769  1.00  0.00     0.021 A 
HETATM    5  C5  UNL     1      28.594   2.084  53.645  1.00  0.00     0.004 A 
HETATM    6  C6  UNL     1      27.371   2.261  53.023  1.00  0.00     0.029 A 
HETATM    7  C7  UNL     1      26.702   1.147  52.503  1.00  0.00     0.034 A 
HETATM    8  C22 UNL     1      27.269  -0.106  52.617  1.00  0.00     0.050 A 
ENDROOT
BRANCH   7   9
HETATM    9  N1  UNL     1      25.471   1.461  51.902  1.00  0.00    -0.354 N 
HETATM   10  H5  UNL     1      25.381   2.007  51.036  1.00  0.00     0.166 HD
BRANCH   9  11
HETATM   11  C8  UNL     1      24.323   0.987  52.542  1.00  0.00     0.075 C 
HETATM   12  C9  UNL     1      24.238  -0.051  53.346  1.00  0.00     0.115 C 
HETATM   13  N2  UNL     1      23.238  -0.841  53.293  1.00  0.00    -0.255 NA
HETATM   14  C10 UNL     1      21.895  -0.330  53.159  1.00  0.00     0.132 C 
HETATM   15  C11 UNL     1      21.833   0.904  52.690  1.00  0.00     0.030 A 
HETATM   16  C12 UNL     1      23.026   1.668  52.343  1.00  0.00     0.010 A 
HETATM   17  C18 UNL     1      20.703   1.798  52.401  1.00  0.00     0.114 A 
HETATM   18  C13 UNL     1      22.658   2.856  51.907  1.00  0.00     0.054 A 
HETATM   19  C14 UNL     1      21.182   2.942  51.943  1.00  0.00     0.103 A 
BRANCH  19  20
HETATM   20  O1  UNL     1      20.623   4.129  51.518  1.00  0.00    -0.346 OA
BRANCH  20  21
HETATM   21  C15 UNL     1      20.256   4.380  50.171  1.00  0.00     0.201 C 
BRANCH  21  22
HETATM   22  C16 UNL     1      21.070   5.551  49.662  1.00  0.00     0.193 C 
BRANCH  22  23
HETATM   23  O2  UNL     1      21.544   6.215  50.789  1.00  0.00    -0.394 OA
HETATM   24  C17 UNL     1      21.495   7.598  50.675  1.00  0.00     0.201 C 
ENDBRANCH  22  23
ENDBRANCH  21  22
ENDBRANCH  20  21
ENDBRANCH  19  20
BRANCH  17  25
HETATM   25  O3  UNL     1      19.363   1.570  52.550  1.00  0.00    -0.345 OA
BRANCH  25  26
HETATM   26  C19 UNL     1      18.463   1.050  51.638  1.00  0.00     0.202 C 
BRANCH  26  27
HETATM   27  C20 UNL     1      18.196  -0.429  51.809  1.00  0.00     0.193 C 
BRANCH  27  28
HETATM   28  O4  UNL     1      18.438  -0.868  53.100  1.00  0.00    -0.394 OA
HETATM   29  C21 UNL     1      17.750  -2.029  53.415  1.00  0.00     0.201 C 
ENDBRANCH  27  28
ENDBRANCH  26  27
ENDBRANCH  25  26
ENDBRANCH  17  25
ENDBRANCH   9  11
ENDBRANCH   7   9
TORSDOF 10
ENDMDL
MODEL 9
REMARK VINA RESULT:      -6.6      1.553      2.769
REMARK  10 active torsions:
REMARK  status: ('A' for Active; 'I' for Inactive)
REMARK    1  A    between atoms: C7_7  and  N1_8 
REMARK    2  A    between atoms: N1_8  and  C8_9 
REMARK    3  A    between atoms: C14_16  and  O1_17 
REMARK    4  A    between atoms: O1_17  and  C15_18 
REMARK    5  A    between atoms: C15_18  and  C16_19 
REMARK    6  A    between atoms: C16_19  and  O2_20 
REMARK    7  A    between atoms: C18_22  and  O3_23 
REMARK    8  A    between atoms: O3_23  and  C19_24 
REMARK    9  A    between atoms: C19_24  and  C20_25 
REMARK   10  A    between atoms: C20_25  and  O4_26 
ROOT
HETATM    1  C1  UNL     1      21.599  -1.302  54.571  1.00  0.00     0.018 C 
HETATM    2  C2  UNL     1      22.517  -0.774  53.987  1.00  0.00    -0.078 C 
HETATM    3  C3  UNL     1      23.620  -0.133  53.311  1.00  0.00     0.019 A 
HETATM    4  C4  UNL     1      24.921  -0.431  53.628  1.00  0.00     0.021 A 
HETATM    5  C5  UNL     1      25.908   0.243  52.923  1.00  0.00     0.004 A 
HETATM    6  C6  UNL     1      25.605   1.173  51.946  1.00  0.00     0.029 A 
HETATM    7  C7  UNL     1      24.263   1.446  51.655  1.00  0.00     0.034 A 
HETATM    8  C22 UNL     1      23.266   0.786  52.345  1.00  0.00     0.050 A 
ENDROOT
BRANCH   7   9
HETATM    9  N1  UNL     1      24.090   2.410  50.649  1.00  0.00    -0.354 N 
HETATM   10  H5  UNL     1      23.845   2.184  49.677  1.00  0.00     0.166 HD
BRANCH   9  11
HETATM   11  C8  UNL     1      24.268   3.745  51.022  1.00  0.00     0.075 C 
HETATM   12  C9  UNL     1      23.706   4.362  52.039  1.00  0.00     0.115 C 
HETATM   13  N2  UNL     1      23.291   5.563  51.928  1.00  0.00    -0.255 NA
HETATM   14  C10 UNL     1      24.078   6.561  51.244  1.00  0.00     0.132 C 
HETATM   15  C11 UNL     1      24.987   6.059  50.425  1.00  0.00     0.030 A 
HETATM   16  C12 UNL     1      25.164   4.623  50.241  1.00  0.00     0.010 A 
HETATM   17  C18 UNL     1      25.984   6.688  49.548  1.00  0.00     0.114 A 
HETATM   18  C13 UNL     1      26.136   4.423  49.373  1.00  0.00     0.054 A 
HETATM   19  C14 UNL     1      26.659   5.733  48.931  1.00  0.00     0.103 A 
BRANCH  19  20
HETATM   20  O1  UNL     1      27.690   5.709  48.015  1.00  0.00    -0.346 OA
BRANCH  20  21
HETATM   21  C15 UNL     1      29.052   5.553  48.378  1.00  0.00     0.201 C 
BRANCH  21  22
HETATM   22  C16 UNL     1      29.693   6.924  48.434  1.00  0.00     0.193 C 
BRANCH  22  23
HETATM   23  O2  UNL     1      31.049   6.711  48.660  1.00  0.00    -0.394 OA
HETATM   24  C17 UNL     1      31.709   6.160  47.569  1.00  0.00     0.201 C 
ENDBRANCH  22  23
ENDBRANCH  21  22
ENDBRANCH  20  21
ENDBRANCH  19  20
BRANCH  17  25
HETATM   25  O3  UNL     1      26.238   8.016  49.345  1.00  0.00    -0.345 OA
BRANCH  25  26
HETATM   26  C19 UNL     1      25.689   8.874  48.410  1.00  0.00     0.202 C 
BRANCH  26  27
HETATM   27  C20 UNL     1      24.575   8.262  47.591  1.00  0.00     0.193 C 
BRANCH  27  28
HETATM   28  O4  UNL     1      23.340   8.369  48.207  1.00  0.00    -0.394 OA
HETATM   29  C21 UNL     1      22.465   7.358  47.845  1.00  0.00     0.201 C 
ENDBRANCH  27  28
ENDBRANCH  26  27
ENDBRANCH  25  26
ENDBRANCH  17  25
ENDBRANCH   9  11
ENDBRANCH   7   9
TORSDOF 10
ENDMDL
