MODEL 1
REMARK VINA RESULT:      -8.0      0.000      0.000
REMARK  5 active torsions:
REMARK  status: ('A' for Active; 'I' for Inactive)
REMARK    1  A    between atoms: C3_3  and  O1_4 
REMARK    2  A    between atoms: O1_4  and  C4_5 
REMARK    3  A    between atoms: C4_5  and  C5_6 
REMARK    4  A    between atoms: N1_17  and  C14_18 
REMARK    5  A    between atoms: C19_27  and  N4_28 
ROOT
HETATM    1  C1  UNL     1      24.539   2.988  52.936  1.00  0.00     0.035 C 
HETATM    2  C2  UNL     1      23.196   2.347  53.096  1.00  0.00     0.116 C 
HETATM    3  C3  UNL     1      23.383   0.912  53.537  1.00  0.00     0.188 C 
HETATM    4  C11 UNL     1      22.027   0.300  53.813  1.00  0.00     0.040 C 
HETATM    5 CL1  UNL     1      21.723  -1.027  54.906  1.00  0.00    -0.086 Cl
HETATM    6  C12 UNL     1      21.005   0.831  53.163  1.00  0.00     0.015 C 
HETATM    7  C13 UNL     1      21.016   1.965  52.182  1.00  0.00     0.153 C 
HETATM    8  N1  UNL     1      22.357   2.445  51.918  1.00  0.00    -0.354 N 
ENDROOT
BRANCH   8   9
HETATM    9  C14 UNL     1      22.754   2.930  50.648  1.00  0.00     0.139 C 
HETATM   10  N2  UNL     1      23.627   2.585  49.724  1.00  0.00    -0.224 NA
HETATM   11  C15 UNL     1      23.772   3.343  48.501  1.00  0.00     0.231 C 
HETATM   12  N3  UNL     1      22.595   3.032  48.188  1.00  0.00    -0.257 NA
HETATM   13  C16 UNL     1      21.937   3.441  47.001  1.00  0.00     0.323 C 
HETATM   14  O2  UNL     1      20.659   2.838  47.075  1.00  0.00    -0.341 OA
HETATM   15  P1  UNL     1      19.840   3.302  48.503  1.00  0.00     0.049 P 
HETATM   16  C17 UNL     1      20.843   4.417  49.524  1.00  0.00     0.009 A 
HETATM   17  H18 UNL     1      18.592   3.942  48.155  1.00  0.00     0.093 HD
HETATM   18  C18 UNL     1      20.479   5.749  49.568  1.00  0.00     0.044 A 
HETATM   19  C22 UNL     1      21.940   4.136  50.330  1.00  0.00     0.023 A 
HETATM   20  C19 UNL     1      21.033   6.810  50.278  1.00  0.00     0.026 A 
HETATM   21  C20 UNL     1      22.117   6.481  51.066  1.00  0.00     0.030 A 
HETATM   22  C21 UNL     1      22.536   5.139  51.062  1.00  0.00     0.018 A 
BRANCH  20  23
HETATM   23  N4  UNL     1      20.532   8.113  50.207  1.00  0.00    -0.399 N 
HETATM   24  H20 UNL     1      19.906   8.465  50.976  1.00  0.00     0.156 HD
HETATM   25  H21 UNL     1      20.784   8.706  49.402  1.00  0.00     0.156 HD
ENDBRANCH  20  23
ENDBRANCH   8   9
BRANCH   3  26
HETATM   26  O1  UNL     1      24.079   0.152  52.649  1.00  0.00    -0.374 OA
BRANCH  26  27
HETATM   27  C4  UNL     1      24.813  -0.893  53.120  1.00  0.00     0.207 C 
BRANCH  27  28
HETATM   28  C5  UNL     1      26.174  -0.603  53.569  1.00  0.00    -0.032 A 
HETATM   29  C6  UNL     1      26.629   0.297  54.508  1.00  0.00     0.009 A 
HETATM   30  C7  UNL     1      27.960   0.439  54.824  1.00  0.00     0.004 A 
HETATM   31  C8  UNL     1      28.935  -0.312  54.216  1.00  0.00     0.042 A 
HETATM   32  C9  UNL     1      28.550  -1.232  53.267  1.00  0.00     0.117 A 
HETATM   33  F1  UNL     1      29.472  -1.982  52.653  1.00  0.00    -0.206 F 
HETATM   34  C10 UNL     1      27.208  -1.347  52.977  1.00  0.00     0.051 A 
ENDBRANCH  27  28
ENDBRANCH  26  27
ENDBRANCH   3  26
TORSDOF 5
ENDMDL
MODEL 2
REMARK VINA RESULT:      -8.0      3.560      5.494
REMARK  5 active torsions:
REMARK  status: ('A' for Active; 'I' for Inactive)
REMARK    1  A    between atoms: C3_3  and  O1_4 
REMARK    2  A    between atoms: O1_4  and  C4_5 
REMARK    3  A    between atoms: C4_5  and  C5_6 
REMARK    4  A    between atoms: N1_17  and  C14_18 
REMARK    5  A    between atoms: C19_27  and  N4_28 
ROOT
HETATM    1  C1  UNL     1      23.456   4.722  52.669  1.00  0.00     0.035 C 
HETATM    2  C2  UNL     1      23.722   3.250  52.701  1.00  0.00     0.116 C 
HETATM    3  C3  UNL     1      25.011   2.964  51.962  1.00  0.00     0.188 C 
HETATM    4  C11 UNL     1      25.341   1.493  52.095  1.00  0.00     0.040 C 
HETATM    5 CL1  UNL     1      26.943   0.806  52.003  1.00  0.00    -0.086 Cl
HETATM    6  C12 UNL     1      24.316   0.682  52.299  1.00  0.00     0.015 C 
HETATM    7  C13 UNL     1      22.863   1.033  52.414  1.00  0.00     0.153 C 
HETATM    8  N1  UNL     1      22.624   2.446  52.201  1.00  0.00    -0.354 N 
ENDROOT
BRANCH   8   9
HETATM    9  C14 UNL     1      21.452   2.933  51.571  1.00  0.00     0.139 C 
HETATM   10  N2  UNL     1      20.211   3.186  51.929  1.00  0.00    -0.224 NA
HETATM   11  C15 UNL     1      19.241   3.694  50.984  1.00  0.00     0.231 C 
HETATM   12  N3  UNL     1      19.928   4.739  50.864  1.00  0.00    -0.257 NA
HETATM   13  C16 UNL     1      19.602   5.831  50.021  1.00  0.00     0.323 C 
HETATM   14  O2  UNL     1      20.641   6.768  50.234  1.00  0.00    -0.341 OA
HETATM   15  P1  UNL     1      22.170   6.080  49.896  1.00  0.00     0.049 P 
HETATM   16  C17 UNL     1      22.031   4.346  49.382  1.00  0.00     0.009 A 
HETATM   17  H18 UNL     1      22.826   6.849  48.864  1.00  0.00     0.093 HD
HETATM   18  C18 UNL     1      22.246   4.053  48.050  1.00  0.00     0.044 A 
HETATM   19  C22 UNL     1      21.768   3.213  50.144  1.00  0.00     0.023 A 
HETATM   20  C19 UNL     1      22.237   2.830  47.385  1.00  0.00     0.026 A 
HETATM   21  C20 UNL     1      21.976   1.735  48.183  1.00  0.00     0.030 A 
HETATM   22  C21 UNL     1      21.748   1.970  49.549  1.00  0.00     0.018 A 
BRANCH  20  23
HETATM   23  N4  UNL     1      22.479   2.711  46.013  1.00  0.00    -0.399 N 
HETATM   24  H20 UNL     1      21.806   2.160  45.420  1.00  0.00     0.156 HD
HETATM   25  H21 UNL     1      23.311   3.164  45.607  1.00  0.00     0.156 HD
ENDBRANCH  20  23
ENDBRANCH   8   9
BRANCH   3  26
HETATM   26  O1  UNL     1      24.985   3.332  50.652  1.00  0.00    -0.374 OA
BRANCH  26  27
HETATM   27  C4  UNL     1      26.130   3.233  49.925  1.00  0.00     0.207 C 
BRANCH  27  28
HETATM   28  C5  UNL     1      26.626   4.456  49.294  1.00  0.00    -0.032 A 
HETATM   29  C6  UNL     1      27.843   4.723  48.705  1.00  0.00     0.009 A 
HETATM   30  C7  UNL     1      28.150   5.938  48.140  1.00  0.00     0.004 A 
HETATM   31  C8  UNL     1      27.256   6.981  48.128  1.00  0.00     0.042 A 
HETATM   32  C9  UNL     1      26.019   6.782  48.700  1.00  0.00     0.117 A 
HETATM   33  F1  UNL     1      25.121   7.773  48.707  1.00  0.00    -0.206 F 
HETATM   34  C10 UNL     1      25.747   5.550  49.255  1.00  0.00     0.051 A 
ENDBRANCH  27  28
ENDBRANCH  26  27
ENDBRANCH   3  26
TORSDOF 5
ENDMDL
MODEL 3
REMARK VINA RESULT:      -8.0      6.810      9.005
REMARK  5 active torsions:
REMARK  status: ('A' for Active; 'I' for Inactive)
REMARK    1  A    between atoms: C3_3  and  O1_4 
REMARK    2  A    between atoms: O1_4  and  C4_5 
REMARK    3  A    between atoms: C4_5  and  C5_6 
REMARK    4  A    between atoms: N1_17  and  C14_18 
REMARK    5  A    between atoms: C19_27  and  N4_28 
ROOT
HETATM    1  C1  UNL     1      24.891   7.616  48.085  1.00  0.00     0.035 C 
HETATM    2  C2  UNL     1      25.639   6.343  48.331  1.00  0.00     0.116 C 
HETATM    3  C3  UNL     1      25.012   5.620  49.503  1.00  0.00     0.188 C 
HETATM    4  C11 UNL     1      25.692   4.279  49.677  1.00  0.00     0.040 C 
HETATM    5 CL1  UNL     1      24.967   2.868  50.406  1.00  0.00    -0.086 Cl
HETATM    6  C12 UNL     1      26.934   4.194  49.231  1.00  0.00     0.015 C 
HETATM    7  C13 UNL     1      27.760   5.258  48.574  1.00  0.00     0.153 C 
HETATM    8  N1  UNL     1      27.066   6.528  48.512  1.00  0.00    -0.354 N 
ENDROOT
BRANCH   8   9
HETATM    9  C14 UNL     1      27.738   7.769  48.629  1.00  0.00     0.139 C 
HETATM   10  N2  UNL     1      27.676   8.818  49.424  1.00  0.00    -0.224 NA
HETATM   11  C15 UNL     1      28.549   9.956  49.242  1.00  0.00     0.231 C 
HETATM   12  N3  UNL     1      29.535   9.220  49.497  1.00  0.00    -0.257 NA
HETATM   13  C16 UNL     1      30.886   9.651  49.513  1.00  0.00     0.323 C 
HETATM   14  O2  UNL     1      31.624   8.496  49.866  1.00  0.00    -0.341 OA
HETATM   15  P1  UNL     1      31.330   7.217  48.769  1.00  0.00     0.049 P 
HETATM   16  C17 UNL     1      30.146   7.693  47.479  1.00  0.00     0.009 A 
HETATM   17  H18 UNL     1      32.577   6.805  48.165  1.00  0.00     0.093 HD
HETATM   18  C18 UNL     1      30.635   7.907  46.206  1.00  0.00     0.044 A 
HETATM   19  C22 UNL     1      28.767   7.850  47.556  1.00  0.00     0.023 A 
HETATM   20  C19 UNL     1      29.969   8.244  45.032  1.00  0.00     0.026 A 
HETATM   21  C20 UNL     1      28.602   8.385  45.156  1.00  0.00     0.030 A 
HETATM   22  C21 UNL     1      28.045   8.180  46.430  1.00  0.00     0.018 A 
BRANCH  20  23
HETATM   23  N4  UNL     1      30.629   8.424  43.812  1.00  0.00    -0.399 N 
HETATM   24  H20 UNL     1      30.294   7.896  42.965  1.00  0.00     0.156 HD
HETATM   25  H21 UNL     1      31.430   9.070  43.763  1.00  0.00     0.156 HD
ENDBRANCH  20  23
ENDBRANCH   8   9
BRANCH   3  26
HETATM   26  O1  UNL     1      25.044   6.327  50.664  1.00  0.00    -0.374 OA
BRANCH  26  27
HETATM   27  C4  UNL     1      23.874   6.805  51.169  1.00  0.00     0.207 C 
BRANCH  27  28
HETATM   28  C5  UNL     1      22.788   5.843  51.361  1.00  0.00    -0.032 A 
HETATM   29  C6  UNL     1      22.685   4.781  52.232  1.00  0.00     0.009 A 
HETATM   30  C7  UNL     1      21.576   3.970  52.294  1.00  0.00     0.004 A 
HETATM   31  C8  UNL     1      20.487   4.165  51.480  1.00  0.00     0.042 A 
HETATM   32  C9  UNL     1      20.525   5.210  50.584  1.00  0.00     0.117 A 
HETATM   33  F1  UNL     1      19.483   5.431  49.775  1.00  0.00    -0.206 F 
HETATM   34  C10 UNL     1      21.652   6.002  50.552  1.00  0.00     0.051 A 
ENDBRANCH  27  28
ENDBRANCH  26  27
ENDBRANCH   3  26
TORSDOF 5
ENDMDL
MODEL 4
REMARK VINA RESULT:      -7.9      2.552      3.792
REMARK  5 active torsions:
REMARK  status: ('A' for Active; 'I' for Inactive)
REMARK    1  A    between atoms: C3_3  and  O1_4 
REMARK    2  A    between atoms: O1_4  and  C4_5 
REMARK    3  A    between atoms: C4_5  and  C5_6 
REMARK    4  A    between atoms: N1_17  and  C14_18 
REMARK    5  A    between atoms: C19_27  and  N4_28 
ROOT
HETATM    1  C1  UNL     1      20.428   4.330  51.449  1.00  0.00     0.035 C 
HETATM    2  C2  UNL     1      20.549   2.889  51.065  1.00  0.00     0.116 C 
HETATM    3  C3  UNL     1      21.341   2.159  52.127  1.00  0.00     0.188 C 
HETATM    4  C11 UNL     1      21.361   0.681  51.799  1.00  0.00     0.040 C 
HETATM    5 CL1  UNL     1      21.557  -0.607  52.962  1.00  0.00    -0.086 Cl
HETATM    6  C12 UNL     1      21.216   0.366  50.523  1.00  0.00     0.015 C 
HETATM    7  C13 UNL     1      21.035   1.285  49.353  1.00  0.00     0.153 C 
HETATM    8  N1  UNL     1      21.101   2.680  49.740  1.00  0.00    -0.354 N 
ENDROOT
BRANCH   8   9
HETATM    9  C14 UNL     1      21.654   3.677  48.900  1.00  0.00     0.139 C 
HETATM   10  N2  UNL     1      21.283   4.322  47.813  1.00  0.00    -0.224 NA
HETATM   11  C15 UNL     1      22.135   5.314  47.196  1.00  0.00     0.231 C 
HETATM   12  N3  UNL     1      22.035   6.021  48.230  1.00  0.00    -0.257 NA
HETATM   13  C16 UNL     1      22.659   7.280  48.416  1.00  0.00     0.323 C 
HETATM   14  O2  UNL     1      22.245   7.697  49.703  1.00  0.00    -0.341 OA
HETATM   15  P1  UNL     1      22.672   6.545  50.892  1.00  0.00     0.049 P 
HETATM   16  C17 UNL     1      23.514   5.109  50.169  1.00  0.00     0.009 A 
HETATM   17  H18 UNL     1      23.520   7.166  51.882  1.00  0.00     0.093 HD
HETATM   18  C18 UNL     1      24.872   4.986  50.385  1.00  0.00     0.044 A 
HETATM   19  C22 UNL     1      22.992   4.052  49.432  1.00  0.00     0.023 A 
HETATM   20  C19 UNL     1      25.760   3.991  49.987  1.00  0.00     0.026 A 
HETATM   21  C20 UNL     1      25.195   2.962  49.262  1.00  0.00     0.030 A 
HETATM   22  C21 UNL     1      23.815   3.032  49.009  1.00  0.00     0.018 A 
BRANCH  20  23
HETATM   23  N4  UNL     1      27.123   4.023  50.297  1.00  0.00    -0.399 N 
HETATM   24  H20 UNL     1      27.777   3.364  49.801  1.00  0.00     0.156 HD
HETATM   25  H21 UNL     1      27.463   4.690  51.006  1.00  0.00     0.156 HD
ENDBRANCH  20  23
ENDBRANCH   8   9
BRANCH   3  26
HETATM   26  O1  UNL     1      22.606   2.631  52.288  1.00  0.00    -0.374 OA
BRANCH  26  27
HETATM   27  C4  UNL     1      23.366   2.129  53.299  1.00  0.00     0.207 C 
BRANCH  27  28
HETATM   28  C5  UNL     1      24.716   1.680  52.960  1.00  0.00    -0.032 A 
HETATM   29  C6  UNL     1      25.132   0.663  52.129  1.00  0.00     0.009 A 
HETATM   30  C7  UNL     1      26.458   0.375  51.907  1.00  0.00     0.004 A 
HETATM   31  C8  UNL     1      27.467   1.086  52.509  1.00  0.00     0.042 A 
HETATM   32  C9  UNL     1      27.121   2.117  53.352  1.00  0.00     0.117 A 
HETATM   33  F1  UNL     1      28.075   2.834  53.956  1.00  0.00    -0.206 F 
HETATM   34  C10 UNL     1      25.782   2.378  53.549  1.00  0.00     0.051 A 
ENDBRANCH  27  28
ENDBRANCH  26  27
ENDBRANCH   3  26
TORSDOF 5
ENDMDL
MODEL 5
REMARK VINA RESULT:      -7.7     11.249     13.154
REMARK  5 active torsions:
REMARK  status: ('A' for Active; 'I' for Inactive)
REMARK    1  A    between atoms: C3_3  and  O1_4 
REMARK    2  A    between atoms: O1_4  and  C4_5 
REMARK    3  A    between atoms: C4_5  and  C5_6 
REMARK    4  A    between atoms: N1_17  and  C14_18 
REMARK    5  A    between atoms: C19_27  and  N4_28 
ROOT
HETATM    1  C1  UNL     1      30.766   8.795  44.204  1.00  0.00     0.035 C 
HETATM    2  C2  UNL     1      32.228   8.860  43.893  1.00  0.00     0.116 C 
HETATM    3  C3  UNL     1      32.675   7.527  43.336  1.00  0.00     0.188 C 
HETATM    4  C11 UNL     1      34.124   7.629  42.912  1.00  0.00     0.040 C 
HETATM    5 CL1  UNL     1      34.887   6.651  41.683  1.00  0.00    -0.086 Cl
HETATM    6  C12 UNL     1      34.851   8.541  43.536  1.00  0.00     0.015 C 
HETATM    7  C13 UNL     1      34.424   9.490  44.615  1.00  0.00     0.153 C 
HETATM    8  N1  UNL     1      33.047   9.278  45.015  1.00  0.00    -0.354 N 
ENDROOT
BRANCH   8   9
HETATM    9  C14 UNL     1      32.606   9.460  46.348  1.00  0.00     0.139 C 
HETATM   10  N2  UNL     1      31.989  10.403  47.029  1.00  0.00    -0.224 NA
HETATM   11  C15 UNL     1      31.689  10.247  48.435  1.00  0.00     0.231 C 
HETATM   12  N3  UNL     1      30.930   9.286  48.150  1.00  0.00    -0.257 NA
HETATM   13  C16 UNL     1      30.194   8.526  49.093  1.00  0.00     0.323 C 
HETATM   14  O2  UNL     1      29.480   7.585  48.314  1.00  0.00    -0.341 OA
HETATM   15  P1  UNL     1      30.540   6.643  47.359  1.00  0.00     0.049 P 
HETATM   16  C17 UNL     1      32.273   7.126  47.598  1.00  0.00     0.009 A 
HETATM   17  H18 UNL     1      30.369   5.246  47.685  1.00  0.00     0.093 HD
HETATM   18  C18 UNL     1      33.084   6.270  48.318  1.00  0.00     0.044 A 
HETATM   19  C22 UNL     1      32.955   8.242  47.129  1.00  0.00     0.023 A 
HETATM   20  C19 UNL     1      34.437   6.362  48.628  1.00  0.00     0.026 A 
HETATM   21  C20 UNL     1      35.073   7.485  48.138  1.00  0.00     0.030 A 
HETATM   22  C21 UNL     1      34.298   8.394  47.398  1.00  0.00     0.018 A 
BRANCH  20  23
HETATM   23  N4  UNL     1      35.111   5.392  49.376  1.00  0.00    -0.399 N 
HETATM   24  H20 UNL     1      34.596   4.523  49.672  1.00  0.00     0.156 HD
HETATM   25  H21 UNL     1      36.099   5.546  49.627  1.00  0.00     0.156 HD
ENDBRANCH  20  23
ENDBRANCH   8   9
BRANCH   3  26
HETATM   26  O1  UNL     1      32.501   6.487  44.196  1.00  0.00    -0.374 OA
BRANCH  26  27
HETATM   27  C4  UNL     1      32.990   5.266  43.850  1.00  0.00     0.207 C 
BRANCH  27  28
HETATM   28  C5  UNL     1      33.582   4.458  44.916  1.00  0.00    -0.032 A 
HETATM   29  C6  UNL     1      34.903   4.267  45.258  1.00  0.00     0.009 A 
HETATM   30  C7  UNL     1      35.295   3.473  46.311  1.00  0.00     0.004 A 
HETATM   31  C8  UNL     1      34.387   2.807  47.096  1.00  0.00     0.042 A 
HETATM   32  C9  UNL     1      33.049   2.954  46.809  1.00  0.00     0.117 A 
HETATM   33  F1  UNL     1      32.134   2.322  47.553  1.00  0.00    -0.206 F 
HETATM   34  C10 UNL     1      32.693   3.759  45.749  1.00  0.00     0.051 A 
ENDBRANCH  27  28
ENDBRANCH  26  27
ENDBRANCH   3  26
TORSDOF 5
ENDMDL
MODEL 6
REMARK VINA RESULT:      -7.7      3.465      5.300
REMARK  5 active torsions:
REMARK  status: ('A' for Active; 'I' for Inactive)
REMARK    1  A    between atoms: C3_3  and  O1_4 
REMARK    2  A    between atoms: O1_4  and  C4_5 
REMARK    3  A    between atoms: C4_5  and  C5_6 
REMARK    4  A    between atoms: N1_17  and  C14_18 
REMARK    5  A    between atoms: C19_27  and  N4_28 
ROOT
HETATM    1  C1  UNL     1      22.326   1.985  49.412  1.00  0.00     0.035 C 
HETATM    2  C2  UNL     1      23.664   2.647  49.512  1.00  0.00     0.116 C 
HETATM    3  C3  UNL     1      24.313   2.257  50.821  1.00  0.00     0.188 C 
HETATM    4  C11 UNL     1      25.712   2.830  50.870  1.00  0.00     0.040 C 
HETATM    5 CL1  UNL     1      27.039   2.175  51.797  1.00  0.00    -0.086 Cl
HETATM    6  C12 UNL     1      25.924   3.914  50.142  1.00  0.00     0.015 C 
HETATM    7  C13 UNL     1      24.951   4.653  49.272  1.00  0.00     0.153 C 
HETATM    8  N1  UNL     1      23.620   4.086  49.339  1.00  0.00    -0.354 N 
ENDROOT
BRANCH   8   9
HETATM    9  C14 UNL     1      22.450   4.880  49.251  1.00  0.00     0.139 C 
HETATM   10  N2  UNL     1      21.389   5.102  49.999  1.00  0.00    -0.224 NA
HETATM   11  C15 UNL     1      20.346   6.012  49.579  1.00  0.00     0.231 C 
HETATM   12  N3  UNL     1      21.173   6.957  49.628  1.00  0.00    -0.257 NA
HETATM   13  C16 UNL     1      20.879   8.309  49.318  1.00  0.00     0.323 C 
HETATM   14  O2  UNL     1      22.095   8.997  49.536  1.00  0.00    -0.341 OA
HETATM   15  P1  UNL     1      23.355   8.339  48.584  1.00  0.00     0.049 P 
HETATM   16  C17 UNL     1      22.784   6.937  47.584  1.00  0.00     0.009 A 
HETATM   17  H18 UNL     1      23.898   9.367  47.727  1.00  0.00     0.093 HD
HETATM   18  C18 UNL     1      22.639   7.136  46.225  1.00  0.00     0.044 A 
HETATM   19  C22 UNL     1      22.489   5.635  47.969  1.00  0.00     0.023 A 
HETATM   20  C19 UNL     1      22.255   6.250  45.222  1.00  0.00     0.026 A 
HETATM   21  C20 UNL     1      21.976   4.969  45.652  1.00  0.00     0.030 A 
HETATM   22  C21 UNL     1      22.105   4.706  47.026  1.00  0.00     0.018 A 
BRANCH  20  23
HETATM   23  N4  UNL     1      22.160   6.623  43.878  1.00  0.00    -0.399 N 
HETATM   24  H20 UNL     1      22.918   6.329  43.210  1.00  0.00     0.156 HD
HETATM   25  H21 UNL     1      21.350   7.179  43.565  1.00  0.00     0.156 HD
ENDBRANCH  20  23
ENDBRANCH   8   9
BRANCH   3  26
HETATM   26  O1  UNL     1      23.603   2.635  51.918  1.00  0.00    -0.374 OA
BRANCH  26  27
HETATM   27  C4  UNL     1      23.607   1.823  53.010  1.00  0.00     0.207 C 
BRANCH  27  28
HETATM   28  C5  UNL     1      22.433   0.976  53.216  1.00  0.00    -0.032 A 
HETATM   29  C6  UNL     1      21.117   1.178  52.861  1.00  0.00     0.009 A 
HETATM   30  C7  UNL     1      20.123   0.264  53.123  1.00  0.00     0.004 A 
HETATM   31  C8  UNL     1      20.379  -0.922  53.766  1.00  0.00     0.042 A 
HETATM   32  C9  UNL     1      21.674  -1.188  54.148  1.00  0.00     0.117 A 
HETATM   33  F1  UNL     1      21.961  -2.334  54.776  1.00  0.00    -0.206 F 
HETATM   34  C10 UNL     1      22.643  -0.250  53.868  1.00  0.00     0.051 A 
ENDBRANCH  27  28
ENDBRANCH  26  27
ENDBRANCH   3  26
TORSDOF 5
ENDMDL
MODEL 7
REMARK VINA RESULT:      -7.7      1.823      2.098
REMARK  5 active torsions:
REMARK  status: ('A' for Active; 'I' for Inactive)
REMARK    1  A    between atoms: C3_3  and  O1_4 
REMARK    2  A    between atoms: O1_4  and  C4_5 
REMARK    3  A    between atoms: C4_5  and  C5_6 
REMARK    4  A    between atoms: N1_17  and  C14_18 
REMARK    5  A    between atoms: C19_27  and  N4_28 
ROOT
HETATM    1  C1  UNL     1      23.782   4.868  52.591  1.00  0.00     0.035 C 
HETATM    2  C2  UNL     1      22.720   3.828  52.418  1.00  0.00     0.116 C 
HETATM    3  C3  UNL     1      23.292   2.472  52.768  1.00  0.00     0.188 C 
HETATM    4  C11 UNL     1      22.188   1.439  52.707  1.00  0.00     0.040 C 
HETATM    5 CL1  UNL     1      22.159  -0.060  53.601  1.00  0.00    -0.086 Cl
HETATM    6  C12 UNL     1      21.173   1.718  51.906  1.00  0.00     0.015 C 
HETATM    7  C13 UNL     1      20.975   2.929  51.045  1.00  0.00     0.153 C 
HETATM    8  N1  UNL     1      22.107   3.832  51.103  1.00  0.00    -0.354 N 
ENDROOT
BRANCH   8   9
HETATM    9  C14 UNL     1      22.530   4.594  49.987  1.00  0.00     0.139 C 
HETATM   10  N2  UNL     1      23.605   4.661  49.229  1.00  0.00    -0.224 NA
HETATM   11  C15 UNL     1      23.698   5.599  48.133  1.00  0.00     0.231 C 
HETATM   12  N3  UNL     1      22.747   5.006  47.564  1.00  0.00    -0.257 NA
HETATM   13  C16 UNL     1      22.194   5.374  46.312  1.00  0.00     0.323 C 
HETATM   14  O2  UNL     1      21.179   4.417  46.076  1.00  0.00    -0.341 OA
HETATM   15  P1  UNL     1      20.035   4.405  47.347  1.00  0.00     0.049 P 
HETATM   16  C17 UNL     1      20.455   5.602  48.644  1.00  0.00     0.009 A 
HETATM   17  H18 UNL     1      18.723   4.693  46.817  1.00  0.00     0.093 HD
HETATM   18  C18 UNL     1      19.687   6.746  48.735  1.00  0.00     0.044 A 
HETATM   19  C22 UNL     1      21.440   5.540  49.623  1.00  0.00     0.023 A 
HETATM   20  C19 UNL     1      19.754   7.806  49.633  1.00  0.00     0.026 A 
HETATM   21  C20 UNL     1      20.744   7.699  50.589  1.00  0.00     0.030 A 
HETATM   22  C21 UNL     1      21.560   6.555  50.547  1.00  0.00     0.018 A 
BRANCH  20  23
HETATM   23  N4  UNL     1      18.885   8.900  49.581  1.00  0.00    -0.399 N 
HETATM   24  H20 UNL     1      18.098   8.963  50.277  1.00  0.00     0.156 HD
HETATM   25  H21 UNL     1      19.030   9.625  48.862  1.00  0.00     0.156 HD
ENDBRANCH  20  23
ENDBRANCH   8   9
BRANCH   3  26
HETATM   26  O1  UNL     1      24.340   2.100  51.984  1.00  0.00    -0.374 OA
BRANCH  26  27
HETATM   27  C4  UNL     1      24.790   0.819  52.063  1.00  0.00     0.207 C 
BRANCH  27  28
HETATM   28  C5  UNL     1      26.158   0.622  52.544  1.00  0.00    -0.032 A 
HETATM   29  C6  UNL     1      26.872  -0.539  52.741  1.00  0.00     0.009 A 
HETATM   30  C7  UNL     1      28.171  -0.551  53.194  1.00  0.00     0.004 A 
HETATM   31  C8  UNL     1      28.848   0.608  53.487  1.00  0.00     0.042 A 
HETATM   32  C9  UNL     1      28.192   1.805  53.311  1.00  0.00     0.117 A 
HETATM   33  F1  UNL     1      28.820   2.955  53.585  1.00  0.00    -0.206 F 
HETATM   34  C10 UNL     1      26.893   1.777  52.855  1.00  0.00     0.051 A 
ENDBRANCH  27  28
ENDBRANCH  26  27
ENDBRANCH   3  26
TORSDOF 5
ENDMDL
MODEL 8
REMARK VINA RESULT:      -7.7      2.881      4.160
REMARK  5 active torsions:
REMARK  status: ('A' for Active; 'I' for Inactive)
REMARK    1  A    between atoms: C3_3  and  O1_4 
REMARK    2  A    between atoms: O1_4  and  C4_5 
REMARK    3  A    between atoms: C4_5  and  C5_6 
REMARK    4  A    between atoms: N1_17  and  C14_18 
REMARK    5  A    between atoms: C19_27  and  N4_28 
ROOT
HETATM    1  C1  UNL     1      24.993   3.854  49.303  1.00  0.00     0.035 C 
HETATM    2  C2  UNL     1      24.759   4.148  50.751  1.00  0.00     0.116 C 
HETATM    3  C3  UNL     1      24.890   2.866  51.544  1.00  0.00     0.188 C 
HETATM    4  C11 UNL     1      24.770   3.183  53.018  1.00  0.00     0.040 C 
HETATM    5 CL1  UNL     1      25.460   2.236  54.312  1.00  0.00    -0.086 Cl
HETATM    6  C12 UNL     1      24.083   4.270  53.327  1.00  0.00     0.015 C 
HETATM    7  C13 UNL     1      23.403   5.233  52.401  1.00  0.00     0.153 C 
HETATM    8  N1  UNL     1      23.501   4.820  51.016  1.00  0.00    -0.354 N 
ENDROOT
BRANCH   8   9
HETATM    9  C14 UNL     1      22.467   5.057  50.077  1.00  0.00     0.139 C 
HETATM   10  N2  UNL     1      22.191   5.973  49.171  1.00  0.00    -0.224 NA
HETATM   11  C15 UNL     1      20.997   5.897  48.360  1.00  0.00     0.231 C 
HETATM   12  N3  UNL     1      21.431   4.834  47.849  1.00  0.00    -0.257 NA
HETATM   13  C16 UNL     1      20.753   4.071  46.865  1.00  0.00     0.323 C 
HETATM   14  O2  UNL     1      21.625   2.993  46.586  1.00  0.00    -0.341 OA
HETATM   15  P1  UNL     1      21.984   2.107  48.004  1.00  0.00     0.049 P 
HETATM   16  C17 UNL     1      21.165   2.809  49.464  1.00  0.00     0.009 A 
HETATM   17  H18 UNL     1      21.582   0.731  47.828  1.00  0.00     0.093 HD
HETATM   18  C18 UNL     1      20.094   2.117  49.993  1.00  0.00     0.044 A 
HETATM   19  C22 UNL     1      21.471   3.956  50.186  1.00  0.00     0.023 A 
HETATM   20  C19 UNL     1      19.307   2.393  51.107  1.00  0.00     0.026 A 
HETATM   21  C20 UNL     1      19.650   3.539  51.794  1.00  0.00     0.030 A 
HETATM   22  C21 UNL     1      20.734   4.287  51.302  1.00  0.00     0.018 A 
BRANCH  20  23
HETATM   23  N4  UNL     1      18.247   1.574  51.508  1.00  0.00    -0.399 N 
HETATM   24  H20 UNL     1      18.197   1.255  52.510  1.00  0.00     0.156 HD
HETATM   25  H21 UNL     1      17.536   1.295  50.816  1.00  0.00     0.156 HD
ENDBRANCH  20  23
ENDBRANCH   8   9
BRANCH   3  26
HETATM   26  O1  UNL     1      23.994   1.907  51.186  1.00  0.00    -0.374 OA
BRANCH  26  27
HETATM   27  C4  UNL     1      24.081   0.682  51.772  1.00  0.00     0.207 C 
BRANCH  27  28
HETATM   28  C5  UNL     1      23.072   0.350  52.777  1.00  0.00    -0.032 A 
HETATM   29  C6  UNL     1      21.798   0.843  52.954  1.00  0.00     0.009 A 
HETATM   30  C7  UNL     1      20.961   0.411  53.957  1.00  0.00     0.004 A 
HETATM   31  C8  UNL     1      21.346  -0.550  54.860  1.00  0.00     0.042 A 
HETATM   32  C9  UNL     1      22.609  -1.086  54.740  1.00  0.00     0.117 A 
HETATM   33  F1  UNL     1      23.019  -2.024  55.601  1.00  0.00    -0.206 F 
HETATM   34  C10 UNL     1      23.418  -0.628  53.723  1.00  0.00     0.051 A 
ENDBRANCH  27  28
ENDBRANCH  26  27
ENDBRANCH   3  26
TORSDOF 5
ENDMDL
MODEL 9
REMARK VINA RESULT:      -7.5      4.691      6.786
REMARK  5 active torsions:
REMARK  status: ('A' for Active; 'I' for Inactive)
REMARK    1  A    between atoms: C3_3  and  O1_4 
REMARK    2  A    between atoms: O1_4  and  C4_5 
REMARK    3  A    between atoms: C4_5  and  C5_6 
REMARK    4  A    between atoms: N1_17  and  C14_18 
REMARK    5  A    between atoms: C19_27  and  N4_28 
ROOT
HETATM    1  C1  UNL     1      20.868   5.448  46.972  1.00  0.00     0.035 C 
HETATM    2  C2  UNL     1      21.095   6.630  47.861  1.00  0.00     0.116 C 
HETATM    3  C3  UNL     1      22.533   7.082  47.725  1.00  0.00     0.188 C 
HETATM    4  C11 UNL     1      22.732   8.347  48.531  1.00  0.00     0.040 C 
HETATM    5 CL1  UNL     1      23.939   9.567  48.212  1.00  0.00    -0.086 Cl
HETATM    6  C12 UNL     1      21.912   8.520  49.554  1.00  0.00     0.015 C 
HETATM    7  C13 UNL     1      20.807   7.622  50.022  1.00  0.00     0.153 C 
HETATM    8  N1  UNL     1      20.730   6.401  49.245  1.00  0.00    -0.354 N 
ENDROOT
BRANCH   8   9
HETATM    9  C14 UNL     1      20.351   5.160  49.814  1.00  0.00     0.139 C 
HETATM   10  N2  UNL     1      19.232   4.483  49.966  1.00  0.00    -0.224 NA
HETATM   11  C15 UNL     1      19.212   3.196  50.625  1.00  0.00     0.231 C 
HETATM   12  N3  UNL     1      19.933   2.731  49.706  1.00  0.00    -0.257 NA
HETATM   13  C16 UNL     1      20.394   1.393  49.635  1.00  0.00     0.323 C 
HETATM   14  O2  UNL     1      21.138   1.336  48.432  1.00  0.00    -0.341 OA
HETATM   15  P1  UNL     1      22.399   2.492  48.431  1.00  0.00     0.049 P 
HETATM   16  C17 UNL     1      22.415   3.474  49.957  1.00  0.00     0.009 A 
HETATM   17  H18 UNL     1      23.667   1.821  48.264  1.00  0.00     0.093 HD
HETATM   18  C18 UNL     1      23.421   3.226  50.870  1.00  0.00     0.044 A 
HETATM   19  C22 UNL     1      21.569   4.501  50.359  1.00  0.00     0.023 A 
HETATM   20  C19 UNL     1      23.698   3.834  52.090  1.00  0.00     0.026 A 
HETATM   21  C20 UNL     1      22.834   4.849  52.445  1.00  0.00     0.030 A 
HETATM   22  C21 UNL     1      21.788   5.148  51.556  1.00  0.00     0.018 A 
BRANCH  20  23
HETATM   23  N4  UNL     1      24.773   3.453  52.900  1.00  0.00    -0.399 N 
HETATM   24  H20 UNL     1      25.715   3.290  52.458  1.00  0.00     0.156 HD
HETATM   25  H21 UNL     1      24.624   3.338  53.913  1.00  0.00     0.156 HD
ENDBRANCH  20  23
ENDBRANCH   8   9
BRANCH   3  26
HETATM   26  O1  UNL     1      23.441   6.136  48.087  1.00  0.00    -0.374 OA
BRANCH  26  27
HETATM   27  C4  UNL     1      24.333   6.431  49.070  1.00  0.00     0.207 C 
BRANCH  27  28
HETATM   28  C5  UNL     1      25.722   6.023  48.855  1.00  0.00    -0.032 A 
HETATM   29  C6  UNL     1      26.338   4.813  49.083  1.00  0.00     0.009 A 
HETATM   30  C7  UNL     1      27.668   4.588  48.813  1.00  0.00     0.004 A 
HETATM   31  C8  UNL     1      28.480   5.569  48.296  1.00  0.00     0.042 A 
HETATM   32  C9  UNL     1      27.926   6.804  48.044  1.00  0.00     0.117 A 
HETATM   33  F1  UNL     1      28.686   7.783  47.540  1.00  0.00    -0.206 F 
HETATM   34  C10 UNL     1      26.591   6.991  48.326  1.00  0.00     0.051 A 
ENDBRANCH  27  28
ENDBRANCH  26  27
ENDBRANCH   3  26
TORSDOF 5
ENDMDL
