MODEL 1
REMARK VINA RESULT:      -7.7      0.000      0.000
REMARK  4 active torsions:
REMARK  status: ('A' for Active; 'I' for Inactive)
REMARK    1  A    between atoms: O1_2  and  C2_3 
REMARK    2  A    between atoms: C6_9  and  N3_10 
REMARK    3  A    between atoms: N3_10  and  C7_11 
REMARK    4  A    between atoms: C15_19  and  O2_20 
ROOT
HETATM    1  C2  UNL     1      19.993  -0.247  52.704  1.00  0.00     0.103 A 
HETATM    2  C3  UNL     1      20.463  -0.818  53.871  1.00  0.00     0.072 A 
HETATM    3  C4  UNL     1      21.803  -0.855  54.175  1.00  0.00     0.075 A 
HETATM    4  N1  UNL     1      22.272  -1.416  55.324  1.00  0.00    -0.241 NA
HETATM    5  C5  UNL     1      23.600  -1.444  55.607  1.00  0.00     0.236 A 
HETATM    6  N2  UNL     1      24.466  -0.891  54.706  1.00  0.00    -0.224 NA
HETATM    7  C6  UNL     1      24.007  -0.336  53.570  1.00  0.00     0.142 A 
HETATM    8  C13 UNL     1      22.667  -0.293  53.255  1.00  0.00     0.042 A 
HETATM    9  C14 UNL     1      22.233   0.284  52.083  1.00  0.00     0.057 A 
HETATM   10  C15 UNL     1      20.886   0.316  51.788  1.00  0.00     0.102 A 
ENDROOT
BRANCH   7  11
HETATM   11  N3  UNL     1      25.003   0.203  52.718  1.00  0.00    -0.340 N 
HETATM   12  H6  UNL     1      24.952   0.590  51.753  1.00  0.00     0.167 HD
BRANCH  11  13
HETATM   13  C7  UNL     1      26.354   0.277  53.154  1.00  0.00     0.030 A 
HETATM   14  C8  UNL     1      26.961   1.284  53.804  1.00  0.00     0.007 A 
HETATM   15  C9  UNL     1      28.379   1.021  54.101  1.00  0.00     0.063 A 
HETATM   16  C10 UNL     1      28.549  -0.345  53.514  1.00  0.00    -0.078 A 
HETATM   17  C11 UNL     1      29.802  -1.160  53.504  1.00  0.00     0.044 C 
HETATM   18  C12 UNL     1      27.405  -0.733  52.993  1.00  0.00     0.032 A 
ENDBRANCH  11  13
ENDBRANCH   7  11
BRANCH  10  19
HETATM   19  O2  UNL     1      20.422   0.891  50.615  1.00  0.00    -0.353 OA
HETATM   20  C16 UNL     1      21.330   1.027  49.548  1.00  0.00     0.210 C 
ENDBRANCH  10  19
BRANCH   1  21
HETATM   21  O1  UNL     1      18.640  -0.205  52.390  1.00  0.00    -0.353 OA
HETATM   22  C1  UNL     1      17.791  -1.192  52.942  1.00  0.00     0.210 C 
ENDBRANCH   1  21
TORSDOF 4
ENDMDL
MODEL 2
REMARK VINA RESULT:      -7.5      3.251      7.117
REMARK  4 active torsions:
REMARK  status: ('A' for Active; 'I' for Inactive)
REMARK    1  A    between atoms: O1_2  and  C2_3 
REMARK    2  A    between atoms: C6_9  and  N3_10 
REMARK    3  A    between atoms: N3_10  and  C7_11 
REMARK    4  A    between atoms: C15_19  and  O2_20 
ROOT
HETATM    1  C2  UNL     1      27.506   0.273  53.895  1.00  0.00     0.103 A 
HETATM    2  C3  UNL     1      27.801   1.071  52.808  1.00  0.00     0.072 A 
HETATM    3  C4  UNL     1      26.858   1.881  52.220  1.00  0.00     0.075 A 
HETATM    4  N1  UNL     1      27.144   2.671  51.149  1.00  0.00    -0.241 NA
HETATM    5  C5  UNL     1      26.197   3.464  50.582  1.00  0.00     0.236 A 
HETATM    6  N2  UNL     1      24.939   3.452  51.114  1.00  0.00    -0.224 NA
HETATM    7  C6  UNL     1      24.653   2.674  52.173  1.00  0.00     0.142 A 
HETATM    8  C13 UNL     1      25.590   1.860  52.769  1.00  0.00     0.042 A 
HETATM    9  C14 UNL     1      25.261   1.075  53.851  1.00  0.00     0.057 A 
HETATM   10  C15 UNL     1      26.216   0.268  54.433  1.00  0.00     0.102 A 
ENDROOT
BRANCH   7  11
HETATM   11  N3  UNL     1      23.314   2.750  52.632  1.00  0.00    -0.340 N 
HETATM   12  H6  UNL     1      22.845   3.409  53.288  1.00  0.00     0.167 HD
BRANCH  11  13
HETATM   13  C7  UNL     1      22.348   1.810  52.182  1.00  0.00     0.030 A 
HETATM   14  C8  UNL     1      22.218   1.279  50.954  1.00  0.00     0.007 A 
HETATM   15  C9  UNL     1      21.096   0.331  50.841  1.00  0.00     0.063 A 
HETATM   16  C10 UNL     1      20.546   0.366  52.233  1.00  0.00    -0.078 A 
HETATM   17  C11 UNL     1      19.373  -0.405  52.747  1.00  0.00     0.044 C 
HETATM   18  C12 UNL     1      21.262   1.199  52.956  1.00  0.00     0.032 A 
ENDBRANCH  11  13
ENDBRANCH   7  11
BRANCH  10  19
HETATM   19  O2  UNL     1      25.912  -0.532  55.525  1.00  0.00    -0.353 OA
HETATM   20  C16 UNL     1      24.660  -1.177  55.536  1.00  0.00     0.210 C 
ENDBRANCH  10  19
BRANCH   1  21
HETATM   21  O1  UNL     1      28.455  -0.547  54.494  1.00  0.00    -0.353 OA
HETATM   22  C1  UNL     1      29.636  -0.844  53.776  1.00  0.00     0.210 C 
ENDBRANCH   1  21
TORSDOF 4
ENDMDL
MODEL 3
REMARK VINA RESULT:      -7.5      2.406      4.024
REMARK  4 active torsions:
REMARK  status: ('A' for Active; 'I' for Inactive)
REMARK    1  A    between atoms: O1_2  and  C2_3 
REMARK    2  A    between atoms: C6_9  and  N3_10 
REMARK    3  A    between atoms: N3_10  and  C7_11 
REMARK    4  A    between atoms: C15_19  and  O2_20 
ROOT
HETATM    1  C2  UNL     1      22.225   1.459  51.578  1.00  0.00     0.103 A 
HETATM    2  C3  UNL     1      22.985   2.059  50.594  1.00  0.00     0.072 A 
HETATM    3  C4  UNL     1      24.319   2.340  50.774  1.00  0.00     0.075 A 
HETATM    4  N1  UNL     1      25.074   2.931  49.807  1.00  0.00    -0.241 NA
HETATM    5  C5  UNL     1      26.391   3.201  50.004  1.00  0.00     0.236 A 
HETATM    6  N2  UNL     1      26.949   2.864  51.205  1.00  0.00    -0.224 NA
HETATM    7  C6  UNL     1      26.206   2.279  52.162  1.00  0.00     0.142 A 
HETATM    8  C13 UNL     1      24.870   1.993  51.993  1.00  0.00     0.042 A 
HETATM    9  C14 UNL     1      24.141   1.394  52.995  1.00  0.00     0.057 A 
HETATM   10  C15 UNL     1      22.804   1.116  52.803  1.00  0.00     0.102 A 
ENDROOT
BRANCH   7  11
HETATM   11  N3  UNL     1      26.900   1.978  53.362  1.00  0.00    -0.340 N 
HETATM   12  H6  UNL     1      26.862   2.410  54.308  1.00  0.00     0.167 HD
BRANCH  11  13
HETATM   13  C7  UNL     1      27.842   0.915  53.397  1.00  0.00     0.030 A 
HETATM   14  C8  UNL     1      29.155   0.979  53.675  1.00  0.00     0.007 A 
HETATM   15  C9  UNL     1      29.832  -0.327  53.618  1.00  0.00     0.063 A 
HETATM   16  C10 UNL     1      28.693  -1.228  53.252  1.00  0.00    -0.078 A 
HETATM   17  C11 UNL     1      28.758  -2.706  53.045  1.00  0.00     0.044 C 
HETATM   18  C12 UNL     1      27.598  -0.508  53.135  1.00  0.00     0.032 A 
ENDBRANCH  11  13
ENDBRANCH   7  11
BRANCH  10  19
HETATM   19  O2  UNL     1      22.046   0.513  53.796  1.00  0.00    -0.353 OA
HETATM   20  C16 UNL     1      22.355  -0.817  54.139  1.00  0.00     0.210 C 
ENDBRANCH  10  19
BRANCH   1  21
HETATM   21  O1  UNL     1      20.876   1.171  51.402  1.00  0.00    -0.353 OA
HETATM   22  C1  UNL     1      20.329   1.284  50.104  1.00  0.00     0.210 C 
ENDBRANCH   1  21
TORSDOF 4
ENDMDL
MODEL 4
REMARK VINA RESULT:      -7.4      3.112      7.137
REMARK  4 active torsions:
REMARK  status: ('A' for Active; 'I' for Inactive)
REMARK    1  A    between atoms: O1_2  and  C2_3 
REMARK    2  A    between atoms: C6_9  and  N3_10 
REMARK    3  A    between atoms: N3_10  and  C7_11 
REMARK    4  A    between atoms: C15_19  and  O2_20 
ROOT
HETATM    1  C2  UNL     1      26.426   1.076  54.042  1.00  0.00     0.103 A 
HETATM    2  C3  UNL     1      25.872   2.330  53.880  1.00  0.00     0.072 A 
HETATM    3  C4  UNL     1      24.687   2.522  53.209  1.00  0.00     0.075 A 
HETATM    4  N1  UNL     1      24.136   3.757  53.047  1.00  0.00    -0.241 NA
HETATM    5  C5  UNL     1      22.965   3.927  52.380  1.00  0.00     0.236 A 
HETATM    6  N2  UNL     1      22.344   2.822  51.871  1.00  0.00    -0.224 NA
HETATM    7  C6  UNL     1      22.884   1.600  52.029  1.00  0.00     0.142 A 
HETATM    8  C13 UNL     1      24.070   1.397  52.699  1.00  0.00     0.042 A 
HETATM    9  C14 UNL     1      24.594   0.131  52.842  1.00  0.00     0.057 A 
HETATM   10  C15 UNL     1      25.783  -0.050  53.518  1.00  0.00     0.102 A 
ENDROOT
BRANCH   7  11
HETATM   11  N3  UNL     1      22.145   0.535  51.455  1.00  0.00    -0.340 N 
HETATM   12  H6  UNL     1      22.346  -0.088  50.646  1.00  0.00     0.167 HD
BRANCH  11  13
HETATM   13  C7  UNL     1      20.887   0.162  52.001  1.00  0.00     0.030 A 
HETATM   14  C8  UNL     1      20.637  -0.423  53.184  1.00  0.00     0.007 A 
HETATM   15  C9  UNL     1      19.206  -0.670  53.427  1.00  0.00     0.063 A 
HETATM   16  C10 UNL     1      18.602  -0.127  52.169  1.00  0.00    -0.078 A 
HETATM   17  C11 UNL     1      17.149  -0.095  51.821  1.00  0.00     0.044 C 
HETATM   18  C12 UNL     1      19.562   0.329  51.394  1.00  0.00     0.032 A 
ENDBRANCH  11  13
ENDBRANCH   7  11
BRANCH  10  19
HETATM   19  O2  UNL     1      26.333  -1.312  53.676  1.00  0.00    -0.353 OA
HETATM   20  C16 UNL     1      27.007  -1.876  52.576  1.00  0.00     0.210 C 
ENDBRANCH  10  19
BRANCH   1  21
HETATM   21  O1  UNL     1      27.622   0.874  54.720  1.00  0.00    -0.353 OA
HETATM   22  C1  UNL     1      28.813   1.375  54.145  1.00  0.00     0.210 C 
ENDBRANCH   1  21
TORSDOF 4
ENDMDL
MODEL 5
REMARK VINA RESULT:      -7.3      4.540      6.210
REMARK  4 active torsions:
REMARK  status: ('A' for Active; 'I' for Inactive)
REMARK    1  A    between atoms: O1_2  and  C2_3 
REMARK    2  A    between atoms: C6_9  and  N3_10 
REMARK    3  A    between atoms: N3_10  and  C7_11 
REMARK    4  A    between atoms: C15_19  and  O2_20 
ROOT
HETATM    1  C2  UNL     1      25.104   0.137  53.713  1.00  0.00     0.103 A 
HETATM    2  C3  UNL     1      24.002   0.058  52.884  1.00  0.00     0.072 A 
HETATM    3  C4  UNL     1      23.614   1.109  52.086  1.00  0.00     0.075 A 
HETATM    4  N1  UNL     1      22.530   1.037  51.266  1.00  0.00    -0.241 NA
HETATM    5  C5  UNL     1      22.161   2.086  50.486  1.00  0.00     0.236 A 
HETATM    6  N2  UNL     1      22.910   3.227  50.540  1.00  0.00    -0.224 NA
HETATM    7  C6  UNL     1      23.983   3.302  51.348  1.00  0.00     0.142 A 
HETATM    8  C13 UNL     1      24.381   2.257  52.151  1.00  0.00     0.042 A 
HETATM    9  C14 UNL     1      25.484   2.370  52.966  1.00  0.00     0.057 A 
HETATM   10  C15 UNL     1      25.865   1.309  53.761  1.00  0.00     0.102 A 
ENDROOT
BRANCH   7  11
HETATM   11  N3  UNL     1      24.677   4.538  51.315  1.00  0.00    -0.340 N 
HETATM   12  H6  UNL     1      24.632   5.373  51.935  1.00  0.00     0.167 HD
BRANCH  11  13
HETATM   13  C7  UNL     1      25.631   4.797  50.293  1.00  0.00     0.030 A 
HETATM   14  C8  UNL     1      26.529   3.948  49.764  1.00  0.00     0.007 A 
HETATM   15  C9  UNL     1      27.366   4.558  48.717  1.00  0.00     0.063 A 
HETATM   16  C10 UNL     1      26.823   5.953  48.688  1.00  0.00    -0.078 A 
HETATM   17  C11 UNL     1      27.281   7.069  47.806  1.00  0.00     0.044 C 
HETATM   18  C12 UNL     1      25.858   6.056  49.576  1.00  0.00     0.032 A 
ENDBRANCH  11  13
ENDBRANCH   7  11
BRANCH  10  19
HETATM   19  O2  UNL     1      26.972   1.395  54.591  1.00  0.00    -0.353 OA
HETATM   20  C16 UNL     1      28.245   1.391  53.989  1.00  0.00     0.210 C 
ENDBRANCH  10  19
BRANCH   1  21
HETATM   21  O1  UNL     1      25.503  -0.921  54.521  1.00  0.00    -0.353 OA
HETATM   22  C1  UNL     1      24.703  -1.250  55.640  1.00  0.00     0.210 C 
ENDBRANCH   1  21
TORSDOF 4
ENDMDL
MODEL 6
REMARK VINA RESULT:      -7.3      3.886      6.291
REMARK  4 active torsions:
REMARK  status: ('A' for Active; 'I' for Inactive)
REMARK    1  A    between atoms: O1_2  and  C2_3 
REMARK    2  A    between atoms: C6_9  and  N3_10 
REMARK    3  A    between atoms: N3_10  and  C7_11 
REMARK    4  A    between atoms: C15_19  and  O2_20 
ROOT
HETATM    1  C2  UNL     1      26.665   0.149  54.244  1.00  0.00     0.103 A 
HETATM    2  C3  UNL     1      25.556  -0.620  53.953  1.00  0.00     0.072 A 
HETATM    3  C4  UNL     1      24.408  -0.075  53.427  1.00  0.00     0.075 A 
HETATM    4  N1  UNL     1      23.312  -0.829  53.138  1.00  0.00    -0.241 NA
HETATM    5  C5  UNL     1      22.187  -0.272  52.619  1.00  0.00     0.236 A 
HETATM    6  N2  UNL     1      22.178   1.075  52.390  1.00  0.00    -0.224 NA
HETATM    7  C6  UNL     1      23.259   1.824  52.673  1.00  0.00     0.142 A 
HETATM    8  C13 UNL     1      24.413   1.288  53.200  1.00  0.00     0.042 A 
HETATM    9  C14 UNL     1      25.500   2.085  53.479  1.00  0.00     0.057 A 
HETATM   10  C15 UNL     1      26.646   1.527  54.006  1.00  0.00     0.102 A 
ENDROOT
BRANCH   7  11
HETATM   11  N3  UNL     1      23.125   3.206  52.391  1.00  0.00    -0.340 N 
HETATM   12  H6  UNL     1      22.732   3.991  52.951  1.00  0.00     0.167 HD
BRANCH  11  13
HETATM   13  C7  UNL     1      23.573   3.730  51.148  1.00  0.00     0.030 A 
HETATM   14  C8  UNL     1      22.881   3.857  50.004  1.00  0.00     0.007 A 
HETATM   15  C9  UNL     1      23.666   4.444  48.904  1.00  0.00     0.063 A 
HETATM   16  C10 UNL     1      24.986   4.663  49.577  1.00  0.00    -0.078 A 
HETATM   17  C11 UNL     1      26.215   5.245  48.957  1.00  0.00     0.044 C 
HETATM   18  C12 UNL     1      24.904   4.255  50.824  1.00  0.00     0.032 A 
ENDBRANCH  11  13
ENDBRANCH   7  11
BRANCH  10  19
HETATM   19  O2  UNL     1      27.756   2.306  54.295  1.00  0.00    -0.353 OA
HETATM   20  C16 UNL     1      28.670   2.557  53.254  1.00  0.00     0.210 C 
ENDBRANCH  10  19
BRANCH   1  21
HETATM   21  O1  UNL     1      27.828  -0.395  54.775  1.00  0.00    -0.353 OA
HETATM   22  C1  UNL     1      28.792  -0.920  53.883  1.00  0.00     0.210 C 
ENDBRANCH   1  21
TORSDOF 4
ENDMDL
MODEL 7
REMARK VINA RESULT:      -7.2      1.635      2.454
REMARK  4 active torsions:
REMARK  status: ('A' for Active; 'I' for Inactive)
REMARK    1  A    between atoms: O1_2  and  C2_3 
REMARK    2  A    between atoms: C6_9  and  N3_10 
REMARK    3  A    between atoms: N3_10  and  C7_11 
REMARK    4  A    between atoms: C15_19  and  O2_20 
ROOT
HETATM    1  C2  UNL     1      21.401   1.106  50.422  1.00  0.00     0.103 A 
HETATM    2  C3  UNL     1      21.009   0.242  51.424  1.00  0.00     0.072 A 
HETATM    3  C4  UNL     1      21.840  -0.090  52.468  1.00  0.00     0.075 A 
HETATM    4  N1  UNL     1      21.458  -0.942  53.460  1.00  0.00    -0.241 NA
HETATM    5  C5  UNL     1      22.295  -1.258  54.482  1.00  0.00     0.236 A 
HETATM    6  N2  UNL     1      23.541  -0.698  54.496  1.00  0.00    -0.224 NA
HETATM    7  C6  UNL     1      23.922   0.144  53.519  1.00  0.00     0.142 A 
HETATM    8  C13 UNL     1      23.097   0.483  52.470  1.00  0.00     0.042 A 
HETATM    9  C14 UNL     1      23.522   1.348  51.486  1.00  0.00     0.057 A 
HETATM   10  C15 UNL     1      22.679   1.675  50.445  1.00  0.00     0.102 A 
ENDROOT
BRANCH   7  11
HETATM   11  N3  UNL     1      25.237   0.658  53.646  1.00  0.00    -0.340 N 
HETATM   12  H6  UNL     1      25.587   1.602  53.910  1.00  0.00     0.167 HD
BRANCH  11  13
HETATM   13  C7  UNL     1      26.359  -0.177  53.393  1.00  0.00     0.030 A 
HETATM   14  C8  UNL     1      26.395  -1.334  52.710  1.00  0.00     0.007 A 
HETATM   15  C9  UNL     1      27.737  -1.936  52.646  1.00  0.00     0.063 A 
HETATM   16  C10 UNL     1      28.540  -0.937  53.419  1.00  0.00    -0.078 A 
HETATM   17  C11 UNL     1      30.006  -1.001  53.703  1.00  0.00     0.044 C 
HETATM   18  C12 UNL     1      27.746   0.031  53.823  1.00  0.00     0.032 A 
ENDBRANCH  11  13
ENDBRANCH   7  11
BRANCH  10  19
HETATM   19  O2  UNL     1      23.080   2.544  49.442  1.00  0.00    -0.353 OA
HETATM   20  C16 UNL     1      23.073   3.922  49.727  1.00  0.00     0.210 C 
ENDBRANCH  10  19
BRANCH   1  21
HETATM   21  O1  UNL     1      20.566   1.447  49.365  1.00  0.00    -0.353 OA
HETATM   22  C1  UNL     1      19.431   2.245  49.637  1.00  0.00     0.210 C 
ENDBRANCH   1  21
TORSDOF 4
ENDMDL
MODEL 8
REMARK VINA RESULT:      -7.2      3.026      6.292
REMARK  4 active torsions:
REMARK  status: ('A' for Active; 'I' for Inactive)
REMARK    1  A    between atoms: O1_2  and  C2_3 
REMARK    2  A    between atoms: C6_9  and  N3_10 
REMARK    3  A    between atoms: N3_10  and  C7_11 
REMARK    4  A    between atoms: C15_19  and  O2_20 
ROOT
HETATM    1  C2  UNL     1      26.769   0.177  53.239  1.00  0.00     0.103 A 
HETATM    2  C3  UNL     1      25.877  -0.578  53.974  1.00  0.00     0.072 A 
HETATM    3  C4  UNL     1      24.523  -0.340  53.944  1.00  0.00     0.075 A 
HETATM    4  N1  UNL     1      23.639  -1.082  54.667  1.00  0.00    -0.241 NA
HETATM    5  C5  UNL     1      22.304  -0.832  54.624  1.00  0.00     0.236 A 
HETATM    6  N2  UNL     1      21.862   0.191  53.833  1.00  0.00    -0.224 NA
HETATM    7  C6  UNL     1      22.732   0.925  53.117  1.00  0.00     0.142 A 
HETATM    8  C13 UNL     1      24.090   0.696  53.140  1.00  0.00     0.042 A 
HETATM    9  C14 UNL     1      24.951   1.469  52.394  1.00  0.00     0.057 A 
HETATM   10  C15 UNL     1      26.307   1.221  52.431  1.00  0.00     0.102 A 
ENDROOT
BRANCH   7  11
HETATM   11  N3  UNL     1      22.150   1.956  52.337  1.00  0.00    -0.340 N 
HETATM   12  H6  UNL     1      21.807   2.905  52.591  1.00  0.00     0.167 HD
BRANCH  11  13
HETATM   13  C7  UNL     1      21.952   1.772  50.941  1.00  0.00     0.030 A 
HETATM   14  C8  UNL     1      21.363   0.738  50.317  1.00  0.00     0.007 A 
HETATM   15  C9  UNL     1      21.331   0.878  48.851  1.00  0.00     0.063 A 
HETATM   16  C10 UNL     1      22.013   2.199  48.672  1.00  0.00    -0.078 A 
HETATM   17  C11 UNL     1      22.285   2.892  47.376  1.00  0.00     0.044 C 
HETATM   18  C12 UNL     1      22.348   2.672  49.853  1.00  0.00     0.032 A 
ENDBRANCH  11  13
ENDBRANCH   7  11
BRANCH  10  19
HETATM   19  O2  UNL     1      27.197   1.984  51.690  1.00  0.00    -0.353 OA
HETATM   20  C16 UNL     1      26.662   2.932  50.798  1.00  0.00     0.210 C 
ENDBRANCH  10  19
BRANCH   1  21
HETATM   21  O1  UNL     1      28.139  -0.058  53.264  1.00  0.00    -0.353 OA
HETATM   22  C1  UNL     1      28.823   0.086  54.493  1.00  0.00     0.210 C 
ENDBRANCH   1  21
TORSDOF 4
ENDMDL
MODEL 9
REMARK VINA RESULT:      -7.1      4.100      5.162
REMARK  4 active torsions:
REMARK  status: ('A' for Active; 'I' for Inactive)
REMARK    1  A    between atoms: O1_2  and  C2_3 
REMARK    2  A    between atoms: C6_9  and  N3_10 
REMARK    3  A    between atoms: N3_10  and  C7_11 
REMARK    4  A    between atoms: C15_19  and  O2_20 
ROOT
HETATM    1  C2  UNL     1      22.689   1.015  52.814  1.00  0.00     0.103 A 
HETATM    2  C3  UNL     1      23.887   1.113  53.492  1.00  0.00     0.072 A 
HETATM    3  C4  UNL     1      25.026   1.598  52.893  1.00  0.00     0.075 A 
HETATM    4  N1  UNL     1      26.210   1.698  53.557  1.00  0.00    -0.241 NA
HETATM    5  C5  UNL     1      27.325   2.180  52.948  1.00  0.00     0.236 A 
HETATM    6  N2  UNL     1      27.232   2.567  51.641  1.00  0.00    -0.224 NA
HETATM    7  C6  UNL     1      26.064   2.471  50.982  1.00  0.00     0.142 A 
HETATM    8  C13 UNL     1      24.918   1.986  51.572  1.00  0.00     0.042 A 
HETATM    9  C14 UNL     1      23.739   1.902  50.865  1.00  0.00     0.057 A 
HETATM   10  C15 UNL     1      22.603   1.414  51.476  1.00  0.00     0.102 A 
ENDROOT
BRANCH   7  11
HETATM   11  N3  UNL     1      26.097   2.904  49.632  1.00  0.00    -0.340 N 
HETATM   12  H6  UNL     1      25.894   2.405  48.741  1.00  0.00     0.167 HD
BRANCH  11  13
HETATM   13  C7  UNL     1      26.458   4.242  49.319  1.00  0.00     0.030 A 
HETATM   14  C8  UNL     1      25.772   5.369  49.578  1.00  0.00     0.007 A 
HETATM   15  C9  UNL     1      26.449   6.589  49.107  1.00  0.00     0.063 A 
HETATM   16  C10 UNL     1      27.693   6.016  48.503  1.00  0.00    -0.078 A 
HETATM   17  C11 UNL     1      28.798   6.779  47.848  1.00  0.00     0.044 C 
HETATM   18  C12 UNL     1      27.670   4.707  48.635  1.00  0.00     0.032 A 
ENDBRANCH  11  13
ENDBRANCH   7  11
BRANCH  10  19
HETATM   19  O2  UNL     1      21.403   1.318  50.789  1.00  0.00    -0.353 OA
HETATM   20  C16 UNL     1      21.450   0.914  49.441  1.00  0.00     0.210 C 
ENDBRANCH  10  19
BRANCH   1  21
HETATM   21  O1  UNL     1      21.534   0.526  53.413  1.00  0.00    -0.353 OA
HETATM   22  C1  UNL     1      21.641  -0.604  54.257  1.00  0.00     0.210 C 
ENDBRANCH   1  21
TORSDOF 4
ENDMDL
