MODEL 1
REMARK VINA RESULT:      -9.1      0.000      0.000
REMARK  4 active torsions:
REMARK  status: ('A' for Active; 'I' for Inactive)
REMARK    1  A    between atoms: C4_4  and  C5_5 
REMARK    2  A    between atoms: C5_5  and  C6_6 
REMARK    3  A    between atoms: C6_6  and  N1_7 
REMARK    4  A    between atoms: N1_7  and  C7_8 
ROOT
HETATM    1  C7  UNL     1      27.001   1.754  53.016  1.00  0.00     0.045 A 
HETATM    2  C8  UNL     1      28.314   1.700  53.455  1.00  0.00     0.049 A 
HETATM    3  C9  UNL     1      28.765   0.810  54.379  1.00  0.00     0.122 A 
HETATM    4  N2  UNL     1      27.919  -0.097  54.933  1.00  0.00    -0.236 NA
HETATM    5  C10 UNL     1      26.628  -0.107  54.559  1.00  0.00     0.183 A 
HETATM    6  O1  UNL     1      25.609  -0.849  54.915  1.00  0.00    -0.290 OA
HETATM    7  C11 UNL     1      24.528  -0.506  54.288  1.00  0.00     0.089 A 
HETATM    8  C12 UNL     1      23.243  -0.996  54.340  1.00  0.00     0.038 A 
HETATM    9  C13 UNL     1      22.262  -0.436  53.549  1.00  0.00     0.003 A 
HETATM   10  C14 UNL     1      22.611   0.626  52.708  1.00  0.00     0.001 A 
HETATM   11  C15 UNL     1      23.908   1.091  52.681  1.00  0.00     0.015 A 
HETATM   12  C16 UNL     1      24.881   0.539  53.464  1.00  0.00     0.015 A 
HETATM   13  C17 UNL     1      26.215   0.812  53.619  1.00  0.00     0.057 A 
ENDROOT
BRANCH   1  14
HETATM   14  N1  UNL     1      26.649   2.737  52.088  1.00  0.00    -0.389 N 
HETATM   15  H8  UNL     1      26.372   3.723  52.172  1.00  0.00     0.159 HD
BRANCH  14  16
HETATM   16  C6  UNL     1      26.631   2.419  50.675  1.00  0.00     0.124 C 
BRANCH  16  17
HETATM   17  C5  UNL     1      25.702   3.326  49.964  1.00  0.00     0.058 C 
BRANCH  17  18
HETATM   18  C4  UNL     1      26.244   4.515  49.326  1.00  0.00    -0.057 A 
HETATM   19  C3  UNL     1      27.561   4.610  48.892  1.00  0.00     0.007 A 
HETATM   20  C2  UNL     1      28.106   5.718  48.284  1.00  0.00     0.001 A 
HETATM   21  C1  UNL     1      27.293   6.816  48.089  1.00  0.00     0.000 A 
HETATM   22  C19 UNL     1      25.960   6.771  48.508  1.00  0.00     0.001 A 
HETATM   23  C18 UNL     1      25.452   5.620  49.122  1.00  0.00     0.007 A 
ENDBRANCH  17  18
ENDBRANCH  16  17
ENDBRANCH  14  16
ENDBRANCH   1  14
TORSDOF 4
ENDMDL
MODEL 2
REMARK VINA RESULT:      -9.0      1.324      3.447
REMARK  4 active torsions:
REMARK  status: ('A' for Active; 'I' for Inactive)
REMARK    1  A    between atoms: C4_4  and  C5_5 
REMARK    2  A    between atoms: C5_5  and  C6_6 
REMARK    3  A    between atoms: C6_6  and  N1_7 
REMARK    4  A    between atoms: N1_7  and  C7_8 
ROOT
HETATM    1  C7  UNL     1      24.339   1.952  53.027  1.00  0.00     0.045 A 
HETATM    2  C8  UNL     1      23.078   1.377  52.990  1.00  0.00     0.049 A 
HETATM    3  C9  UNL     1      22.825   0.090  53.351  1.00  0.00     0.122 A 
HETATM    4  N2  UNL     1      23.832  -0.717  53.777  1.00  0.00    -0.236 NA
HETATM    5  C10 UNL     1      25.083  -0.232  53.840  1.00  0.00     0.183 A 
HETATM    6  O1  UNL     1      26.222  -0.765  54.203  1.00  0.00    -0.290 OA
HETATM    7  C11 UNL     1      27.198   0.082  54.105  1.00  0.00     0.089 A 
HETATM    8  C12 UNL     1      28.543  -0.033  54.373  1.00  0.00     0.038 A 
HETATM    9  C13 UNL     1      29.378   1.047  54.178  1.00  0.00     0.003 A 
HETATM   10  C14 UNL     1      28.821   2.241  53.709  1.00  0.00     0.001 A 
HETATM   11  C15 UNL     1      27.470   2.321  53.451  1.00  0.00     0.015 A 
HETATM   12  C16 UNL     1      26.641   1.253  53.642  1.00  0.00     0.015 A 
HETATM   13  C17 UNL     1      25.294   1.078  53.465  1.00  0.00     0.057 A 
ENDROOT
BRANCH   1  14
HETATM   14  N1  UNL     1      24.480   3.274  52.598  1.00  0.00    -0.389 N 
HETATM   15  H8  UNL     1      24.845   4.126  53.041  1.00  0.00     0.159 HD
BRANCH  14  16
HETATM   16  C6  UNL     1      24.054   3.647  51.265  1.00  0.00     0.124 C 
BRANCH  16  17
HETATM   17  C5  UNL     1      25.079   3.245  50.275  1.00  0.00     0.058 C 
BRANCH  17  18
HETATM   18  C4  UNL     1      25.856   4.285  49.619  1.00  0.00    -0.057 A 
HETATM   19  C3  UNL     1      27.159   4.095  49.176  1.00  0.00     0.007 A 
HETATM   20  C2  UNL     1      27.921   5.056  48.552  1.00  0.00     0.001 A 
HETATM   21  C1  UNL     1      27.358   6.299  48.349  1.00  0.00     0.000 A 
HETATM   22  C19 UNL     1      26.049   6.542  48.778  1.00  0.00     0.001 A 
HETATM   23  C18 UNL     1      25.315   5.531  49.408  1.00  0.00     0.007 A 
ENDBRANCH  17  18
ENDBRANCH  16  17
ENDBRANCH  14  16
ENDBRANCH   1  14
TORSDOF 4
ENDMDL
MODEL 3
REMARK VINA RESULT:      -8.7      1.578      2.515
REMARK  4 active torsions:
REMARK  status: ('A' for Active; 'I' for Inactive)
REMARK    1  A    between atoms: C4_4  and  C5_5 
REMARK    2  A    between atoms: C5_5  and  C6_6 
REMARK    3  A    between atoms: C6_6  and  N1_7 
REMARK    4  A    between atoms: N1_7  and  C7_8 
ROOT
HETATM    1  C7  UNL     1      27.073   1.880  52.963  1.00  0.00     0.045 A 
HETATM    2  C8  UNL     1      28.384   1.776  53.403  1.00  0.00     0.049 A 
HETATM    3  C9  UNL     1      28.814   0.821  54.271  1.00  0.00     0.122 A 
HETATM    4  N2  UNL     1      27.950  -0.105  54.763  1.00  0.00    -0.236 NA
HETATM    5  C10 UNL     1      26.661  -0.069  54.383  1.00  0.00     0.183 A 
HETATM    6  O1  UNL     1      25.628  -0.814  54.687  1.00  0.00    -0.290 OA
HETATM    7  C11 UNL     1      24.556  -0.413  54.079  1.00  0.00     0.089 A 
HETATM    8  C12 UNL     1      23.263  -0.883  54.094  1.00  0.00     0.038 A 
HETATM    9  C13 UNL     1      22.295  -0.257  53.337  1.00  0.00     0.003 A 
HETATM   10  C14 UNL     1      22.666   0.850  52.566  1.00  0.00     0.001 A 
HETATM   11  C15 UNL     1      23.971   1.293  52.575  1.00  0.00     0.015 A 
HETATM   12  C16 UNL     1      24.931   0.676  53.324  1.00  0.00     0.015 A 
HETATM   13  C17 UNL     1      26.268   0.915  53.502  1.00  0.00     0.057 A 
ENDROOT
BRANCH   1  14
HETATM   14  N1  UNL     1      26.743   2.926  52.098  1.00  0.00    -0.389 N 
HETATM   15  H8  UNL     1      26.504   3.914  52.243  1.00  0.00     0.159 HD
BRANCH  14  16
HETATM   16  C6  UNL     1      26.691   2.689  50.671  1.00  0.00     0.124 C 
BRANCH  16  17
HETATM   17  C5  UNL     1      25.960   3.790  50.002  1.00  0.00     0.058 C 
BRANCH  17  18
HETATM   18  C4  UNL     1      24.507   3.785  50.046  1.00  0.00    -0.057 A 
HETATM   19  C3  UNL     1      23.725   2.973  49.232  1.00  0.00     0.007 A 
HETATM   20  C2  UNL     1      22.349   2.943  49.248  1.00  0.00     0.001 A 
HETATM   21  C1  UNL     1      21.693   3.775  50.132  1.00  0.00     0.000 A 
HETATM   22  C19 UNL     1      22.434   4.612  50.972  1.00  0.00     0.001 A 
HETATM   23  C18 UNL     1      23.833   4.606  50.918  1.00  0.00     0.007 A 
ENDBRANCH  17  18
ENDBRANCH  16  17
ENDBRANCH  14  16
ENDBRANCH   1  14
TORSDOF 4
ENDMDL
MODEL 4
REMARK VINA RESULT:      -8.6      3.775      5.647
REMARK  4 active torsions:
REMARK  status: ('A' for Active; 'I' for Inactive)
REMARK    1  A    between atoms: C4_4  and  C5_5 
REMARK    2  A    between atoms: C5_5  and  C6_6 
REMARK    3  A    between atoms: C6_6  and  N1_7 
REMARK    4  A    between atoms: N1_7  and  C7_8 
ROOT
HETATM    1  C7  UNL     1      23.256  -0.037  53.443  1.00  0.00     0.045 A 
HETATM    2  C8  UNL     1      24.061  -0.568  54.438  1.00  0.00     0.049 A 
HETATM    3  C9  UNL     1      23.608  -1.412  55.405  1.00  0.00     0.122 A 
HETATM    4  N2  UNL     1      22.301  -1.783  55.440  1.00  0.00    -0.236 NA
HETATM    5  C10 UNL     1      21.457  -1.309  54.508  1.00  0.00     0.183 A 
HETATM    6  O1  UNL     1      20.178  -1.490  54.298  1.00  0.00    -0.290 OA
HETATM    7  C11 UNL     1      19.765  -0.826  53.264  1.00  0.00     0.089 A 
HETATM    8  C12 UNL     1      18.524  -0.717  52.679  1.00  0.00     0.038 A 
HETATM    9  C13 UNL     1      18.358   0.073  51.561  1.00  0.00     0.003 A 
HETATM   10  C14 UNL     1      19.473   0.747  51.052  1.00  0.00     0.001 A 
HETATM   11  C15 UNL     1      20.701   0.615  51.663  1.00  0.00     0.015 A 
HETATM   12  C16 UNL     1      20.868  -0.166  52.770  1.00  0.00     0.015 A 
HETATM   13  C17 UNL     1      21.959  -0.458  53.547  1.00  0.00     0.057 A 
ENDROOT
BRANCH   1  14
HETATM   14  N1  UNL     1      23.828   0.847  52.525  1.00  0.00    -0.389 N 
HETATM   15  H8  UNL     1      23.532   1.204  51.609  1.00  0.00     0.159 HD
BRANCH  14  16
HETATM   16  C6  UNL     1      25.112   1.451  52.813  1.00  0.00     0.124 C 
BRANCH  16  17
HETATM   17  C5  UNL     1      26.162   0.835  51.968  1.00  0.00     0.058 C 
BRANCH  17  18
HETATM   18  C4  UNL     1      27.344   0.292  52.617  1.00  0.00    -0.057 A 
HETATM   19  C3  UNL     1      27.605  -1.070  52.704  1.00  0.00     0.007 A 
HETATM   20  C2  UNL     1      28.713  -1.617  53.309  1.00  0.00     0.001 A 
HETATM   21  C1  UNL     1      29.634  -0.758  53.873  1.00  0.00     0.000 A 
HETATM   22  C19 UNL     1      29.418   0.622  53.813  1.00  0.00     0.001 A 
HETATM   23  C18 UNL     1      28.274   1.130  53.185  1.00  0.00     0.007 A 
ENDBRANCH  17  18
ENDBRANCH  16  17
ENDBRANCH  14  16
ENDBRANCH   1  14
TORSDOF 4
ENDMDL
MODEL 5
REMARK VINA RESULT:      -8.3      2.532      4.562
REMARK  4 active torsions:
REMARK  status: ('A' for Active; 'I' for Inactive)
REMARK    1  A    between atoms: C4_4  and  C5_5 
REMARK    2  A    between atoms: C5_5  and  C6_6 
REMARK    3  A    between atoms: C6_6  and  N1_7 
REMARK    4  A    between atoms: N1_7  and  C7_8 
ROOT
HETATM    1  C7  UNL     1      22.340  -0.428  52.981  1.00  0.00     0.045 A 
HETATM    2  C8  UNL     1      21.352  -1.047  53.731  1.00  0.00     0.049 A 
HETATM    3  C9  UNL     1      21.577  -1.631  54.939  1.00  0.00     0.122 A 
HETATM    4  N2  UNL     1      22.822  -1.636  55.482  1.00  0.00    -0.236 NA
HETATM    5  C10 UNL     1      23.833  -1.056  54.813  1.00  0.00     0.183 A 
HETATM    6  O1  UNL     1      25.106  -0.912  55.085  1.00  0.00    -0.290 OA
HETATM    7  C11 UNL     1      25.726  -0.275  54.141  1.00  0.00     0.089 A 
HETATM    8  C12 UNL     1      27.043   0.098  53.998  1.00  0.00     0.038 A 
HETATM    9  C13 UNL     1      27.444   0.784  52.871  1.00  0.00     0.003 A 
HETATM   10  C14 UNL     1      26.485   1.081  51.897  1.00  0.00     0.001 A 
HETATM   11  C15 UNL     1      25.175   0.692  52.073  1.00  0.00     0.015 A 
HETATM   12  C16 UNL     1      24.775   0.013  53.188  1.00  0.00     0.015 A 
HETATM   13  C17 UNL     1      23.561  -0.475  53.594  1.00  0.00     0.057 A 
ENDROOT
BRANCH   1  14
HETATM   14  N1  UNL     1      21.994   0.106  51.737  1.00  0.00    -0.389 N 
HETATM   15  H8  UNL     1      22.311  -0.075  50.777  1.00  0.00     0.159 HD
BRANCH  14  16
HETATM   16  C6  UNL     1      20.989   1.145  51.655  1.00  0.00     0.124 C 
BRANCH  16  17
HETATM   17  C5  UNL     1      21.284   2.046  50.517  1.00  0.00     0.058 C 
BRANCH  17  18
HETATM   18  C4  UNL     1      22.531   2.793  50.529  1.00  0.00    -0.057 A 
HETATM   19  C3  UNL     1      22.928   3.593  51.594  1.00  0.00     0.007 A 
HETATM   20  C2  UNL     1      24.100   4.312  51.638  1.00  0.00     0.001 A 
HETATM   21  C1  UNL     1      24.947   4.239  50.551  1.00  0.00     0.000 A 
HETATM   22  C19 UNL     1      24.594   3.448  49.453  1.00  0.00     0.001 A 
HETATM   23  C18 UNL     1      23.389   2.735  49.456  1.00  0.00     0.007 A 
ENDBRANCH  17  18
ENDBRANCH  16  17
ENDBRANCH  14  16
ENDBRANCH   1  14
TORSDOF 4
ENDMDL
MODEL 6
REMARK VINA RESULT:      -8.2      3.292      5.904
REMARK  4 active torsions:
REMARK  status: ('A' for Active; 'I' for Inactive)
REMARK    1  A    between atoms: C4_4  and  C5_5 
REMARK    2  A    between atoms: C5_5  and  C6_6 
REMARK    3  A    between atoms: C6_6  and  N1_7 
REMARK    4  A    between atoms: N1_7  and  C7_8 
ROOT
HETATM    1  C7  UNL     1      21.808   1.375  50.527  1.00  0.00     0.045 A 
HETATM    2  C8  UNL     1      20.897   1.841  49.592  1.00  0.00     0.049 A 
HETATM    3  C9  UNL     1      19.561   1.594  49.653  1.00  0.00     0.122 A 
HETATM    4  N2  UNL     1      19.042   0.853  50.667  1.00  0.00    -0.236 NA
HETATM    5  C10 UNL     1      19.863   0.365  51.612  1.00  0.00     0.183 A 
HETATM    6  O1  UNL     1      19.650  -0.363  52.679  1.00  0.00    -0.290 OA
HETATM    7  C11 UNL     1      20.751  -0.607  53.318  1.00  0.00     0.089 A 
HETATM    8  C12 UNL     1      21.006  -1.316  54.470  1.00  0.00     0.038 A 
HETATM    9  C13 UNL     1      22.298  -1.420  54.941  1.00  0.00     0.003 A 
HETATM   10  C14 UNL     1      23.321  -0.791  54.222  1.00  0.00     0.001 A 
HETATM   11  C15 UNL     1      23.029  -0.089  53.073  1.00  0.00     0.015 A 
HETATM   12  C16 UNL     1      21.751   0.014  52.604  1.00  0.00     0.015 A 
HETATM   13  C17 UNL     1      21.209   0.641  51.512  1.00  0.00     0.057 A 
ENDROOT
BRANCH   1  14
HETATM   14  N1  UNL     1      23.162   1.665  50.338  1.00  0.00    -0.389 N 
HETATM   15  H8  UNL     1      23.918   1.203  49.819  1.00  0.00     0.159 HD
BRANCH  14  16
HETATM   16  C6  UNL     1      23.739   2.839  50.958  1.00  0.00     0.124 C 
BRANCH  16  17
HETATM   17  C5  UNL     1      25.215   2.719  50.993  1.00  0.00     0.058 C 
BRANCH  17  18
HETATM   18  C4  UNL     1      25.815   1.830  51.975  1.00  0.00    -0.057 A 
HETATM   19  C3  UNL     1      26.424   0.627  51.638  1.00  0.00     0.007 A 
HETATM   20  C2  UNL     1      27.002  -0.237  52.540  1.00  0.00     0.001 A 
HETATM   21  C1  UNL     1      26.977   0.109  53.876  1.00  0.00     0.000 A 
HETATM   22  C19 UNL     1      26.376   1.310  54.267  1.00  0.00     0.001 A 
HETATM   23  C18 UNL     1      25.801   2.155  53.310  1.00  0.00     0.007 A 
ENDBRANCH  17  18
ENDBRANCH  16  17
ENDBRANCH  14  16
ENDBRANCH   1  14
TORSDOF 4
ENDMDL
MODEL 7
REMARK VINA RESULT:      -8.2      1.933      3.491
REMARK  4 active torsions:
REMARK  status: ('A' for Active; 'I' for Inactive)
REMARK    1  A    between atoms: C4_4  and  C5_5 
REMARK    2  A    between atoms: C5_5  and  C6_6 
REMARK    3  A    between atoms: C6_6  and  N1_7 
REMARK    4  A    between atoms: N1_7  and  C7_8 
ROOT
HETATM    1  C7  UNL     1      24.123   3.024  51.844  1.00  0.00     0.045 A 
HETATM    2  C8  UNL     1      22.790   3.401  51.838  1.00  0.00     0.049 A 
HETATM    3  C9  UNL     1      21.781   2.612  52.296  1.00  0.00     0.122 A 
HETATM    4  N2  UNL     1      22.044   1.376  52.796  1.00  0.00    -0.236 NA
HETATM    5  C10 UNL     1      23.314   0.939  52.835  1.00  0.00     0.183 A 
HETATM    6  O1  UNL     1      23.853  -0.179  53.252  1.00  0.00    -0.290 OA
HETATM    7  C11 UNL     1      25.140  -0.174  53.100  1.00  0.00     0.089 A 
HETATM    8  C12 UNL     1      26.102  -1.114  53.392  1.00  0.00     0.038 A 
HETATM    9  C13 UNL     1      27.428  -0.846  53.124  1.00  0.00     0.003 A 
HETATM   10  C14 UNL     1      27.755   0.389  52.556  1.00  0.00     0.001 A 
HETATM   11  C15 UNL     1      26.766   1.307  52.276  1.00  0.00     0.015 A 
HETATM   12  C16 UNL     1      25.452   1.045  52.540  1.00  0.00     0.015 A 
HETATM   13  C17 UNL     1      24.305   1.772  52.361  1.00  0.00     0.057 A 
ENDROOT
BRANCH   1  14
HETATM   14  N1  UNL     1      25.067   3.908  51.315  1.00  0.00    -0.389 N 
HETATM   15  H8  UNL     1      25.773   4.524  51.736  1.00  0.00     0.159 HD
BRANCH  14  16
HETATM   16  C6  UNL     1      25.165   4.081  49.881  1.00  0.00     0.124 C 
BRANCH  16  17
HETATM   17  C5  UNL     1      26.582   3.997  49.457  1.00  0.00     0.058 C 
BRANCH  17  18
HETATM   18  C4  UNL     1      27.177   5.147  48.794  1.00  0.00    -0.057 A 
HETATM   19  C3  UNL     1      28.513   5.198  48.415  1.00  0.00     0.007 A 
HETATM   20  C2  UNL     1      29.107   6.268  47.787  1.00  0.00     0.001 A 
HETATM   21  C1  UNL     1      28.327   7.372  47.510  1.00  0.00     0.000 A 
HETATM   22  C19 UNL     1      26.976   7.371  47.872  1.00  0.00     0.001 A 
HETATM   23  C18 UNL     1      26.418   6.257  48.510  1.00  0.00     0.007 A 
ENDBRANCH  17  18
ENDBRANCH  16  17
ENDBRANCH  14  16
ENDBRANCH   1  14
TORSDOF 4
ENDMDL
MODEL 8
REMARK VINA RESULT:      -8.1      2.883      4.532
REMARK  4 active torsions:
REMARK  status: ('A' for Active; 'I' for Inactive)
REMARK    1  A    between atoms: C4_4  and  C5_5 
REMARK    2  A    between atoms: C5_5  and  C6_6 
REMARK    3  A    between atoms: C6_6  and  N1_7 
REMARK    4  A    between atoms: N1_7  and  C7_8 
ROOT
HETATM    1  C7  UNL     1      23.784  -0.301  53.410  1.00  0.00     0.045 A 
HETATM    2  C8  UNL     1      24.129  -0.887  54.618  1.00  0.00     0.049 A 
HETATM    3  C9  UNL     1      23.222  -1.394  55.496  1.00  0.00     0.122 A 
HETATM    4  N2  UNL     1      21.892  -1.347  55.220  1.00  0.00    -0.236 NA
HETATM    5  C10 UNL     1      21.479  -0.793  54.068  1.00  0.00     0.183 A 
HETATM    6  O1  UNL     1      20.291  -0.613  53.548  1.00  0.00    -0.290 OA
HETATM    7  C11 UNL     1      20.359  -0.027  52.394  1.00  0.00     0.089 A 
HETATM    8  C12 UNL     1      19.384   0.356  51.501  1.00  0.00     0.038 A 
HETATM    9  C13 UNL     1      19.738   0.975  50.321  1.00  0.00     0.003 A 
HETATM   10  C14 UNL     1      21.096   1.196  50.067  1.00  0.00     0.001 A 
HETATM   11  C15 UNL     1      22.045   0.800  50.984  1.00  0.00     0.015 A 
HETATM   12  C16 UNL     1      21.698   0.188  52.154  1.00  0.00     0.015 A 
HETATM   13  C17 UNL     1      22.432  -0.293  53.206  1.00  0.00     0.057 A 
ENDROOT
BRANCH   1  14
HETATM   14  N1  UNL     1      24.803   0.216  52.607  1.00  0.00    -0.389 N 
HETATM   15  H8  UNL     1      25.145  -0.012  51.665  1.00  0.00     0.159 HD
BRANCH  14  16
HETATM   16  C6  UNL     1      25.622   1.305  53.095  1.00  0.00     0.124 C 
BRANCH  16  17
HETATM   17  C5  UNL     1      25.781   2.331  52.039  1.00  0.00     0.058 C 
BRANCH  17  18
HETATM   18  C4  UNL     1      24.629   3.143  51.681  1.00  0.00    -0.057 A 
HETATM   19  C3  UNL     1      23.706   3.605  52.611  1.00  0.00     0.007 A 
HETATM   20  C2  UNL     1      22.607   4.374  52.306  1.00  0.00     0.001 A 
HETATM   21  C1  UNL     1      22.400   4.716  50.986  1.00  0.00     0.000 A 
HETATM   22  C19 UNL     1      23.301   4.276  50.010  1.00  0.00     0.001 A 
HETATM   23  C18 UNL     1      24.405   3.495  50.371  1.00  0.00     0.007 A 
ENDBRANCH  17  18
ENDBRANCH  16  17
ENDBRANCH  14  16
ENDBRANCH   1  14
TORSDOF 4
ENDMDL
MODEL 9
REMARK VINA RESULT:      -8.0      1.555      2.332
REMARK  4 active torsions:
REMARK  status: ('A' for Active; 'I' for Inactive)
REMARK    1  A    between atoms: C4_4  and  C5_5 
REMARK    2  A    between atoms: C5_5  and  C6_6 
REMARK    3  A    between atoms: C6_6  and  N1_7 
REMARK    4  A    between atoms: N1_7  and  C7_8 
ROOT
HETATM    1  C7  UNL     1      25.587   1.971  51.919  1.00  0.00     0.045 A 
HETATM    2  C8  UNL     1      26.766   1.250  52.027  1.00  0.00     0.049 A 
HETATM    3  C9  UNL     1      26.845   0.012  52.585  1.00  0.00     0.122 A 
HETATM    4  N2  UNL     1      25.734  -0.595  53.078  1.00  0.00    -0.236 NA
HETATM    5  C10 UNL     1      24.552   0.041  53.011  1.00  0.00     0.183 A 
HETATM    6  O1  UNL     1      23.345  -0.290  53.395  1.00  0.00    -0.290 OA
HETATM    7  C11 UNL     1      22.487   0.643  53.128  1.00  0.00     0.089 A 
HETATM    8  C12 UNL     1      21.130   0.731  53.346  1.00  0.00     0.038 A 
HETATM    9  C13 UNL     1      20.443   1.860  52.953  1.00  0.00     0.003 A 
HETATM   10  C14 UNL     1      21.158   2.893  52.337  1.00  0.00     0.001 A 
HETATM   11  C15 UNL     1      22.516   2.770  52.134  1.00  0.00     0.015 A 
HETATM   12  C16 UNL     1      23.199   1.654  52.523  1.00  0.00     0.015 A 
HETATM   13  C17 UNL     1      24.518   1.294  52.437  1.00  0.00     0.057 A 
ENDROOT
BRANCH   1  14
HETATM   14  N1  UNL     1      25.637   3.249  51.358  1.00  0.00    -0.389 N 
HETATM   15  H8  UNL     1      25.703   4.194  51.756  1.00  0.00     0.159 HD
BRANCH  14  16
HETATM   16  C6  UNL     1      25.592   3.406  49.920  1.00  0.00     0.124 C 
BRANCH  16  17
HETATM   17  C5  UNL     1      26.941   3.734  49.403  1.00  0.00     0.058 C 
BRANCH  17  18
HETATM   18  C4  UNL     1      27.152   5.037  48.792  1.00  0.00    -0.057 A 
HETATM   19  C3  UNL     1      26.128   5.954  48.587  1.00  0.00     0.007 A 
HETATM   20  C2  UNL     1      26.294   7.194  48.013  1.00  0.00     0.001 A 
HETATM   21  C1  UNL     1      27.562   7.558  47.610  1.00  0.00     0.000 A 
HETATM   22  C19 UNL     1      28.626   6.670  47.794  1.00  0.00     0.001 A 
HETATM   23  C18 UNL     1      28.407   5.419  48.383  1.00  0.00     0.007 A 
ENDBRANCH  17  18
ENDBRANCH  16  17
ENDBRANCH  14  16
ENDBRANCH   1  14
TORSDOF 4
ENDMDL
