MODEL 1
REMARK VINA RESULT:      -7.6      0.000      0.000
REMARK  12 active torsions:
REMARK  status: ('A' for Active; 'I' for Inactive)
REMARK    1  A    between atoms: C2_2  and  N1_3 
REMARK    2  A    between atoms: N1_3  and  C3_4 
REMARK    3  A    between atoms: C3_4  and  C4_5 
REMARK    4  A    between atoms: C3_4  and  C11_14 
REMARK    5  A    between atoms: C5_6  and  O1_7 
REMARK    6  A    between atoms: O1_7  and  C6_8 
REMARK    7  A    between atoms: C6_8  and  C7_9 
REMARK    8  A    between atoms: C11_14  and  C12_15 
REMARK    9  A    between atoms: C15_20  and  N4_21 
REMARK   10  A    between atoms: N4_21  and  C17_23 
REMARK   11  A    between atoms: C19_25  and  C20_26 
REMARK   12  A    between atoms: C20_26  and  N5_27 
ROOT
HETATM    1  C12 UNL     1      24.513   4.202  49.789  1.00  0.00     0.007 A 
HETATM    2  C13 UNL     1      23.992   4.729  48.601  1.00  0.00     0.129 A 
HETATM    3  N2  UNL     1      22.778   4.433  48.106  1.00  0.00    -0.253 NA
HETATM    4  C14 UNL     1      21.982   3.579  48.766  1.00  0.00     0.234 A 
HETATM    5  N3  UNL     1      22.453   3.065  49.893  1.00  0.00    -0.224 NA
HETATM    6  C15 UNL     1      23.659   3.340  50.414  1.00  0.00     0.134 A 
ENDROOT
BRANCH   1   7
HETATM    7  C11 UNL     1      25.844   4.691  50.107  1.00  0.00     0.073 C 
BRANCH   7   8
HETATM    8  C3  UNL     1      26.452   5.570  49.082  1.00  0.00     0.110 C 
BRANCH   8   9
HETATM    9  N1  UNL     1      26.602   6.944  49.547  1.00  0.00    -0.391 N 
HETATM   10  H4  UNL     1      27.412   7.570  49.263  1.00  0.00     0.159 HD
BRANCH   9  11
HETATM   11  C2  UNL     1      25.645   7.488  50.410  1.00  0.00     0.073 C 
HETATM   12  C1  UNL     1      24.813   8.411  50.014  1.00  0.00     0.029 C 
ENDBRANCH   9  11
ENDBRANCH   8   9
BRANCH   8  13
HETATM   13  C4  UNL     1      27.789   5.158  48.600  1.00  0.00     0.022 C 
HETATM   14  C5  UNL     1      29.022   5.425  48.219  1.00  0.00     0.132 C 
BRANCH  14  15
HETATM   15  O1  UNL     1      30.160   4.767  47.779  1.00  0.00    -0.361 OA
BRANCH  15  16
HETATM   16  C6  UNL     1      31.442   5.368  47.790  1.00  0.00     0.206 C 
BRANCH  16  17
HETATM   17  C7  UNL     1      32.437   4.234  47.868  1.00  0.00     0.145 C 
HETATM   18  C8  UNL     1      32.576   3.630  46.483  1.00  0.00     0.036 C 
HETATM   19  C9  UNL     1      33.931   2.963  46.600  1.00  0.00     0.029 C 
HETATM   20  C10 UNL     1      34.605   3.745  47.673  1.00  0.00     0.168 C 
HETATM   21  O2  UNL     1      33.716   4.683  48.169  1.00  0.00    -0.384 OA
ENDBRANCH  16  17
ENDBRANCH  15  16
ENDBRANCH  14  15
ENDBRANCH   8  13
ENDBRANCH   7   8
ENDBRANCH   1   7
BRANCH   6  22
HETATM   22  N4  UNL     1      24.092   2.745  51.628  1.00  0.00    -0.365 N 
HETATM   23  C16 UNL     1      24.088   2.991  53.069  1.00  0.00     0.151 C 
BRANCH  22  24
HETATM   24  C17 UNL     1      24.798   1.509  51.576  1.00  0.00     0.086 C 
HETATM   25  C18 UNL     1      26.253   1.538  52.063  1.00  0.00     0.031 C 
HETATM   26  C19 UNL     1      26.075   0.186  52.673  1.00  0.00     0.007 C 
HETATM   27  C24 UNL     1      24.566   0.518  52.717  1.00  0.00     0.031 C 
BRANCH  26  28
HETATM   28  C20 UNL     1      26.580  -0.099  54.029  1.00  0.00     0.121 C 
BRANCH  28  29
HETATM   29  N5  UNL     1      27.922  -0.379  54.243  1.00  0.00    -0.412 N 
HETATM   30  C21 UNL     1      28.723  -1.118  53.343  1.00  0.00     0.118 C 
HETATM   31  C22 UNL     1      29.795  -0.051  53.505  1.00  0.00     0.039 C 
HETATM   32  C23 UNL     1      28.921   0.501  54.652  1.00  0.00     0.118 C 
ENDBRANCH  28  29
ENDBRANCH  26  28
ENDBRANCH  22  24
ENDBRANCH   6  22
TORSDOF 12
ENDMDL
MODEL 2
REMARK VINA RESULT:      -7.3      4.113      8.002
REMARK  12 active torsions:
REMARK  status: ('A' for Active; 'I' for Inactive)
REMARK    1  A    between atoms: C2_2  and  N1_3 
REMARK    2  A    between atoms: N1_3  and  C3_4 
REMARK    3  A    between atoms: C3_4  and  C4_5 
REMARK    4  A    between atoms: C3_4  and  C11_14 
REMARK    5  A    between atoms: C5_6  and  O1_7 
REMARK    6  A    between atoms: O1_7  and  C6_8 
REMARK    7  A    between atoms: C6_8  and  C7_9 
REMARK    8  A    between atoms: C11_14  and  C12_15 
REMARK    9  A    between atoms: C15_20  and  N4_21 
REMARK   10  A    between atoms: N4_21  and  C17_23 
REMARK   11  A    between atoms: C19_25  and  C20_26 
REMARK   12  A    between atoms: C20_26  and  N5_27 
ROOT
HETATM    1  C12 UNL     1      20.036   1.717  51.314  1.00  0.00     0.007 A 
HETATM    2  C13 UNL     1      19.014   2.321  52.058  1.00  0.00     0.129 A 
HETATM    3  N2  UNL     1      18.534   3.555  51.828  1.00  0.00    -0.253 NA
HETATM    4  C14 UNL     1      19.043   4.289  50.827  1.00  0.00     0.234 A 
HETATM    5  N3  UNL     1      20.011   3.740  50.108  1.00  0.00    -0.224 NA
HETATM    6  C15 UNL     1      20.512   2.512  50.312  1.00  0.00     0.134 A 
ENDROOT
BRANCH   1   7
HETATM    7  C11 UNL     1      20.362   0.373  51.760  1.00  0.00     0.073 C 
BRANCH   7   8
HETATM    8  C3  UNL     1      20.585   0.231  53.217  1.00  0.00     0.110 C 
BRANCH   8   9
HETATM    9  N1  UNL     1      19.813  -0.864  53.793  1.00  0.00    -0.391 N 
HETATM   10  H4  UNL     1      20.178  -1.489  54.570  1.00  0.00     0.159 HD
BRANCH   9  11
HETATM   11  C2  UNL     1      18.525  -1.125  53.313  1.00  0.00     0.073 C 
HETATM   12  C1  UNL     1      17.915  -2.249  53.570  1.00  0.00     0.029 C 
ENDBRANCH   9  11
ENDBRANCH   8   9
BRANCH   8  13
HETATM   13  C4  UNL     1      21.986  -0.002  53.629  1.00  0.00     0.022 C 
HETATM   14  C5  UNL     1      23.054  -0.767  53.742  1.00  0.00     0.132 C 
BRANCH  14  15
HETATM   15  O1  UNL     1      24.355  -0.705  54.220  1.00  0.00    -0.361 OA
BRANCH  15  16
HETATM   16  C6  UNL     1      25.274   0.289  53.804  1.00  0.00     0.206 C 
BRANCH  16  17
HETATM   17  C7  UNL     1      26.624  -0.143  54.327  1.00  0.00     0.145 C 
HETATM   18  C8  UNL     1      27.413  -0.730  53.171  1.00  0.00     0.036 C 
HETATM   19  C9  UNL     1      28.829  -0.575  53.687  1.00  0.00     0.029 C 
HETATM   20  C10 UNL     1      28.718   0.553  54.652  1.00  0.00     0.168 C 
HETATM   21  O2  UNL     1      27.391   0.937  54.743  1.00  0.00    -0.384 OA
ENDBRANCH  16  17
ENDBRANCH  15  16
ENDBRANCH  14  15
ENDBRANCH   8  13
ENDBRANCH   7   8
ENDBRANCH   1   7
BRANCH   6  22
HETATM   22  N4  UNL     1      21.554   1.995  49.498  1.00  0.00    -0.365 N 
HETATM   23  C16 UNL     1      21.751   1.211  48.280  1.00  0.00     0.151 C 
BRANCH  22  24
HETATM   24  C17 UNL     1      22.907   2.218  49.887  1.00  0.00     0.086 C 
HETATM   25  C18 UNL     1      23.741   3.111  48.960  1.00  0.00     0.031 C 
HETATM   26  C19 UNL     1      24.420   3.711  50.147  1.00  0.00     0.007 C 
HETATM   27  C24 UNL     1      23.166   3.289  50.947  1.00  0.00     0.031 C 
BRANCH  26  28
HETATM   28  C20 UNL     1      24.625   5.168  50.240  1.00  0.00     0.121 C 
BRANCH  28  29
HETATM   29  N5  UNL     1      25.842   5.737  49.899  1.00  0.00    -0.412 N 
HETATM   30  C21 UNL     1      26.747   5.163  48.977  1.00  0.00     0.118 C 
HETATM   31  C22 UNL     1      26.890   6.538  48.343  1.00  0.00     0.039 C 
HETATM   32  C23 UNL     1      26.097   7.064  49.559  1.00  0.00     0.118 C 
ENDBRANCH  28  29
ENDBRANCH  26  28
ENDBRANCH  22  24
ENDBRANCH   6  22
TORSDOF 12
ENDMDL
MODEL 3
REMARK VINA RESULT:      -7.3      3.380      7.519
REMARK  12 active torsions:
REMARK  status: ('A' for Active; 'I' for Inactive)
REMARK    1  A    between atoms: C2_2  and  N1_3 
REMARK    2  A    between atoms: N1_3  and  C3_4 
REMARK    3  A    between atoms: C3_4  and  C4_5 
REMARK    4  A    between atoms: C3_4  and  C11_14 
REMARK    5  A    between atoms: C5_6  and  O1_7 
REMARK    6  A    between atoms: O1_7  and  C6_8 
REMARK    7  A    between atoms: C6_8  and  C7_9 
REMARK    8  A    between atoms: C11_14  and  C12_15 
REMARK    9  A    between atoms: C15_20  and  N4_21 
REMARK   10  A    between atoms: N4_21  and  C17_23 
REMARK   11  A    between atoms: C19_25  and  C20_26 
REMARK   12  A    between atoms: C20_26  and  N5_27 
ROOT
HETATM    1  C12 UNL     1      23.458  -0.339  53.620  1.00  0.00     0.007 A 
HETATM    2  C13 UNL     1      23.037  -1.259  54.589  1.00  0.00     0.129 A 
HETATM    3  N2  UNL     1      21.839  -1.227  55.198  1.00  0.00    -0.253 NA
HETATM    4  C14 UNL     1      20.960  -0.264  54.883  1.00  0.00     0.234 A 
HETATM    5  N3  UNL     1      21.334   0.619  53.969  1.00  0.00    -0.224 NA
HETATM    6  C15 UNL     1      22.522   0.615  53.343  1.00  0.00     0.134 A 
ENDROOT
BRANCH   1   7
HETATM    7  C11 UNL     1      24.793  -0.602  53.110  1.00  0.00     0.073 C 
BRANCH   7   8
HETATM    8  C3  UNL     1      25.846   0.313  53.605  1.00  0.00     0.110 C 
BRANCH   8   9
HETATM    9  N1  UNL     1      27.053  -0.398  54.012  1.00  0.00    -0.391 N 
HETATM   10  H4  UNL     1      27.099  -1.454  54.120  1.00  0.00     0.159 HD
BRANCH   9  11
HETATM   11  C2  UNL     1      28.220   0.325  54.281  1.00  0.00     0.073 C 
HETATM   12  C1  UNL     1      29.402  -0.211  54.144  1.00  0.00     0.029 C 
ENDBRANCH   9  11
ENDBRANCH   8   9
BRANCH   8  13
HETATM   13  C4  UNL     1      26.292   1.350  52.649  1.00  0.00     0.022 C 
HETATM   14  C5  UNL     1      26.721   1.732  51.463  1.00  0.00     0.132 C 
BRANCH  14  15
HETATM   15  O1  UNL     1      27.092   2.889  50.793  1.00  0.00    -0.361 OA
BRANCH  15  16
HETATM   16  C6  UNL     1      26.545   3.254  49.540  1.00  0.00     0.206 C 
BRANCH  16  17
HETATM   17  C7  UNL     1      26.559   4.764  49.499  1.00  0.00     0.145 C 
HETATM   18  C8  UNL     1      27.667   5.202  48.559  1.00  0.00     0.036 C 
HETATM   19  C9  UNL     1      27.198   6.596  48.199  1.00  0.00     0.029 C 
HETATM   20  C10 UNL     1      25.727   6.528  48.416  1.00  0.00     0.168 C 
HETATM   21  O2  UNL     1      25.406   5.280  48.922  1.00  0.00    -0.384 OA
ENDBRANCH  16  17
ENDBRANCH  15  16
ENDBRANCH  14  15
ENDBRANCH   8  13
ENDBRANCH   7   8
ENDBRANCH   1   7
BRANCH   6  22
HETATM   22  N4  UNL     1      22.849   1.600  52.374  1.00  0.00    -0.365 N 
HETATM   23  C16 UNL     1      23.317   2.981  52.285  1.00  0.00     0.151 C 
BRANCH  22  24
HETATM   24  C17 UNL     1      22.696   1.285  50.994  1.00  0.00     0.086 C 
HETATM   25  C18 UNL     1      21.287   1.454  50.412  1.00  0.00     0.031 C 
HETATM   26  C19 UNL     1      21.874   1.960  49.135  1.00  0.00     0.007 C 
HETATM   27  C24 UNL     1      23.107   2.353  49.979  1.00  0.00     0.031 C 
BRANCH  26  28
HETATM   28  C20 UNL     1      21.308   3.146  48.466  1.00  0.00     0.121 C 
BRANCH  28  29
HETATM   29  N5  UNL     1      21.016   3.126  47.110  1.00  0.00    -0.412 N 
HETATM   30  C21 UNL     1      19.718   3.322  46.583  1.00  0.00     0.118 C 
HETATM   31  C22 UNL     1      20.332   4.276  45.571  1.00  0.00     0.039 C 
HETATM   32  C23 UNL     1      21.698   3.770  46.081  1.00  0.00     0.118 C 
ENDBRANCH  28  29
ENDBRANCH  26  28
ENDBRANCH  22  24
ENDBRANCH   6  22
TORSDOF 12
ENDMDL
MODEL 4
REMARK VINA RESULT:      -7.1      1.584      2.261
REMARK  12 active torsions:
REMARK  status: ('A' for Active; 'I' for Inactive)
REMARK    1  A    between atoms: C2_2  and  N1_3 
REMARK    2  A    between atoms: N1_3  and  C3_4 
REMARK    3  A    between atoms: C3_4  and  C4_5 
REMARK    4  A    between atoms: C3_4  and  C11_14 
REMARK    5  A    between atoms: C5_6  and  O1_7 
REMARK    6  A    between atoms: O1_7  and  C6_8 
REMARK    7  A    between atoms: C6_8  and  C7_9 
REMARK    8  A    between atoms: C11_14  and  C12_15 
REMARK    9  A    between atoms: C15_20  and  N4_21 
REMARK   10  A    between atoms: N4_21  and  C17_23 
REMARK   11  A    between atoms: C19_25  and  C20_26 
REMARK   12  A    between atoms: C20_26  and  N5_27 
ROOT
HETATM    1  C12 UNL     1      24.160   3.961  49.801  1.00  0.00     0.007 A 
HETATM    2  C13 UNL     1      23.547   4.329  48.597  1.00  0.00     0.129 A 
HETATM    3  N2  UNL     1      22.390   3.817  48.144  1.00  0.00    -0.253 NA
HETATM    4  C14 UNL     1      21.749   2.886  48.867  1.00  0.00     0.234 A 
HETATM    5  N3  UNL     1      22.309   2.519  50.011  1.00  0.00    -0.224 NA
HETATM    6  C15 UNL     1      23.462   3.012  50.491  1.00  0.00     0.134 A 
ENDROOT
BRANCH   1   7
HETATM    7  C11 UNL     1      25.399   4.673  50.065  1.00  0.00     0.073 C 
BRANCH   7   8
HETATM    8  C3  UNL     1      25.978   5.378  48.898  1.00  0.00     0.110 C 
BRANCH   8   9
HETATM    9  N1  UNL     1      25.788   6.822  48.972  1.00  0.00    -0.391 N 
HETATM   10  H4  UNL     1      25.821   7.458  48.122  1.00  0.00     0.159 HD
BRANCH   9  11
HETATM   11  C2  UNL     1      25.548   7.423  50.213  1.00  0.00     0.073 C 
HETATM   12  C1  UNL     1      24.463   8.108  50.441  1.00  0.00     0.029 C 
ENDBRANCH   9  11
ENDBRANCH   8   9
BRANCH   8  13
HETATM   13  C4  UNL     1      27.427   5.172  48.684  1.00  0.00     0.022 C 
HETATM   14  C5  UNL     1      28.617   5.588  48.299  1.00  0.00     0.132 C 
BRANCH  14  15
HETATM   15  O1  UNL     1      29.922   5.125  48.205  1.00  0.00    -0.361 OA
BRANCH  15  16
HETATM   16  C6  UNL     1      31.034   5.885  48.638  1.00  0.00     0.206 C 
BRANCH  16  17
HETATM   17  C7  UNL     1      30.703   7.326  48.329  1.00  0.00     0.145 C 
HETATM   18  C8  UNL     1      31.443   8.205  49.322  1.00  0.00     0.036 C 
HETATM   19  C9  UNL     1      31.476   9.518  48.566  1.00  0.00     0.029 C 
HETATM   20  C10 UNL     1      31.366   9.096  47.143  1.00  0.00     0.168 C 
HETATM   21  O2  UNL     1      31.200   7.722  47.094  1.00  0.00    -0.384 OA
ENDBRANCH  16  17
ENDBRANCH  15  16
ENDBRANCH  14  15
ENDBRANCH   8  13
ENDBRANCH   7   8
ENDBRANCH   1   7
BRANCH   6  22
HETATM   22  N4  UNL     1      23.999   2.564  51.727  1.00  0.00    -0.365 N 
HETATM   23  C16 UNL     1      24.133   2.990  53.118  1.00  0.00     0.151 C 
BRANCH  22  24
HETATM   24  C17 UNL     1      24.678   1.313  51.769  1.00  0.00     0.086 C 
HETATM   25  C18 UNL     1      26.172   1.364  52.114  1.00  0.00     0.031 C 
HETATM   26  C19 UNL     1      26.033   0.105  52.906  1.00  0.00     0.007 C 
HETATM   27  C24 UNL     1      24.540   0.480  53.044  1.00  0.00     0.031 C 
BRANCH  26  28
HETATM   28  C20 UNL     1      26.658  -0.020  54.235  1.00  0.00     0.121 C 
BRANCH  28  29
HETATM   29  N5  UNL     1      28.019  -0.253  54.361  1.00  0.00    -0.412 N 
HETATM   30  C21 UNL     1      28.765  -1.057  53.468  1.00  0.00     0.118 C 
HETATM   31  C22 UNL     1      29.817   0.041  53.443  1.00  0.00     0.039 C 
HETATM   32  C23 UNL     1      29.025   0.680  54.604  1.00  0.00     0.118 C 
ENDBRANCH  28  29
ENDBRANCH  26  28
ENDBRANCH  22  24
ENDBRANCH   6  22
TORSDOF 12
ENDMDL
MODEL 5
REMARK VINA RESULT:      -7.0      3.314      7.144
REMARK  12 active torsions:
REMARK  status: ('A' for Active; 'I' for Inactive)
REMARK    1  A    between atoms: C2_2  and  N1_3 
REMARK    2  A    between atoms: N1_3  and  C3_4 
REMARK    3  A    between atoms: C3_4  and  C4_5 
REMARK    4  A    between atoms: C3_4  and  C11_14 
REMARK    5  A    between atoms: C5_6  and  O1_7 
REMARK    6  A    between atoms: O1_7  and  C6_8 
REMARK    7  A    between atoms: C6_8  and  C7_9 
REMARK    8  A    between atoms: C11_14  and  C12_15 
REMARK    9  A    between atoms: C15_20  and  N4_21 
REMARK   10  A    between atoms: N4_21  and  C17_23 
REMARK   11  A    between atoms: C19_25  and  C20_26 
REMARK   12  A    between atoms: C20_26  and  N5_27 
ROOT
HETATM    1  C12 UNL     1      22.258   2.223  50.427  1.00  0.00     0.007 A 
HETATM    2  C13 UNL     1      21.437   1.217  49.901  1.00  0.00     0.129 A 
HETATM    3  N2  UNL     1      20.321   1.442  49.187  1.00  0.00    -0.253 NA
HETATM    4  C14 UNL     1      19.935   2.703  48.940  1.00  0.00     0.234 A 
HETATM    5  N3  UNL     1      20.695   3.673  49.427  1.00  0.00    -0.224 NA
HETATM    6  C15 UNL     1      21.814   3.481  50.143  1.00  0.00     0.134 A 
ENDROOT
BRANCH   1   7
HETATM    7  C11 UNL     1      23.411   1.713  51.151  1.00  0.00     0.073 C 
BRANCH   7   8
HETATM    8  C3  UNL     1      23.370   1.912  52.617  1.00  0.00     0.110 C 
BRANCH   8   9
HETATM    9  N1  UNL     1      22.531   0.925  53.288  1.00  0.00    -0.391 N 
HETATM   10  H4  UNL     1      21.586   1.156  53.714  1.00  0.00     0.159 HD
BRANCH   9  11
HETATM   11  C2  UNL     1      22.972  -0.399  53.389  1.00  0.00     0.073 C 
HETATM   12  C1  UNL     1      22.153  -1.372  53.679  1.00  0.00     0.029 C 
ENDBRANCH   9  11
ENDBRANCH   8   9
BRANCH   8  13
HETATM   13  C4  UNL     1      24.678   1.863  53.305  1.00  0.00     0.022 C 
HETATM   14  C5  UNL     1      25.994   1.780  53.299  1.00  0.00     0.132 C 
BRANCH  14  15
HETATM   15  O1  UNL     1      27.057   1.757  54.190  1.00  0.00    -0.361 OA
BRANCH  15  16
HETATM   16  C6  UNL     1      27.554   0.558  54.754  1.00  0.00     0.206 C 
BRANCH  16  17
HETATM   17  C7  UNL     1      27.863  -0.356  53.593  1.00  0.00     0.145 C 
HETATM   18  C8  UNL     1      29.247  -0.944  53.808  1.00  0.00     0.036 C 
HETATM   19  C9  UNL     1      29.164  -2.185  52.943  1.00  0.00     0.029 C 
HETATM   20  C10 UNL     1      27.703  -2.468  52.890  1.00  0.00     0.168 C 
HETATM   21  O2  UNL     1      27.028  -1.465  53.565  1.00  0.00    -0.384 OA
ENDBRANCH  16  17
ENDBRANCH  15  16
ENDBRANCH  14  15
ENDBRANCH   8  13
ENDBRANCH   7   8
ENDBRANCH   1   7
BRANCH   6  22
HETATM   22  N4  UNL     1      22.574   4.577  50.633  1.00  0.00    -0.365 N 
HETATM   23  C16 UNL     1      22.843   5.296  51.876  1.00  0.00     0.151 C 
BRANCH  22  24
HETATM   24  C17 UNL     1      23.364   5.330  49.718  1.00  0.00     0.086 C 
HETATM   25  C18 UNL     1      24.638   5.966  50.287  1.00  0.00     0.031 C 
HETATM   26  C19 UNL     1      25.355   5.673  49.010  1.00  0.00     0.007 C 
HETATM   27  C24 UNL     1      24.310   4.554  48.801  1.00  0.00     0.031 C 
BRANCH  26  28
HETATM   28  C20 UNL     1      26.718   5.109  49.025  1.00  0.00     0.121 C 
BRANCH  28  29
HETATM   29  N5  UNL     1      27.720   5.652  48.235  1.00  0.00    -0.412 N 
HETATM   30  C21 UNL     1      27.808   7.025  47.911  1.00  0.00     0.118 C 
HETATM   31  C22 UNL     1      29.287   6.958  48.257  1.00  0.00     0.039 C 
HETATM   32  C23 UNL     1      29.092   5.427  48.326  1.00  0.00     0.118 C 
ENDBRANCH  28  29
ENDBRANCH  26  28
ENDBRANCH  22  24
ENDBRANCH   6  22
TORSDOF 12
ENDMDL
MODEL 6
REMARK VINA RESULT:      -7.0      4.574      7.379
REMARK  12 active torsions:
REMARK  status: ('A' for Active; 'I' for Inactive)
REMARK    1  A    between atoms: C2_2  and  N1_3 
REMARK    2  A    between atoms: N1_3  and  C3_4 
REMARK    3  A    between atoms: C3_4  and  C4_5 
REMARK    4  A    between atoms: C3_4  and  C11_14 
REMARK    5  A    between atoms: C5_6  and  O1_7 
REMARK    6  A    between atoms: O1_7  and  C6_8 
REMARK    7  A    between atoms: C6_8  and  C7_9 
REMARK    8  A    between atoms: C11_14  and  C12_15 
REMARK    9  A    between atoms: C15_20  and  N4_21 
REMARK   10  A    between atoms: N4_21  and  C17_23 
REMARK   11  A    between atoms: C19_25  and  C20_26 
REMARK   12  A    between atoms: C20_26  and  N5_27 
ROOT
HETATM    1  C12 UNL     1      23.640   4.278  49.296  1.00  0.00     0.007 A 
HETATM    2  C13 UNL     1      23.669   5.241  48.280  1.00  0.00     0.129 A 
HETATM    3  N2  UNL     1      24.334   6.406  48.355  1.00  0.00    -0.253 NA
HETATM    4  C14 UNL     1      25.029   6.702  49.463  1.00  0.00     0.234 A 
HETATM    5  N3  UNL     1      25.018   5.808  50.440  1.00  0.00    -0.224 NA
HETATM    6  C15 UNL     1      24.364   4.636  50.396  1.00  0.00     0.134 A 
ENDROOT
BRANCH   1   7
HETATM    7  C11 UNL     1      22.856   3.101  48.960  1.00  0.00     0.073 C 
BRANCH   7   8
HETATM    8  C3  UNL     1      21.404   3.216  49.225  1.00  0.00     0.110 C 
BRANCH   8   9
HETATM    9  N1  UNL     1      20.605   2.429  48.293  1.00  0.00    -0.391 N 
HETATM   10  H4  UNL     1      20.613   1.367  48.272  1.00  0.00     0.159 HD
BRANCH   9  11
HETATM   11  C2  UNL     1      19.780   3.082  47.370  1.00  0.00     0.073 C 
HETATM   12  C1  UNL     1      19.980   4.327  47.038  1.00  0.00     0.029 C 
ENDBRANCH   9  11
ENDBRANCH   8   9
BRANCH   8  13
HETATM   13  C4  UNL     1      20.967   2.806  50.577  1.00  0.00     0.022 C 
HETATM   14  C5  UNL     1      20.427   3.059  51.752  1.00  0.00     0.132 C 
BRANCH  14  15
HETATM   15  O1  UNL     1      20.120   2.409  52.939  1.00  0.00    -0.361 OA
BRANCH  15  16
HETATM   16  C6  UNL     1      20.113   0.999  53.057  1.00  0.00     0.206 C 
BRANCH  16  17
HETATM   17  C7  UNL     1      21.441   0.622  53.669  1.00  0.00     0.145 C 
HETATM   18  C8  UNL     1      21.198  -0.476  54.689  1.00  0.00     0.036 C 
HETATM   19  C9  UNL     1      22.576  -1.100  54.767  1.00  0.00     0.029 C 
HETATM   20  C10 UNL     1      23.181  -0.758  53.450  1.00  0.00     0.168 C 
HETATM   21  O2  UNL     1      22.295   0.037  52.743  1.00  0.00    -0.384 OA
ENDBRANCH  16  17
ENDBRANCH  15  16
ENDBRANCH  14  15
ENDBRANCH   8  13
ENDBRANCH   7   8
ENDBRANCH   1   7
BRANCH   6  22
HETATM   22  N4  UNL     1      24.399   3.730  51.489  1.00  0.00    -0.365 N 
HETATM   23  C16 UNL     1      23.868   3.574  52.842  1.00  0.00     0.151 C 
BRANCH  22  24
HETATM   24  C17 UNL     1      25.191   2.551  51.380  1.00  0.00     0.086 C 
HETATM   25  C18 UNL     1      26.695   2.762  51.167  1.00  0.00     0.031 C 
HETATM   26  C19 UNL     1      26.984   1.591  52.049  1.00  0.00     0.007 C 
HETATM   27  C24 UNL     1      25.598   1.856  52.680  1.00  0.00     0.031 C 
BRANCH  26  28
HETATM   28  C20 UNL     1      28.041   1.665  53.075  1.00  0.00     0.121 C 
BRANCH  28  29
HETATM   29  N5  UNL     1      28.553   0.513  53.653  1.00  0.00    -0.412 N 
HETATM   30  C21 UNL     1      27.945  -0.759  53.541  1.00  0.00     0.118 C 
HETATM   31  C22 UNL     1      29.319  -1.327  53.220  1.00  0.00     0.039 C 
HETATM   32  C23 UNL     1      29.869   0.058  53.625  1.00  0.00     0.118 C 
ENDBRANCH  28  29
ENDBRANCH  26  28
ENDBRANCH  22  24
ENDBRANCH   6  22
TORSDOF 12
ENDMDL
MODEL 7
REMARK VINA RESULT:      -6.9      5.565      9.967
REMARK  12 active torsions:
REMARK  status: ('A' for Active; 'I' for Inactive)
REMARK    1  A    between atoms: C2_2  and  N1_3 
REMARK    2  A    between atoms: N1_3  and  C3_4 
REMARK    3  A    between atoms: C3_4  and  C4_5 
REMARK    4  A    between atoms: C3_4  and  C11_14 
REMARK    5  A    between atoms: C5_6  and  O1_7 
REMARK    6  A    between atoms: O1_7  and  C6_8 
REMARK    7  A    between atoms: C6_8  and  C7_9 
REMARK    8  A    between atoms: C11_14  and  C12_15 
REMARK    9  A    between atoms: C15_20  and  N4_21 
REMARK   10  A    between atoms: N4_21  and  C17_23 
REMARK   11  A    between atoms: C19_25  and  C20_26 
REMARK   12  A    between atoms: C20_26  and  N5_27 
ROOT
HETATM    1  C12 UNL     1      21.970   1.475  50.514  1.00  0.00     0.007 A 
HETATM    2  C13 UNL     1      21.570   0.768  49.374  1.00  0.00     0.129 A 
HETATM    3  N2  UNL     1      21.718   1.210  48.113  1.00  0.00    -0.253 NA
HETATM    4  C14 UNL     1      22.283   2.407  47.893  1.00  0.00     0.234 A 
HETATM    5  N3  UNL     1      22.670   3.097  48.955  1.00  0.00    -0.224 NA
HETATM    6  C15 UNL     1      22.536   2.683  50.226  1.00  0.00     0.134 A 
ENDROOT
BRANCH   1   7
HETATM    7  C11 UNL     1      21.708   0.770  51.757  1.00  0.00     0.073 C 
BRANCH   7   8
HETATM    8  C3  UNL     1      20.278   0.505  52.040  1.00  0.00     0.110 C 
BRANCH   8   9
HETATM    9  N1  UNL     1      20.086  -0.241  53.278  1.00  0.00    -0.391 N 
HETATM   10  H4  UNL     1      19.142  -0.612  53.595  1.00  0.00     0.159 HD
BRANCH   9  11
HETATM   11  C2  UNL     1      21.184  -0.493  54.108  1.00  0.00     0.073 C 
HETATM   12  C1  UNL     1      21.528  -1.708  54.436  1.00  0.00     0.029 C 
ENDBRANCH   9  11
ENDBRANCH   8   9
BRANCH   8  13
HETATM   13  C4  UNL     1      19.417   1.703  52.152  1.00  0.00     0.022 C 
HETATM   14  C5  UNL     1      18.723   2.691  51.625  1.00  0.00     0.132 C 
BRANCH  14  15
HETATM   15  O1  UNL     1      17.942   3.766  52.021  1.00  0.00    -0.361 OA
BRANCH  15  16
HETATM   16  C6  UNL     1      16.897   4.286  51.220  1.00  0.00     0.206 C 
BRANCH  16  17
HETATM   17  C7  UNL     1      15.623   3.657  51.733  1.00  0.00     0.145 C 
HETATM   18  C8  UNL     1      15.329   4.233  53.106  1.00  0.00     0.036 C 
HETATM   19  C9  UNL     1      13.841   3.973  53.210  1.00  0.00     0.029 C 
HETATM   20  C10 UNL     1      13.405   3.904  51.788  1.00  0.00     0.168 C 
HETATM   21  O2  UNL     1      14.519   4.022  50.973  1.00  0.00    -0.384 OA
ENDBRANCH  16  17
ENDBRANCH  15  16
ENDBRANCH  14  15
ENDBRANCH   8  13
ENDBRANCH   7   8
ENDBRANCH   1   7
BRANCH   6  22
HETATM   22  N4  UNL     1      22.975   3.484  51.313  1.00  0.00    -0.365 N 
HETATM   23  C16 UNL     1      22.457   4.432  52.296  1.00  0.00     0.151 C 
BRANCH  22  24
HETATM   24  C17 UNL     1      24.357   3.480  51.657  1.00  0.00     0.086 C 
HETATM   25  C18 UNL     1      24.756   2.605  52.852  1.00  0.00     0.031 C 
HETATM   26  C19 UNL     1      26.023   2.230  52.156  1.00  0.00     0.007 C 
HETATM   27  C24 UNL     1      25.282   2.572  50.844  1.00  0.00     0.031 C 
BRANCH  26  28
HETATM   28  C20 UNL     1      26.485   0.830  52.137  1.00  0.00     0.121 C 
BRANCH  28  29
HETATM   29  N5  UNL     1      27.322   0.344  53.130  1.00  0.00    -0.412 N 
HETATM   30  C21 UNL     1      27.848  -0.969  53.142  1.00  0.00     0.118 C 
HETATM   31  C22 UNL     1      29.203  -0.365  53.476  1.00  0.00     0.039 C 
HETATM   32  C23 UNL     1      28.443   0.963  53.679  1.00  0.00     0.118 C 
ENDBRANCH  28  29
ENDBRANCH  26  28
ENDBRANCH  22  24
ENDBRANCH   6  22
TORSDOF 12
ENDMDL
MODEL 8
REMARK VINA RESULT:      -6.9      3.138      7.052
REMARK  12 active torsions:
REMARK  status: ('A' for Active; 'I' for Inactive)
REMARK    1  A    between atoms: C2_2  and  N1_3 
REMARK    2  A    between atoms: N1_3  and  C3_4 
REMARK    3  A    between atoms: C3_4  and  C4_5 
REMARK    4  A    between atoms: C3_4  and  C11_14 
REMARK    5  A    between atoms: C5_6  and  O1_7 
REMARK    6  A    between atoms: O1_7  and  C6_8 
REMARK    7  A    between atoms: C6_8  and  C7_9 
REMARK    8  A    between atoms: C11_14  and  C12_15 
REMARK    9  A    between atoms: C15_20  and  N4_21 
REMARK   10  A    between atoms: N4_21  and  C17_23 
REMARK   11  A    between atoms: C19_25  and  C20_26 
REMARK   12  A    between atoms: C20_26  and  N5_27 
ROOT
HETATM    1  C12 UNL     1      23.724  -0.004  53.115  1.00  0.00     0.007 A 
HETATM    2  C13 UNL     1      23.877  -0.833  54.233  1.00  0.00     0.129 A 
HETATM    3  N2  UNL     1      22.920  -1.060  55.148  1.00  0.00    -0.253 NA
HETATM    4  C14 UNL     1      21.722  -0.470  55.016  1.00  0.00     0.234 A 
HETATM    5  N3  UNL     1      21.552   0.319  53.966  1.00  0.00    -0.224 NA
HETATM    6  C15 UNL     1      22.487   0.566  53.035  1.00  0.00     0.134 A 
ENDROOT
BRANCH   1   7
HETATM    7  C11 UNL     1      24.908   0.063  52.274  1.00  0.00     0.073 C 
BRANCH   7   8
HETATM    8  C3  UNL     1      25.935   1.035  52.712  1.00  0.00     0.110 C 
BRANCH   8   9
HETATM    9  N1  UNL     1      27.193   0.391  53.071  1.00  0.00    -0.391 N 
HETATM   10  H4  UNL     1      27.899   0.051  52.354  1.00  0.00     0.159 HD
BRANCH   9  11
HETATM   11  C2  UNL     1      27.507   0.198  54.421  1.00  0.00     0.073 C 
HETATM   12  C1  UNL     1      28.715   0.385  54.874  1.00  0.00     0.029 C 
ENDBRANCH   9  11
ENDBRANCH   8   9
BRANCH   8  13
HETATM   13  C4  UNL     1      26.284   2.081  51.726  1.00  0.00     0.022 C 
HETATM   14  C5  UNL     1      26.492   2.495  50.492  1.00  0.00     0.132 C 
BRANCH  14  15
HETATM   15  O1  UNL     1      26.844   3.649  49.807  1.00  0.00    -0.361 OA
BRANCH  15  16
HETATM   16  C6  UNL     1      25.915   4.677  49.516  1.00  0.00     0.206 C 
BRANCH  16  17
HETATM   17  C7  UNL     1      26.735   5.905  49.197  1.00  0.00     0.145 C 
HETATM   18  C8  UNL     1      28.011   5.457  48.508  1.00  0.00     0.036 C 
HETATM   19  C9  UNL     1      28.403   6.728  47.783  1.00  0.00     0.029 C 
HETATM   20  C10 UNL     1      27.107   7.444  47.625  1.00  0.00     0.168 C 
HETATM   21  O2  UNL     1      26.113   6.717  48.258  1.00  0.00    -0.384 OA
ENDBRANCH  16  17
ENDBRANCH  15  16
ENDBRANCH  14  15
ENDBRANCH   8  13
ENDBRANCH   7   8
ENDBRANCH   1   7
BRANCH   6  22
HETATM   22  N4  UNL     1      22.226   1.429  51.937  1.00  0.00    -0.365 N 
HETATM   23  C16 UNL     1      22.252   1.435  50.476  1.00  0.00     0.151 C 
BRANCH  22  24
HETATM   24  C17 UNL     1      21.820   2.769  52.197  1.00  0.00     0.086 C 
HETATM   25  C18 UNL     1      22.928   3.829  52.182  1.00  0.00     0.031 C 
HETATM   26  C19 UNL     1      21.992   4.800  51.539  1.00  0.00     0.007 C 
HETATM   27  C24 UNL     1      21.219   3.560  51.034  1.00  0.00     0.031 C 
BRANCH  26  28
HETATM   28  C20 UNL     1      22.434   5.630  50.403  1.00  0.00     0.121 C 
BRANCH  28  29
HETATM   29  N5  UNL     1      22.494   7.011  50.513  1.00  0.00    -0.412 N 
HETATM   30  C21 UNL     1      23.702   7.737  50.631  1.00  0.00     0.118 C 
HETATM   31  C22 UNL     1      23.167   8.694  49.577  1.00  0.00     0.039 C 
HETATM   32  C23 UNL     1      21.821   7.957  49.744  1.00  0.00     0.118 C 
ENDBRANCH  28  29
ENDBRANCH  26  28
ENDBRANCH  22  24
ENDBRANCH   6  22
TORSDOF 12
ENDMDL
MODEL 9
REMARK VINA RESULT:      -6.8      4.162      6.892
REMARK  12 active torsions:
REMARK  status: ('A' for Active; 'I' for Inactive)
REMARK    1  A    between atoms: C2_2  and  N1_3 
REMARK    2  A    between atoms: N1_3  and  C3_4 
REMARK    3  A    between atoms: C3_4  and  C4_5 
REMARK    4  A    between atoms: C3_4  and  C11_14 
REMARK    5  A    between atoms: C5_6  and  O1_7 
REMARK    6  A    between atoms: O1_7  and  C6_8 
REMARK    7  A    between atoms: C6_8  and  C7_9 
REMARK    8  A    between atoms: C11_14  and  C12_15 
REMARK    9  A    between atoms: C15_20  and  N4_21 
REMARK   10  A    between atoms: N4_21  and  C17_23 
REMARK   11  A    between atoms: C19_25  and  C20_26 
REMARK   12  A    between atoms: C20_26  and  N5_27 
ROOT
HETATM    1  C12 UNL     1      22.297   5.195  50.917  1.00  0.00     0.007 A 
HETATM    2  C13 UNL     1      22.029   6.567  50.825  1.00  0.00     0.129 A 
HETATM    3  N2  UNL     1      20.955   7.093  50.211  1.00  0.00    -0.253 NA
HETATM    4  C14 UNL     1      20.056   6.280  49.636  1.00  0.00     0.234 A 
HETATM    5  N3  UNL     1      20.286   4.977  49.709  1.00  0.00    -0.224 NA
HETATM    6  C15 UNL     1      21.348   4.421  50.314  1.00  0.00     0.134 A 
ENDROOT
BRANCH   1   7
HETATM    7  C11 UNL     1      23.518   4.889  51.642  1.00  0.00     0.073 C 
BRANCH   7   8
HETATM    8  C3  UNL     1      24.553   4.176  50.857  1.00  0.00     0.110 C 
BRANCH   8   9
HETATM    9  N1  UNL     1      25.723   5.007  50.598  1.00  0.00    -0.391 N 
HETATM   10  H4  UNL     1      26.673   4.832  51.041  1.00  0.00     0.159 HD
BRANCH   9  11
HETATM   11  C2  UNL     1      25.615   6.096  49.726  1.00  0.00     0.073 C 
HETATM   12  C1  UNL     1      26.264   6.133  48.596  1.00  0.00     0.029 C 
ENDBRANCH   9  11
ENDBRANCH   8   9
BRANCH   8  13
HETATM   13  C4  UNL     1      25.069   2.930  51.465  1.00  0.00     0.022 C 
HETATM   14  C5  UNL     1      24.994   1.638  51.712  1.00  0.00     0.132 C 
BRANCH  14  15
HETATM   15  O1  UNL     1      25.696   0.644  52.378  1.00  0.00    -0.361 OA
BRANCH  15  16
HETATM   16  C6  UNL     1      25.449   0.313  53.732  1.00  0.00     0.206 C 
BRANCH  16  17
HETATM   17  C7  UNL     1      26.784  -0.083  54.317  1.00  0.00     0.145 C 
HETATM   18  C8  UNL     1      27.592  -0.772  53.231  1.00  0.00     0.036 C 
HETATM   19  C9  UNL     1      28.998  -0.585  53.762  1.00  0.00     0.029 C 
HETATM   20  C10 UNL     1      28.879   0.622  54.627  1.00  0.00     0.168 C 
HETATM   21  O2  UNL     1      27.553   1.022  54.657  1.00  0.00    -0.384 OA
ENDBRANCH  16  17
ENDBRANCH  15  16
ENDBRANCH  14  15
ENDBRANCH   8  13
ENDBRANCH   7   8
ENDBRANCH   1   7
BRANCH   6  22
HETATM   22  N4  UNL     1      21.525   3.013  50.346  1.00  0.00    -0.365 N 
HETATM   23  C16 UNL     1      21.958   1.910  49.490  1.00  0.00     0.151 C 
BRANCH  22  24
HETATM   24  C17 UNL     1      21.188   2.304  51.535  1.00  0.00     0.086 C 
HETATM   25  C18 UNL     1      19.698   2.256  51.897  1.00  0.00     0.031 C 
HETATM   26  C19 UNL     1      19.860   0.851  52.379  1.00  0.00     0.007 C 
HETATM   27  C24 UNL     1      21.087   0.781  51.441  1.00  0.00     0.031 C 
BRANCH  26  28
HETATM   28  C20 UNL     1      18.876  -0.185  52.018  1.00  0.00     0.121 C 
BRANCH  28  29
HETATM   29  N5  UNL     1      18.224  -0.919  52.998  1.00  0.00    -0.412 N 
HETATM   30  C21 UNL     1      16.937  -1.481  52.833  1.00  0.00     0.118 C 
HETATM   31  C22 UNL     1      17.482  -2.770  53.428  1.00  0.00     0.039 C 
HETATM   32  C23 UNL     1      18.743  -1.950  53.777  1.00  0.00     0.118 C 
ENDBRANCH  28  29
ENDBRANCH  26  28
ENDBRANCH  22  24
ENDBRANCH   6  22
TORSDOF 12
ENDMDL
