MODEL 1
REMARK VINA RESULT:      -6.9      0.000      0.000
REMARK  8 active torsions:
REMARK  status: ('A' for Active; 'I' for Inactive)
REMARK    1  A    between atoms: C2_2  and  C3_3 
REMARK    2  A    between atoms: C3_3  and  C7_9 
REMARK    3  A    between atoms: C4_4  and  N1_5 
REMARK    4  A    between atoms: N1_5  and  C5_6 
REMARK    5  A    between atoms: C5_6  and  C6_7 
REMARK    6  A    between atoms: C7_9  and  C8_10 
REMARK       I    between atoms: C8_10  and  N2_12 
REMARK    7  A    between atoms: N2_12  and  S1_13 
REMARK    8  A    between atoms: S1_13  and  C9_16 
ROOT
HETATM    1  C8  UNL     1      26.817   2.478  51.210  1.00  0.00     0.235 C 
HETATM    2  O1  UNL     1      27.702   2.483  52.111  1.00  0.00    -0.272 OA
HETATM    3  N2  UNL     1      25.809   1.617  51.739  1.00  0.00    -0.250 N 
HETATM    4  H8  UNL     1      24.869   1.303  51.346  1.00  0.00     0.181 HD
ENDROOT
BRANCH   3   5
HETATM    5  S1  UNL     1      25.927   0.834  53.281  1.00  0.00     0.265 S 
HETATM    6  O2  UNL     1      26.249   1.892  54.314  1.00  0.00    -0.200 OA
HETATM    7  O3  UNL     1      27.080  -0.145  53.295  1.00  0.00    -0.200 OA
BRANCH   5   8
HETATM    8  C9  UNL     1      24.456   0.032  53.745  1.00  0.00     0.080 A 
HETATM    9  C10 UNL     1      24.361  -0.778  54.868  1.00  0.00     0.028 A 
HETATM   10  C11 UNL     1      23.194  -1.412  55.231  1.00  0.00     0.044 A 
HETATM   11  C12 UNL     1      22.084  -1.223  54.433  1.00  0.00     0.116 A 
HETATM   12  F2  UNL     1      20.903  -1.830  54.752  1.00  0.00    -0.206 F 
HETATM   13  C13 UNL     1      22.171  -0.416  53.310  1.00  0.00     0.044 A 
HETATM   14  C14 UNL     1      23.331   0.213  52.951  1.00  0.00     0.028 A 
ENDBRANCH   5   8
ENDBRANCH   3   5
BRANCH   1  15
HETATM   15  C7  UNL     1      26.346   2.942  49.884  1.00  0.00     0.143 C 
BRANCH  15  16
HETATM   16  C3  UNL     1      25.833   4.308  49.852  1.00  0.00    -0.035 C 
HETATM   17  C4  UNL     1      24.796   4.799  50.494  1.00  0.00     0.134 C 
BRANCH  16  18
HETATM   18  C2  UNL     1      26.556   5.267  49.007  1.00  0.00    -0.018 C 
HETATM   19  C1  UNL     1      27.775   5.004  48.573  1.00  0.00     0.031 C 
ENDBRANCH  16  18
BRANCH  17  20
HETATM   20  N1  UNL     1      23.822   4.327  51.382  1.00  0.00    -0.216 NA
BRANCH  20  21
HETATM   21  C5  UNL     1      22.912   3.489  51.011  1.00  0.00     0.013 C 
BRANCH  21  22
HETATM   22  C6  UNL     1      22.147   2.694  50.281  1.00  0.00     0.264 C 
HETATM   23  F1  UNL     1      22.798   1.520  49.983  1.00  0.00    -0.209 F 
ENDBRANCH  21  22
ENDBRANCH  20  21
ENDBRANCH  17  20
ENDBRANCH  15  16
ENDBRANCH   1  15
TORSDOF 8
ENDMDL
MODEL 2
REMARK VINA RESULT:      -6.8      1.275      1.291
REMARK  8 active torsions:
REMARK  status: ('A' for Active; 'I' for Inactive)
REMARK    1  A    between atoms: C2_2  and  C3_3 
REMARK    2  A    between atoms: C3_3  and  C7_9 
REMARK    3  A    between atoms: C4_4  and  N1_5 
REMARK    4  A    between atoms: N1_5  and  C5_6 
REMARK    5  A    between atoms: C5_6  and  C6_7 
REMARK    6  A    between atoms: C7_9  and  C8_10 
REMARK       I    between atoms: C8_10  and  N2_12 
REMARK    7  A    between atoms: N2_12  and  S1_13 
REMARK    8  A    between atoms: S1_13  and  C9_16 
ROOT
HETATM    1  C8  UNL     1      26.775   2.440  51.174  1.00  0.00     0.235 C 
HETATM    2  O1  UNL     1      27.626   2.566  52.100  1.00  0.00    -0.272 OA
HETATM    3  N2  UNL     1      25.844   1.498  51.706  1.00  0.00    -0.250 N 
HETATM    4  H8  UNL     1      24.954   1.075  51.298  1.00  0.00     0.181 HD
ENDROOT
BRANCH   3   5
HETATM    5  S1  UNL     1      25.992   0.783  53.278  1.00  0.00     0.265 S 
HETATM    6  O2  UNL     1      26.314   1.888  54.260  1.00  0.00    -0.200 OA
HETATM    7  O3  UNL     1      27.157  -0.181  53.317  1.00  0.00    -0.200 OA
BRANCH   5   8
HETATM    8  C9  UNL     1      24.537  -0.017  53.795  1.00  0.00     0.080 A 
HETATM    9  C10 UNL     1      24.481  -0.821  54.924  1.00  0.00     0.028 A 
HETATM   10  C11 UNL     1      23.327  -1.453  55.329  1.00  0.00     0.044 A 
HETATM   11  C12 UNL     1      22.190  -1.267  54.569  1.00  0.00     0.116 A 
HETATM   12  F2  UNL     1      21.020  -1.873  54.931  1.00  0.00    -0.206 F 
HETATM   13  C13 UNL     1      22.239  -0.466  53.440  1.00  0.00     0.044 A 
HETATM   14  C14 UNL     1      23.386   0.161  53.039  1.00  0.00     0.028 A 
ENDBRANCH   5   8
ENDBRANCH   3   5
BRANCH   1  15
HETATM   15  C7  UNL     1      26.303   2.809  49.820  1.00  0.00     0.143 C 
BRANCH  15  16
HETATM   16  C3  UNL     1      26.331   4.237  49.521  1.00  0.00    -0.035 C 
HETATM   17  C4  UNL     1      25.381   5.125  49.718  1.00  0.00     0.134 C 
BRANCH  16  18
HETATM   18  C2  UNL     1      27.568   4.766  48.932  1.00  0.00    -0.018 C 
HETATM   19  C1  UNL     1      27.608   5.979  48.415  1.00  0.00     0.031 C 
ENDBRANCH  16  18
BRANCH  17  20
HETATM   20  N1  UNL     1      24.076   5.135  50.227  1.00  0.00    -0.216 NA
BRANCH  20  21
HETATM   21  C5  UNL     1      23.821   4.806  51.449  1.00  0.00     0.013 C 
BRANCH  21  22
HETATM   22  C6  UNL     1      23.286   4.251  52.524  1.00  0.00     0.264 C 
HETATM   23  F1  UNL     1      24.260   3.830  53.398  1.00  0.00    -0.209 F 
ENDBRANCH  21  22
ENDBRANCH  20  21
ENDBRANCH  17  20
ENDBRANCH  15  16
ENDBRANCH   1  15
TORSDOF 8
ENDMDL
MODEL 3
REMARK VINA RESULT:      -6.7      2.993      3.583
REMARK  8 active torsions:
REMARK  status: ('A' for Active; 'I' for Inactive)
REMARK    1  A    between atoms: C2_2  and  C3_3 
REMARK    2  A    between atoms: C3_3  and  C7_9 
REMARK    3  A    between atoms: C4_4  and  N1_5 
REMARK    4  A    between atoms: N1_5  and  C5_6 
REMARK    5  A    between atoms: C5_6  and  C6_7 
REMARK    6  A    between atoms: C7_9  and  C8_10 
REMARK       I    between atoms: C8_10  and  N2_12 
REMARK    7  A    between atoms: N2_12  and  S1_13 
REMARK    8  A    between atoms: S1_13  and  C9_16 
ROOT
HETATM    1  C8  UNL     1      26.582   2.764  50.831  1.00  0.00     0.235 C 
HETATM    2  O1  UNL     1      27.508   2.750  51.692  1.00  0.00    -0.272 OA
HETATM    3  N2  UNL     1      25.526   2.045  51.469  1.00  0.00    -0.250 N 
HETATM    4  H8  UNL     1      24.543   1.795  51.141  1.00  0.00     0.181 HD
ENDROOT
BRANCH   3   5
HETATM    5  S1  UNL     1      25.646   1.372  53.061  1.00  0.00     0.265 S 
HETATM    6  O2  UNL     1      24.280   0.847  53.446  1.00  0.00    -0.200 OA
HETATM    7  O3  UNL     1      25.994   2.445  54.069  1.00  0.00    -0.200 OA
BRANCH   5   8
HETATM    8  C9  UNL     1      26.793   0.068  53.158  1.00  0.00     0.080 A 
HETATM    9  C10 UNL     1      26.554  -1.187  52.615  1.00  0.00     0.028 A 
HETATM   10  C11 UNL     1      27.465  -2.216  52.694  1.00  0.00     0.044 A 
HETATM   11  C12 UNL     1      28.658  -1.971  53.344  1.00  0.00     0.116 A 
HETATM   12  F2  UNL     1      29.594  -2.961  53.448  1.00  0.00    -0.206 F 
HETATM   13  C13 UNL     1      28.903  -0.721  53.888  1.00  0.00     0.044 A 
HETATM   14  C14 UNL     1      27.997   0.300  53.809  1.00  0.00     0.028 A 
ENDBRANCH   5   8
ENDBRANCH   3   5
BRANCH   1  15
HETATM   15  C7  UNL     1      26.093   3.171  49.494  1.00  0.00     0.143 C 
BRANCH  15  16
HETATM   16  C3  UNL     1      25.683   4.567  49.383  1.00  0.00    -0.035 C 
HETATM   17  C4  UNL     1      24.491   5.081  49.594  1.00  0.00     0.134 C 
BRANCH  16  18
HETATM   18  C2  UNL     1      26.719   5.532  48.994  1.00  0.00    -0.018 C 
HETATM   19  C1  UNL     1      27.881   5.124  48.517  1.00  0.00     0.031 C 
ENDBRANCH  16  18
BRANCH  17  20
HETATM   20  N1  UNL     1      23.224   4.615  49.966  1.00  0.00    -0.216 NA
BRANCH  20  21
HETATM   21  C5  UNL     1      22.783   4.734  51.173  1.00  0.00     0.013 C 
BRANCH  21  22
HETATM   22  C6  UNL     1      22.697   4.740  52.494  1.00  0.00     0.264 C 
HETATM   23  F1  UNL     1      23.889   4.366  53.068  1.00  0.00    -0.209 F 
ENDBRANCH  21  22
ENDBRANCH  20  21
ENDBRANCH  17  20
ENDBRANCH  15  16
ENDBRANCH   1  15
TORSDOF 8
ENDMDL
MODEL 4
REMARK VINA RESULT:      -6.6      2.856      6.986
REMARK  8 active torsions:
REMARK  status: ('A' for Active; 'I' for Inactive)
REMARK    1  A    between atoms: C2_2  and  C3_3 
REMARK    2  A    between atoms: C3_3  and  C7_9 
REMARK    3  A    between atoms: C4_4  and  N1_5 
REMARK    4  A    between atoms: N1_5  and  C5_6 
REMARK    5  A    between atoms: C5_6  and  C6_7 
REMARK    6  A    between atoms: C7_9  and  C8_10 
REMARK       I    between atoms: C8_10  and  N2_12 
REMARK    7  A    between atoms: N2_12  and  S1_13 
REMARK    8  A    between atoms: S1_13  and  C9_16 
ROOT
HETATM    1  C8  UNL     1      23.723   1.622  52.906  1.00  0.00     0.235 C 
HETATM    2  O1  UNL     1      24.450   2.516  53.425  1.00  0.00    -0.272 OA
HETATM    3  N2  UNL     1      23.060   2.308  51.844  1.00  0.00    -0.250 N 
HETATM    4  H8  UNL     1      22.349   1.976  51.122  1.00  0.00     0.181 HD
ENDROOT
BRANCH   3   5
HETATM    5  S1  UNL     1      23.306   3.985  51.483  1.00  0.00     0.265 S 
HETATM    6  O2  UNL     1      23.464   4.723  52.795  1.00  0.00    -0.200 OA
HETATM    7  O3  UNL     1      22.085   4.569  50.806  1.00  0.00    -0.200 OA
BRANCH   5   8
HETATM    8  C9  UNL     1      24.720   4.266  50.511  1.00  0.00     0.080 A 
HETATM    9  C10 UNL     1      25.060   5.519  50.020  1.00  0.00     0.028 A 
HETATM   10  C11 UNL     1      26.180   5.736  49.250  1.00  0.00     0.044 A 
HETATM   11  C12 UNL     1      26.986   4.652  48.966  1.00  0.00     0.116 A 
HETATM   12  F2  UNL     1      28.110   4.817  48.206  1.00  0.00    -0.206 F 
HETATM   13  C13 UNL     1      26.653   3.399  49.452  1.00  0.00     0.044 A 
HETATM   14  C14 UNL     1      25.539   3.184  50.216  1.00  0.00     0.028 A 
ENDBRANCH   5   8
ENDBRANCH   3   5
BRANCH   1  15
HETATM   15  C7  UNL     1      23.248   0.219  52.887  1.00  0.00     0.143 C 
BRANCH  15  16
HETATM   16  C3  UNL     1      23.387  -0.500  54.149  1.00  0.00    -0.035 C 
HETATM   17  C4  UNL     1      24.496  -0.846  54.766  1.00  0.00     0.134 C 
BRANCH  16  18
HETATM   18  C2  UNL     1      22.145  -0.887  54.830  1.00  0.00    -0.018 C 
HETATM   19  C1  UNL     1      21.065  -1.206  54.142  1.00  0.00     0.031 C 
ENDBRANCH  16  18
BRANCH  17  20
HETATM   20  N1  UNL     1      25.873  -0.721  54.548  1.00  0.00    -0.216 NA
BRANCH  20  21
HETATM   21  C5  UNL     1      26.399  -0.929  53.387  1.00  0.00     0.013 C 
BRANCH  21  22
HETATM   22  C6  UNL     1      26.992  -0.755  52.217  1.00  0.00     0.264 C 
HETATM   23  F1  UNL     1      26.409   0.275  51.517  1.00  0.00    -0.209 F 
ENDBRANCH  21  22
ENDBRANCH  20  21
ENDBRANCH  17  20
ENDBRANCH  15  16
ENDBRANCH   1  15
TORSDOF 8
ENDMDL
MODEL 5
REMARK VINA RESULT:      -6.6      3.762      7.733
REMARK  8 active torsions:
REMARK  status: ('A' for Active; 'I' for Inactive)
REMARK    1  A    between atoms: C2_2  and  C3_3 
REMARK    2  A    between atoms: C3_3  and  C7_9 
REMARK    3  A    between atoms: C4_4  and  N1_5 
REMARK    4  A    between atoms: N1_5  and  C5_6 
REMARK    5  A    between atoms: C5_6  and  C6_7 
REMARK    6  A    between atoms: C7_9  and  C8_10 
REMARK       I    between atoms: C8_10  and  N2_12 
REMARK    7  A    between atoms: N2_12  and  S1_13 
REMARK    8  A    between atoms: S1_13  and  C9_16 
ROOT
HETATM    1  C8  UNL     1      24.528   2.725  52.612  1.00  0.00     0.235 C 
HETATM    2  O1  UNL     1      23.358   2.991  52.216  1.00  0.00    -0.272 OA
HETATM    3  N2  UNL     1      25.359   3.362  51.640  1.00  0.00    -0.250 N 
HETATM    4  H8  UNL     1      26.419   3.421  51.546  1.00  0.00     0.181 HD
ENDROOT
BRANCH   3   5
HETATM    5  S1  UNL     1      24.745   4.255  50.288  1.00  0.00     0.265 S 
HETATM    6  O2  UNL     1      23.754   5.270  50.815  1.00  0.00    -0.200 OA
HETATM    7  O3  UNL     1      23.973   3.346  49.356  1.00  0.00    -0.200 OA
BRANCH   5   8
HETATM    8  C9  UNL     1      25.990   5.092  49.410  1.00  0.00     0.080 A 
HETATM    9  C10 UNL     1      25.855   6.404  48.978  1.00  0.00     0.028 A 
HETATM   10  C11 UNL     1      26.844   7.063  48.283  1.00  0.00     0.044 A 
HETATM   11  C12 UNL     1      28.009   6.375  48.015  1.00  0.00     0.116 A 
HETATM   12  F2  UNL     1      29.021   6.986  47.328  1.00  0.00    -0.206 F 
HETATM   13  C13 UNL     1      28.152   5.065  48.443  1.00  0.00     0.044 A 
HETATM   14  C14 UNL     1      27.168   4.412  49.133  1.00  0.00     0.028 A 
ENDBRANCH   5   8
ENDBRANCH   3   5
BRANCH   1  15
HETATM   15  C7  UNL     1      25.423   2.074  53.596  1.00  0.00     0.143 C 
BRANCH  15  16
HETATM   16  C3  UNL     1      25.273   0.627  53.706  1.00  0.00    -0.035 C 
HETATM   17  C4  UNL     1      26.080  -0.229  54.294  1.00  0.00     0.134 C 
BRANCH  16  18
HETATM   18  C2  UNL     1      24.076   0.037  53.093  1.00  0.00    -0.018 C 
HETATM   19  C1  UNL     1      23.124  -0.493  53.839  1.00  0.00     0.031 C 
ENDBRANCH  16  18
BRANCH  17  20
HETATM   20  N1  UNL     1      27.293  -0.182  54.992  1.00  0.00    -0.216 NA
BRANCH  20  21
HETATM   21  C5  UNL     1      28.422  -0.037  54.382  1.00  0.00     0.013 C 
BRANCH  21  22
HETATM   22  C6  UNL     1      29.483   0.490  53.791  1.00  0.00     0.264 C 
HETATM   23  F1  UNL     1      30.365  -0.489  53.398  1.00  0.00    -0.209 F 
ENDBRANCH  21  22
ENDBRANCH  20  21
ENDBRANCH  17  20
ENDBRANCH  15  16
ENDBRANCH   1  15
TORSDOF 8
ENDMDL
MODEL 6
REMARK VINA RESULT:      -6.5      2.836      5.275
REMARK  8 active torsions:
REMARK  status: ('A' for Active; 'I' for Inactive)
REMARK    1  A    between atoms: C2_2  and  C3_3 
REMARK    2  A    between atoms: C3_3  and  C7_9 
REMARK    3  A    between atoms: C4_4  and  N1_5 
REMARK    4  A    between atoms: N1_5  and  C5_6 
REMARK    5  A    between atoms: C5_6  and  C6_7 
REMARK    6  A    between atoms: C7_9  and  C8_10 
REMARK       I    between atoms: C8_10  and  N2_12 
REMARK    7  A    between atoms: N2_12  and  S1_13 
REMARK    8  A    between atoms: S1_13  and  C9_16 
ROOT
HETATM    1  C8  UNL     1      26.952   1.984  52.180  1.00  0.00     0.235 C 
HETATM    2  O1  UNL     1      26.808   1.346  51.098  1.00  0.00    -0.272 OA
HETATM    3  N2  UNL     1      26.303   3.228  51.921  1.00  0.00    -0.250 N 
HETATM    4  H8  UNL     1      26.161   4.092  52.529  1.00  0.00     0.181 HD
ENDROOT
BRANCH   3   5
HETATM    5  S1  UNL     1      25.540   3.619  50.415  1.00  0.00     0.265 S 
HETATM    6  O2  UNL     1      26.502   3.263  49.303  1.00  0.00    -0.200 OA
HETATM    7  O3  UNL     1      25.296   5.108  50.311  1.00  0.00    -0.200 OA
BRANCH   5   8
HETATM    8  C9  UNL     1      24.053   2.752  50.166  1.00  0.00     0.080 A 
HETATM    9  C10 UNL     1      23.450   1.992  51.158  1.00  0.00     0.028 A 
HETATM   10  C11 UNL     1      22.273   1.307  50.955  1.00  0.00     0.044 A 
HETATM   11  C12 UNL     1      21.685   1.391  49.709  1.00  0.00     0.116 A 
HETATM   12  F2  UNL     1      20.515   0.729  49.460  1.00  0.00    -0.206 F 
HETATM   13  C13 UNL     1      22.282   2.148  48.715  1.00  0.00     0.044 A 
HETATM   14  C14 UNL     1      23.451   2.827  48.917  1.00  0.00     0.028 A 
ENDBRANCH   5   8
ENDBRANCH   3   5
BRANCH   1  15
HETATM   15  C7  UNL     1      27.472   2.039  53.566  1.00  0.00     0.143 C 
BRANCH  15  16
HETATM   16  C3  UNL     1      28.079   0.804  54.049  1.00  0.00    -0.035 C 
HETATM   17  C4  UNL     1      27.536  -0.125  54.805  1.00  0.00     0.134 C 
BRANCH  16  18
HETATM   18  C2  UNL     1      29.468   0.548  53.647  1.00  0.00    -0.018 C 
HETATM   19  C1  UNL     1      29.936  -0.684  53.568  1.00  0.00     0.031 C 
ENDBRANCH  16  18
BRANCH  17  20
HETATM   20  N1  UNL     1      26.301  -0.349  55.426  1.00  0.00    -0.216 NA
BRANCH  20  21
HETATM   21  C5  UNL     1      25.226  -0.560  54.744  1.00  0.00     0.013 C 
BRANCH  21  22
HETATM   22  C6  UNL     1      24.299  -0.525  53.799  1.00  0.00     0.264 C 
HETATM   23  F1  UNL     1      24.861  -0.669  52.552  1.00  0.00    -0.209 F 
ENDBRANCH  21  22
ENDBRANCH  20  21
ENDBRANCH  17  20
ENDBRANCH  15  16
ENDBRANCH   1  15
TORSDOF 8
ENDMDL
MODEL 7
REMARK VINA RESULT:      -6.5      3.120      6.559
REMARK  8 active torsions:
REMARK  status: ('A' for Active; 'I' for Inactive)
REMARK    1  A    between atoms: C2_2  and  C3_3 
REMARK    2  A    between atoms: C3_3  and  C7_9 
REMARK    3  A    between atoms: C4_4  and  N1_5 
REMARK    4  A    between atoms: N1_5  and  C5_6 
REMARK    5  A    between atoms: C5_6  and  C6_7 
REMARK    6  A    between atoms: C7_9  and  C8_10 
REMARK       I    between atoms: C8_10  and  N2_12 
REMARK    7  A    between atoms: N2_12  and  S1_13 
REMARK    8  A    between atoms: S1_13  and  C9_16 
ROOT
HETATM    1  C8  UNL     1      27.052   1.957  52.315  1.00  0.00     0.235 C 
HETATM    2  O1  UNL     1      26.711   1.495  51.190  1.00  0.00    -0.272 OA
HETATM    3  N2  UNL     1      25.979   2.838  52.650  1.00  0.00    -0.250 N 
HETATM    4  H8  UNL     1      25.811   3.456  53.503  1.00  0.00     0.181 HD
ENDROOT
BRANCH   3   5
HETATM    5  S1  UNL     1      24.599   3.101  51.635  1.00  0.00     0.265 S 
HETATM    6  O2  UNL     1      23.454   3.546  52.518  1.00  0.00    -0.200 OA
HETATM    7  O3  UNL     1      24.162   1.807  50.985  1.00  0.00    -0.200 OA
BRANCH   5   8
HETATM    8  C9  UNL     1      24.875   4.316  50.422  1.00  0.00     0.080 A 
HETATM    9  C10 UNL     1      23.881   5.176  49.978  1.00  0.00     0.028 A 
HETATM   10  C11 UNL     1      24.105   6.135  49.017  1.00  0.00     0.044 A 
HETATM   11  C12 UNL     1      25.374   6.231  48.486  1.00  0.00     0.116 A 
HETATM   12  F2  UNL     1      25.646   7.169  47.529  1.00  0.00    -0.206 F 
HETATM   13  C13 UNL     1      26.372   5.376  48.924  1.00  0.00     0.044 A 
HETATM   14  C14 UNL     1      26.149   4.423  49.879  1.00  0.00     0.028 A 
ENDBRANCH   5   8
ENDBRANCH   3   5
BRANCH   1  15
HETATM   15  C7  UNL     1      28.027   2.009  53.429  1.00  0.00     0.143 C 
BRANCH  15  16
HETATM   16  C3  UNL     1      28.433   0.712  53.958  1.00  0.00    -0.035 C 
HETATM   17  C4  UNL     1      27.751  -0.091  54.745  1.00  0.00     0.134 C 
BRANCH  16  18
HETATM   18  C2  UNL     1      29.763   0.226  53.569  1.00  0.00    -0.018 C 
HETATM   19  C1  UNL     1      30.069  -1.055  53.657  1.00  0.00     0.031 C 
ENDBRANCH  16  18
BRANCH  17  20
HETATM   20  N1  UNL     1      26.498  -0.095  55.370  1.00  0.00    -0.216 NA
BRANCH  20  21
HETATM   21  C5  UNL     1      25.419  -0.393  54.727  1.00  0.00     0.013 C 
BRANCH  21  22
HETATM   22  C6  UNL     1      24.483  -0.473  53.794  1.00  0.00     0.264 C 
HETATM   23  F1  UNL     1      25.035  -0.743  52.564  1.00  0.00    -0.209 F 
ENDBRANCH  21  22
ENDBRANCH  20  21
ENDBRANCH  17  20
ENDBRANCH  15  16
ENDBRANCH   1  15
TORSDOF 8
ENDMDL
MODEL 8
REMARK VINA RESULT:      -6.3      2.967      3.883
REMARK  8 active torsions:
REMARK  status: ('A' for Active; 'I' for Inactive)
REMARK    1  A    between atoms: C2_2  and  C3_3 
REMARK    2  A    between atoms: C3_3  and  C7_9 
REMARK    3  A    between atoms: C4_4  and  N1_5 
REMARK    4  A    between atoms: N1_5  and  C5_6 
REMARK    5  A    between atoms: C5_6  and  C6_7 
REMARK    6  A    between atoms: C7_9  and  C8_10 
REMARK       I    between atoms: C8_10  and  N2_12 
REMARK    7  A    between atoms: N2_12  and  S1_13 
REMARK    8  A    between atoms: S1_13  and  C9_16 
ROOT
HETATM    1  C8  UNL     1      23.610   3.074  50.405  1.00  0.00     0.235 C 
HETATM    2  O1  UNL     1      23.051   2.060  49.897  1.00  0.00    -0.272 OA
HETATM    3  N2  UNL     1      22.802   3.361  51.546  1.00  0.00    -0.250 N 
HETATM    4  H8  UNL     1      22.872   4.122  52.290  1.00  0.00     0.181 HD
ENDROOT
BRANCH   3   5
HETATM    5  S1  UNL     1      21.406   2.435  51.993  1.00  0.00     0.265 S 
HETATM    6  O2  UNL     1      20.781   1.899  50.724  1.00  0.00    -0.200 OA
HETATM    7  O3  UNL     1      20.366   3.320  52.644  1.00  0.00    -0.200 OA
BRANCH   5   8
HETATM    8  C9  UNL     1      21.789   1.097  53.035  1.00  0.00     0.080 A 
HETATM    9  C10 UNL     1      20.864   0.525  53.897  1.00  0.00     0.028 A 
HETATM   10  C11 UNL     1      21.173  -0.534  54.721  1.00  0.00     0.044 A 
HETATM   11  C12 UNL     1      22.458  -1.033  54.674  1.00  0.00     0.116 A 
HETATM   12  F2  UNL     1      22.812  -2.085  55.472  1.00  0.00    -0.206 F 
HETATM   13  C13 UNL     1      23.387  -0.467  53.816  1.00  0.00     0.044 A 
HETATM   14  C14 UNL     1      23.080   0.585  52.999  1.00  0.00     0.028 A 
ENDBRANCH   5   8
ENDBRANCH   3   5
BRANCH   1  15
HETATM   15  C7  UNL     1      24.693   4.083  50.368  1.00  0.00     0.143 C 
BRANCH  15  16
HETATM   16  C3  UNL     1      26.045   3.538  50.305  1.00  0.00    -0.035 C 
HETATM   17  C4  UNL     1      26.600   2.651  51.102  1.00  0.00     0.134 C 
BRANCH  16  18
HETATM   18  C2  UNL     1      26.905   4.027  49.219  1.00  0.00    -0.018 C 
HETATM   19  C1  UNL     1      26.832   5.279  48.808  1.00  0.00     0.031 C 
ENDBRANCH  16  18
BRANCH  17  20
HETATM   20  N1  UNL     1      26.226   1.911  52.231  1.00  0.00    -0.216 NA
BRANCH  20  21
HETATM   21  C5  UNL     1      26.847   0.831  52.571  1.00  0.00     0.013 C 
BRANCH  21  22
HETATM   22  C6  UNL     1      27.317  -0.406  52.588  1.00  0.00     0.264 C 
HETATM   23  F1  UNL     1      26.298  -1.322  52.476  1.00  0.00    -0.209 F 
ENDBRANCH  21  22
ENDBRANCH  20  21
ENDBRANCH  17  20
ENDBRANCH  15  16
ENDBRANCH   1  15
TORSDOF 8
ENDMDL
MODEL 9
REMARK VINA RESULT:      -6.3      1.733      2.806
REMARK  8 active torsions:
REMARK  status: ('A' for Active; 'I' for Inactive)
REMARK    1  A    between atoms: C2_2  and  C3_3 
REMARK    2  A    between atoms: C3_3  and  C7_9 
REMARK    3  A    between atoms: C4_4  and  N1_5 
REMARK    4  A    between atoms: N1_5  and  C5_6 
REMARK    5  A    between atoms: C5_6  and  C6_7 
REMARK    6  A    between atoms: C7_9  and  C8_10 
REMARK       I    between atoms: C8_10  and  N2_12 
REMARK    7  A    between atoms: N2_12  and  S1_13 
REMARK    8  A    between atoms: S1_13  and  C9_16 
ROOT
HETATM    1  C8  UNL     1      25.577   2.468  52.124  1.00  0.00     0.235 C 
HETATM    2  O1  UNL     1      25.121   2.676  53.285  1.00  0.00    -0.272 OA
HETATM    3  N2  UNL     1      26.122   1.151  52.213  1.00  0.00    -0.250 N 
HETATM    4  H8  UNL     1      26.614   0.539  51.492  1.00  0.00     0.181 HD
ENDROOT
BRANCH   3   5
HETATM    5  S1  UNL     1      26.087   0.192  53.656  1.00  0.00     0.265 S 
HETATM    6  O2  UNL     1      26.522   1.073  54.808  1.00  0.00    -0.200 OA
HETATM    7  O3  UNL     1      27.095  -0.933  53.572  1.00  0.00    -0.200 OA
BRANCH   5   8
HETATM    8  C9  UNL     1      24.508  -0.445  54.006  1.00  0.00     0.080 A 
HETATM    9  C10 UNL     1      24.191  -1.051  55.214  1.00  0.00     0.028 A 
HETATM   10  C11 UNL     1      22.939  -1.554  55.485  1.00  0.00     0.044 A 
HETATM   11  C12 UNL     1      21.973  -1.443  54.505  1.00  0.00     0.116 A 
HETATM   12  F2  UNL     1      20.715  -1.927  54.728  1.00  0.00    -0.206 F 
HETATM   13  C13 UNL     1      22.283  -0.839  53.298  1.00  0.00     0.044 A 
HETATM   14  C14 UNL     1      23.527  -0.340  53.029  1.00  0.00     0.028 A 
ENDBRANCH   5   8
ENDBRANCH   3   5
BRANCH   1  15
HETATM   15  C7  UNL     1      25.803   2.945  50.741  1.00  0.00     0.143 C 
BRANCH  15  16
HETATM   16  C3  UNL     1      24.710   3.722  50.167  1.00  0.00    -0.035 C 
HETATM   17  C4  UNL     1      24.710   4.992  49.826  1.00  0.00     0.134 C 
BRANCH  16  18
HETATM   18  C2  UNL     1      23.447   3.011  49.929  1.00  0.00    -0.018 C 
HETATM   19  C1  UNL     1      23.105   2.625  48.714  1.00  0.00     0.031 C 
ENDBRANCH  16  18
BRANCH  17  20
HETATM   20  N1  UNL     1      25.616   6.060  49.848  1.00  0.00    -0.216 NA
BRANCH  20  21
HETATM   21  C5  UNL     1      26.680   6.062  49.119  1.00  0.00     0.013 C 
BRANCH  21  22
HETATM   22  C6  UNL     1      27.719   5.677  48.394  1.00  0.00     0.264 C 
HETATM   23  F1  UNL     1      27.868   4.310  48.434  1.00  0.00    -0.209 F 
ENDBRANCH  21  22
ENDBRANCH  20  21
ENDBRANCH  17  20
ENDBRANCH  15  16
ENDBRANCH   1  15
TORSDOF 8
ENDMDL
