MODEL 1
REMARK VINA RESULT:      -7.9      0.000      0.000
REMARK  9 active torsions:
REMARK  status: ('A' for Active; 'I' for Inactive)
REMARK    1  A    between atoms: O1_2  and  C2_3 
REMARK    2  A    between atoms: C2_3  and  C3_5 
REMARK    3  A    between atoms: C3_5  and  C12_16 
REMARK    4  A    between atoms: C4_6  and  S1_7 
REMARK    5  A    between atoms: S1_7  and  C5_8 
REMARK    6  A    between atoms: C12_16  and  C13_17 
REMARK    7  A    between atoms: C13_17  and  C14_18 
REMARK       I    between atoms: C14_18  and  N2_20 
REMARK    8  A    between atoms: N2_20  and  C15_21 
REMARK    9  A    between atoms: C15_21  and  C16_22 
ROOT
HETATM    1  C3  UNL     1      23.670   4.051  51.803  1.00  0.00     0.024 C 
HETATM    2  C4  UNL     1      24.337   3.283  52.645  1.00  0.00     0.060 C 
ENDROOT
BRANCH   1   3
HETATM    3  C2  UNL     1      24.058   4.260  50.416  1.00  0.00     0.289 C 
HETATM    4  O2  UNL     1      24.093   3.648  49.349  1.00  0.00    -0.260 OA
BRANCH   3   5
HETATM    5  O1  UNL     1      24.558   5.519  50.107  1.00  0.00    -0.323 OA
HETATM    6  C1  UNL     1      25.844   5.655  49.543  1.00  0.00     0.213 C 
ENDBRANCH   3   5
ENDBRANCH   1   3
BRANCH   1   7
HETATM    7  C12 UNL     1      22.438   4.773  52.275  1.00  0.00     0.054 C 
BRANCH   7   8
HETATM    8  C13 UNL     1      21.309   4.359  51.356  1.00  0.00     0.107 C 
BRANCH   8   9
HETATM    9  C14 UNL     1      20.563   3.170  51.844  1.00  0.00     0.218 C 
HETATM   10  O3  UNL     1      19.642   3.158  52.677  1.00  0.00    -0.274 OA
HETATM   11  N2  UNL     1      21.056   1.981  51.212  1.00  0.00    -0.357 N 
HETATM   12  H15 UNL     1      21.833   1.932  50.503  1.00  0.00     0.162 HD
BRANCH  11  13
HETATM   13  C15 UNL     1      20.475   0.674  51.525  1.00  0.00     0.161 C 
BRANCH  13  14
HETATM   14  C16 UNL     1      21.138   0.009  52.652  1.00  0.00    -0.041 A 
HETATM   15  C17 UNL     1      20.625  -0.730  53.695  1.00  0.00     0.009 A 
HETATM   16  C18 UNL     1      21.437  -1.282  54.656  1.00  0.00     0.001 A 
HETATM   17  C19 UNL     1      22.820  -1.123  54.629  1.00  0.00     0.000 A 
HETATM   18  C20 UNL     1      23.370  -0.384  53.593  1.00  0.00     0.001 A 
HETATM   19  C21 UNL     1      22.525   0.148  52.655  1.00  0.00     0.009 A 
ENDBRANCH  13  14
ENDBRANCH  11  13
ENDBRANCH   8   9
ENDBRANCH   7   8
ENDBRANCH   1   7
BRANCH   2  20
HETATM   20  S1  UNL     1      25.805   2.374  52.261  1.00  0.00    -0.111 SA
BRANCH  20  21
HETATM   21  C5  UNL     1      26.629   1.629  53.652  1.00  0.00     0.184 A 
HETATM   22  N1  UNL     1      27.929   2.120  54.010  1.00  0.00    -0.372 N 
HETATM   23  C6  UNL     1      28.567   0.871  53.784  1.00  0.00     0.038 A 
HETATM   24  H6  UNL     1      28.208   3.083  54.319  1.00  0.00     0.161 HD
HETATM   25  C7  UNL     1      29.728   0.126  53.782  1.00  0.00     0.030 A 
HETATM   26  C11 UNL     1      27.336   0.352  53.431  1.00  0.00     0.001 A 
HETATM   27  C8  UNL     1      29.626  -1.215  53.403  1.00  0.00     0.002 A 
HETATM   28  C9  UNL     1      28.400  -1.752  53.046  1.00  0.00     0.001 A 
HETATM   29  C10 UNL     1      27.269  -0.973  53.062  1.00  0.00     0.012 A 
ENDBRANCH  20  21
ENDBRANCH   2  20
TORSDOF 9
ENDMDL
MODEL 2
REMARK VINA RESULT:      -7.7      2.341      5.969
REMARK  9 active torsions:
REMARK  status: ('A' for Active; 'I' for Inactive)
REMARK    1  A    between atoms: O1_2  and  C2_3 
REMARK    2  A    between atoms: C2_3  and  C3_5 
REMARK    3  A    between atoms: C3_5  and  C12_16 
REMARK    4  A    between atoms: C4_6  and  S1_7 
REMARK    5  A    between atoms: S1_7  and  C5_8 
REMARK    6  A    between atoms: C12_16  and  C13_17 
REMARK    7  A    between atoms: C13_17  and  C14_18 
REMARK       I    between atoms: C14_18  and  N2_20 
REMARK    8  A    between atoms: N2_20  and  C15_21 
REMARK    9  A    between atoms: C15_21  and  C16_22 
ROOT
HETATM    1  C3  UNL     1      21.642   1.469  52.330  1.00  0.00     0.024 C 
HETATM    2  C4  UNL     1      22.767   1.352  51.648  1.00  0.00     0.060 C 
ENDROOT
BRANCH   1   3
HETATM    3  C2  UNL     1      20.733   2.599  52.202  1.00  0.00     0.289 C 
HETATM    4  O2  UNL     1      20.549   3.715  52.686  1.00  0.00    -0.260 OA
BRANCH   3   5
HETATM    5  O1  UNL     1      19.722   2.462  51.258  1.00  0.00    -0.323 OA
HETATM    6  C1  UNL     1      18.439   2.991  51.509  1.00  0.00     0.213 C 
ENDBRANCH   3   5
ENDBRANCH   1   3
BRANCH   1   7
HETATM    7  C12 UNL     1      21.251   0.395  53.307  1.00  0.00     0.054 C 
BRANCH   7   8
HETATM    8  C13 UNL     1      22.250  -0.729  53.144  1.00  0.00     0.107 C 
BRANCH   8   9
HETATM    9  C14 UNL     1      23.156  -0.882  54.311  1.00  0.00     0.218 C 
HETATM   10  O3  UNL     1      22.854  -1.297  55.442  1.00  0.00    -0.274 OA
HETATM   11  N2  UNL     1      24.486  -0.471  53.964  1.00  0.00    -0.357 N 
HETATM   12  H15 UNL     1      24.799  -0.109  53.026  1.00  0.00     0.162 HD
BRANCH  11  13
HETATM   13  C15 UNL     1      25.567  -0.533  54.950  1.00  0.00     0.161 C 
BRANCH  13  14
HETATM   14  C16 UNL     1      26.726   0.287  54.578  1.00  0.00    -0.041 A 
HETATM   15  C17 UNL     1      28.065   0.144  54.872  1.00  0.00     0.009 A 
HETATM   16  C18 UNL     1      29.003   1.036  54.408  1.00  0.00     0.001 A 
HETATM   17  C19 UNL     1      28.651   2.128  53.620  1.00  0.00     0.000 A 
HETATM   18  C20 UNL     1      27.312   2.302  53.307  1.00  0.00     0.001 A 
HETATM   19  C21 UNL     1      26.410   1.390  53.788  1.00  0.00     0.009 A 
ENDBRANCH  13  14
ENDBRANCH  11  13
ENDBRANCH   8   9
ENDBRANCH   7   8
ENDBRANCH   1   7
BRANCH   2  20
HETATM   20  S1  UNL     1      23.380   2.521  50.471  1.00  0.00    -0.111 SA
BRANCH  20  21
HETATM   21  C5  UNL     1      24.581   3.677  51.095  1.00  0.00     0.184 A 
HETATM   22  N1  UNL     1      24.230   5.068  51.120  1.00  0.00    -0.372 N 
HETATM   23  C6  UNL     1      25.277   5.445  50.237  1.00  0.00     0.038 A 
HETATM   24  H6  UNL     1      23.453   5.543  51.641  1.00  0.00     0.161 HD
HETATM   25  C7  UNL     1      25.931   6.445  49.546  1.00  0.00     0.030 A 
HETATM   26  C11 UNL     1      25.653   4.117  50.182  1.00  0.00     0.001 A 
HETATM   27  C8  UNL     1      27.024   6.068  48.761  1.00  0.00     0.002 A 
HETATM   28  C9  UNL     1      27.416   4.741  48.694  1.00  0.00     0.001 A 
HETATM   29  C10 UNL     1      26.736   3.779  49.399  1.00  0.00     0.012 A 
ENDBRANCH  20  21
ENDBRANCH   2  20
TORSDOF 9
ENDMDL
MODEL 3
REMARK VINA RESULT:      -7.7      2.025      5.654
REMARK  9 active torsions:
REMARK  status: ('A' for Active; 'I' for Inactive)
REMARK    1  A    between atoms: O1_2  and  C2_3 
REMARK    2  A    between atoms: C2_3  and  C3_5 
REMARK    3  A    between atoms: C3_5  and  C12_16 
REMARK    4  A    between atoms: C4_6  and  S1_7 
REMARK    5  A    between atoms: S1_7  and  C5_8 
REMARK    6  A    between atoms: C12_16  and  C13_17 
REMARK    7  A    between atoms: C13_17  and  C14_18 
REMARK       I    between atoms: C14_18  and  N2_20 
REMARK    8  A    between atoms: N2_20  and  C15_21 
REMARK    9  A    between atoms: C15_21  and  C16_22 
ROOT
HETATM    1  C3  UNL     1      21.194   3.999  51.431  1.00  0.00     0.024 C 
HETATM    2  C4  UNL     1      20.576   3.251  52.326  1.00  0.00     0.060 C 
ENDROOT
BRANCH   1   3
HETATM    3  C2  UNL     1      20.978   3.890  49.996  1.00  0.00     0.289 C 
HETATM    4  O2  UNL     1      20.153   4.215  49.144  1.00  0.00    -0.260 OA
BRANCH   3   5
HETATM    5  O1  UNL     1      21.965   3.222  49.282  1.00  0.00    -0.323 OA
HETATM    6  C1  UNL     1      21.924   1.818  49.152  1.00  0.00     0.213 C 
ENDBRANCH   3   5
ENDBRANCH   1   3
BRANCH   1   7
HETATM    7  C12 UNL     1      22.192   5.028  51.887  1.00  0.00     0.054 C 
BRANCH   7   8
HETATM    8  C13 UNL     1      23.310   4.279  52.577  1.00  0.00     0.107 C 
BRANCH   8   9
HETATM    9  C14 UNL     1      24.430   3.929  51.667  1.00  0.00     0.218 C 
HETATM   10  O3  UNL     1      24.644   4.392  50.534  1.00  0.00    -0.274 OA
HETATM   11  N2  UNL     1      25.276   2.945  52.276  1.00  0.00    -0.357 N 
HETATM   12  H15 UNL     1      25.143   2.516  53.229  1.00  0.00     0.162 HD
BRANCH  11  13
HETATM   13  C15 UNL     1      26.458   2.438  51.575  1.00  0.00     0.161 C 
BRANCH  13  14
HETATM   14  C16 UNL     1      27.266   1.531  52.397  1.00  0.00    -0.041 A 
HETATM   15  C17 UNL     1      28.283   1.786  53.290  1.00  0.00     0.009 A 
HETATM   16  C18 UNL     1      28.912   0.773  53.974  1.00  0.00     0.001 A 
HETATM   17  C19 UNL     1      28.556  -0.562  53.801  1.00  0.00     0.000 A 
HETATM   18  C20 UNL     1      27.535  -0.853  52.909  1.00  0.00     0.001 A 
HETATM   19  C21 UNL     1      26.934   0.185  52.249  1.00  0.00     0.009 A 
ENDBRANCH  13  14
ENDBRANCH  11  13
ENDBRANCH   8   9
ENDBRANCH   7   8
ENDBRANCH   1   7
BRANCH   2  20
HETATM   20  S1  UNL     1      19.387   1.992  51.965  1.00  0.00    -0.111 SA
BRANCH  20  21
HETATM   21  C5  UNL     1      19.977   0.319  52.108  1.00  0.00     0.184 A 
HETATM   22  N1  UNL     1      19.552  -0.454  53.240  1.00  0.00    -0.372 N 
HETATM   23  C6  UNL     1      20.872  -0.628  53.735  1.00  0.00     0.038 A 
HETATM   24  H6  UNL     1      18.581  -0.738  53.517  1.00  0.00     0.161 HD
HETATM   25  C7  UNL     1      21.707  -1.154  54.700  1.00  0.00     0.030 A 
HETATM   26  C11 UNL     1      21.329   0.109  52.660  1.00  0.00     0.001 A 
HETATM   27  C8  UNL     1      23.076  -0.915  54.558  1.00  0.00     0.002 A 
HETATM   28  C9  UNL     1      23.553  -0.177  53.486  1.00  0.00     0.001 A 
HETATM   29  C10 UNL     1      22.685   0.327  52.549  1.00  0.00     0.012 A 
ENDBRANCH  20  21
ENDBRANCH   2  20
TORSDOF 9
ENDMDL
MODEL 4
REMARK VINA RESULT:      -7.7      4.118      7.996
REMARK  9 active torsions:
REMARK  status: ('A' for Active; 'I' for Inactive)
REMARK    1  A    between atoms: O1_2  and  C2_3 
REMARK    2  A    between atoms: C2_3  and  C3_5 
REMARK    3  A    between atoms: C3_5  and  C12_16 
REMARK    4  A    between atoms: C4_6  and  S1_7 
REMARK    5  A    between atoms: S1_7  and  C5_8 
REMARK    6  A    between atoms: C12_16  and  C13_17 
REMARK    7  A    between atoms: C13_17  and  C14_18 
REMARK       I    between atoms: C14_18  and  N2_20 
REMARK    8  A    between atoms: N2_20  and  C15_21 
REMARK    9  A    between atoms: C15_21  and  C16_22 
ROOT
HETATM    1  C3  UNL     1      26.288   4.005  49.927  1.00  0.00     0.024 C 
HETATM    2  C4  UNL     1      26.502   2.965  50.712  1.00  0.00     0.060 C 
ENDROOT
BRANCH   1   3
HETATM    3  C2  UNL     1      25.106   4.850  50.007  1.00  0.00     0.289 C 
HETATM    4  O2  UNL     1      24.685   5.818  50.639  1.00  0.00    -0.260 OA
BRANCH   3   5
HETATM    5  O1  UNL     1      24.074   4.538  49.129  1.00  0.00    -0.323 OA
HETATM    6  C1  UNL     1      22.777   5.047  49.347  1.00  0.00     0.213 C 
ENDBRANCH   3   5
ENDBRANCH   1   3
BRANCH   1   7
HETATM    7  C12 UNL     1      27.300   4.359  48.872  1.00  0.00     0.054 C 
BRANCH   7   8
HETATM    8  C13 UNL     1      27.165   5.843  48.617  1.00  0.00     0.107 C 
BRANCH   8   9
HETATM    9  C14 UNL     1      28.413   6.466  48.106  1.00  0.00     0.218 C 
HETATM   10  O3  UNL     1      28.506   7.344  47.232  1.00  0.00    -0.274 OA
HETATM   11  N2  UNL     1      29.555   5.908  48.770  1.00  0.00    -0.357 N 
HETATM   12  H15 UNL     1      29.536   5.163  49.514  1.00  0.00     0.162 HD
BRANCH  11  13
HETATM   13  C15 UNL     1      30.907   6.364  48.442  1.00  0.00     0.161 C 
BRANCH  13  14
HETATM   14  C16 UNL     1      31.567   5.522  47.439  1.00  0.00    -0.041 A 
HETATM   15  C17 UNL     1      31.667   4.152  47.334  1.00  0.00     0.009 A 
HETATM   16  C18 UNL     1      32.336   3.556  46.292  1.00  0.00     0.001 A 
HETATM   17  C19 UNL     1      32.947   4.303  45.288  1.00  0.00     0.000 A 
HETATM   18  C20 UNL     1      32.865   5.685  45.363  1.00  0.00     0.001 A 
HETATM   19  C21 UNL     1      32.189   6.238  46.418  1.00  0.00     0.009 A 
ENDBRANCH  13  14
ENDBRANCH  11  13
ENDBRANCH   8   9
ENDBRANCH   7   8
ENDBRANCH   1   7
BRANCH   2  20
HETATM   20  S1  UNL     1      25.416   2.405  51.991  1.00  0.00    -0.111 SA
BRANCH  20  21
HETATM   21  C5  UNL     1      26.213   1.840  53.479  1.00  0.00     0.184 A 
HETATM   22  N1  UNL     1      27.388   2.535  53.922  1.00  0.00    -0.372 N 
HETATM   23  C6  UNL     1      28.223   1.392  53.807  1.00  0.00     0.038 A 
HETATM   24  H6  UNL     1      27.491   3.539  54.209  1.00  0.00     0.161 HD
HETATM   25  C7  UNL     1      29.478   0.833  53.938  1.00  0.00     0.030 A 
HETATM   26  C11 UNL     1      27.120   0.680  53.377  1.00  0.00     0.001 A 
HETATM   27  C8  UNL     1      29.612  -0.519  53.613  1.00  0.00     0.002 A 
HETATM   28  C9  UNL     1      28.516  -1.249  53.180  1.00  0.00     0.001 A 
HETATM   29  C10 UNL     1      27.285  -0.652  53.065  1.00  0.00     0.012 A 
ENDBRANCH  20  21
ENDBRANCH   2  20
TORSDOF 9
ENDMDL
MODEL 5
REMARK VINA RESULT:      -7.6      2.171      5.119
REMARK  9 active torsions:
REMARK  status: ('A' for Active; 'I' for Inactive)
REMARK    1  A    between atoms: O1_2  and  C2_3 
REMARK    2  A    between atoms: C2_3  and  C3_5 
REMARK    3  A    between atoms: C3_5  and  C12_16 
REMARK    4  A    between atoms: C4_6  and  S1_7 
REMARK    5  A    between atoms: S1_7  and  C5_8 
REMARK    6  A    between atoms: C12_16  and  C13_17 
REMARK    7  A    between atoms: C13_17  and  C14_18 
REMARK       I    between atoms: C14_18  and  N2_20 
REMARK    8  A    between atoms: N2_20  and  C15_21 
REMARK    9  A    between atoms: C15_21  and  C16_22 
ROOT
HETATM    1  C3  UNL     1      22.684   1.322  52.718  1.00  0.00     0.024 C 
HETATM    2  C4  UNL     1      23.616   2.255  52.659  1.00  0.00     0.060 C 
ENDROOT
BRANCH   1   3
HETATM    3  C2  UNL     1      22.872   0.029  53.358  1.00  0.00     0.289 C 
HETATM    4  O2  UNL     1      23.572  -0.978  53.253  1.00  0.00    -0.260 OA
BRANCH   3   5
HETATM    5  O1  UNL     1      22.043  -0.241  54.441  1.00  0.00    -0.323 OA
HETATM    6  C1  UNL     1      21.166  -1.346  54.407  1.00  0.00     0.213 C 
ENDBRANCH   3   5
ENDBRANCH   1   3
BRANCH   1   7
HETATM    7  C12 UNL     1      21.340   1.576  52.092  1.00  0.00     0.054 C 
BRANCH   7   8
HETATM    8  C13 UNL     1      21.215   0.625  50.923  1.00  0.00     0.107 C 
BRANCH   8   9
HETATM    9  C14 UNL     1      21.531   1.258  49.617  1.00  0.00     0.218 C 
HETATM   10  O3  UNL     1      21.547   0.706  48.504  1.00  0.00    -0.274 OA
HETATM   11  N2  UNL     1      21.832   2.648  49.798  1.00  0.00    -0.357 N 
HETATM   12  H15 UNL     1      21.836   3.167  50.715  1.00  0.00     0.162 HD
BRANCH  11  13
HETATM   13  C15 UNL     1      22.172   3.494  48.653  1.00  0.00     0.161 C 
BRANCH  13  14
HETATM   14  C16 UNL     1      23.459   4.180  48.810  1.00  0.00    -0.041 A 
HETATM   15  C17 UNL     1      23.839   5.469  48.511  1.00  0.00     0.009 A 
HETATM   16  C18 UNL     1      25.116   5.919  48.750  1.00  0.00     0.001 A 
HETATM   17  C19 UNL     1      26.091   5.096  49.306  1.00  0.00     0.000 A 
HETATM   18  C20 UNL     1      25.743   3.792  49.620  1.00  0.00     0.001 A 
HETATM   19  C21 UNL     1      24.460   3.384  49.366  1.00  0.00     0.009 A 
ENDBRANCH  13  14
ENDBRANCH  11  13
ENDBRANCH   8   9
ENDBRANCH   7   8
ENDBRANCH   1   7
BRANCH   2  20
HETATM   20  S1  UNL     1      25.247   2.118  53.330  1.00  0.00    -0.111 SA
BRANCH  20  21
HETATM   21  C5  UNL     1      26.426   1.259  52.310  1.00  0.00     0.184 A 
HETATM   22  N1  UNL     1      26.256  -0.153  52.124  1.00  0.00    -0.372 N 
HETATM   23  C6  UNL     1      27.504  -0.478  52.719  1.00  0.00     0.038 A 
HETATM   24  H6  UNL     1      25.453  -0.669  51.688  1.00  0.00     0.161 HD
HETATM   25  C7  UNL     1      28.410  -1.446  53.100  1.00  0.00     0.030 A 
HETATM   26  C11 UNL     1      27.713   0.873  52.919  1.00  0.00     0.001 A 
HETATM   27  C8  UNL     1      29.587  -1.013  53.715  1.00  0.00     0.002 A 
HETATM   28  C9  UNL     1      29.814   0.338  53.923  1.00  0.00     0.001 A 
HETATM   29  C10 UNL     1      28.885   1.268  53.527  1.00  0.00     0.012 A 
ENDBRANCH  20  21
ENDBRANCH   2  20
TORSDOF 9
ENDMDL
MODEL 6
REMARK VINA RESULT:      -7.5      2.038      5.946
REMARK  9 active torsions:
REMARK  status: ('A' for Active; 'I' for Inactive)
REMARK    1  A    between atoms: O1_2  and  C2_3 
REMARK    2  A    between atoms: C2_3  and  C3_5 
REMARK    3  A    between atoms: C3_5  and  C12_16 
REMARK    4  A    between atoms: C4_6  and  S1_7 
REMARK    5  A    between atoms: S1_7  and  C5_8 
REMARK    6  A    between atoms: C12_16  and  C13_17 
REMARK    7  A    between atoms: C13_17  and  C14_18 
REMARK       I    between atoms: C14_18  and  N2_20 
REMARK    8  A    between atoms: N2_20  and  C15_21 
REMARK    9  A    between atoms: C15_21  and  C16_22 
ROOT
HETATM    1  C3  UNL     1      22.846   1.716  52.649  1.00  0.00     0.024 C 
HETATM    2  C4  UNL     1      24.141   1.478  52.754  1.00  0.00     0.060 C 
ENDROOT
BRANCH   1   3
HETATM    3  C2  UNL     1      21.819   0.700  52.828  1.00  0.00     0.289 C 
HETATM    4  O2  UNL     1      21.076  -0.012  52.155  1.00  0.00    -0.260 OA
BRANCH   3   5
HETATM    5  O1  UNL     1      21.519   0.364  54.143  1.00  0.00    -0.323 OA
HETATM    6  C1  UNL     1      21.325  -0.985  54.506  1.00  0.00     0.213 C 
ENDBRANCH   3   5
ENDBRANCH   1   3
BRANCH   1   7
HETATM    7  C12 UNL     1      22.372   3.104  52.317  1.00  0.00     0.054 C 
BRANCH   7   8
HETATM    8  C13 UNL     1      23.574   4.015  52.425  1.00  0.00     0.107 C 
BRANCH   8   9
HETATM    9  C14 UNL     1      23.634   5.037  51.349  1.00  0.00     0.218 C 
HETATM   10  O3  UNL     1      23.074   6.146  51.341  1.00  0.00    -0.274 OA
HETATM   11  N2  UNL     1      24.452   4.571  50.267  1.00  0.00    -0.357 N 
HETATM   12  H15 UNL     1      24.947   3.643  50.218  1.00  0.00     0.162 HD
BRANCH  11  13
HETATM   13  C15 UNL     1      24.670   5.406  49.083  1.00  0.00     0.161 C 
BRANCH  13  14
HETATM   14  C16 UNL     1      26.091   5.598  48.773  1.00  0.00    -0.041 A 
HETATM   15  C17 UNL     1      27.150   4.718  48.809  1.00  0.00     0.009 A 
HETATM   16  C18 UNL     1      28.423   5.108  48.465  1.00  0.00     0.001 A 
HETATM   17  C19 UNL     1      28.708   6.410  48.063  1.00  0.00     0.000 A 
HETATM   18  C20 UNL     1      27.664   7.321  48.016  1.00  0.00     0.001 A 
HETATM   19  C21 UNL     1      26.412   6.892  48.367  1.00  0.00     0.009 A 
ENDBRANCH  13  14
ENDBRANCH  11  13
ENDBRANCH   8   9
ENDBRANCH   7   8
ENDBRANCH   1   7
BRANCH   2  20
HETATM   20  S1  UNL     1      24.868  -0.091  53.126  1.00  0.00    -0.111 SA
BRANCH  20  21
HETATM   21  C5  UNL     1      26.148  -0.067  54.363  1.00  0.00     0.184 A 
HETATM   22  N1  UNL     1      26.760   1.192  54.678  1.00  0.00    -0.372 N 
HETATM   23  C6  UNL     1      28.054   0.774  54.269  1.00  0.00     0.038 A 
HETATM   24  H6  UNL     1      26.319   2.060  55.070  1.00  0.00     0.161 HD
HETATM   25  C7  UNL     1      29.390   1.074  54.102  1.00  0.00     0.030 A 
HETATM   26  C11 UNL     1      27.511  -0.457  53.952  1.00  0.00     0.001 A 
HETATM   27  C8  UNL     1      30.211   0.069  53.585  1.00  0.00     0.002 A 
HETATM   28  C9  UNL     1      29.684  -1.171  53.262  1.00  0.00     0.001 A 
HETATM   29  C10 UNL     1      28.348  -1.427  53.445  1.00  0.00     0.012 A 
ENDBRANCH  20  21
ENDBRANCH   2  20
TORSDOF 9
ENDMDL
MODEL 7
REMARK VINA RESULT:      -7.5      1.831      5.364
REMARK  9 active torsions:
REMARK  status: ('A' for Active; 'I' for Inactive)
REMARK    1  A    between atoms: O1_2  and  C2_3 
REMARK    2  A    between atoms: C2_3  and  C3_5 
REMARK    3  A    between atoms: C3_5  and  C12_16 
REMARK    4  A    between atoms: C4_6  and  S1_7 
REMARK    5  A    between atoms: S1_7  and  C5_8 
REMARK    6  A    between atoms: C12_16  and  C13_17 
REMARK    7  A    between atoms: C13_17  and  C14_18 
REMARK       I    between atoms: C14_18  and  N2_20 
REMARK    8  A    between atoms: N2_20  and  C15_21 
REMARK    9  A    between atoms: C15_21  and  C16_22 
ROOT
HETATM    1  C3  UNL     1      22.972   3.256  51.998  1.00  0.00     0.024 C 
HETATM    2  C4  UNL     1      24.258   3.496  52.177  1.00  0.00     0.060 C 
ENDROOT
BRANCH   1   3
HETATM    3  C2  UNL     1      22.439   1.965  51.589  1.00  0.00     0.289 C 
HETATM    4  O2  UNL     1      22.289   1.292  50.570  1.00  0.00    -0.260 OA
BRANCH   3   5
HETATM    5  O1  UNL     1      21.915   1.174  52.604  1.00  0.00    -0.323 OA
HETATM    6  C1  UNL     1      22.649   0.077  53.103  1.00  0.00     0.213 C 
ENDBRANCH   3   5
ENDBRANCH   1   3
BRANCH   1   7
HETATM    7  C12 UNL     1      21.975   4.360  52.215  1.00  0.00     0.054 C 
BRANCH   7   8
HETATM    8  C13 UNL     1      21.607   4.892  50.848  1.00  0.00     0.107 C 
BRANCH   8   9
HETATM    9  C14 UNL     1      22.416   6.070  50.441  1.00  0.00     0.218 C 
HETATM   10  O3  UNL     1      22.457   7.177  51.002  1.00  0.00    -0.274 OA
HETATM   11  N2  UNL     1      23.179   5.766  49.265  1.00  0.00    -0.357 N 
HETATM   12  H15 UNL     1      23.181   4.848  48.747  1.00  0.00     0.162 HD
BRANCH  11  13
HETATM   13  C15 UNL     1      24.063   6.769  48.669  1.00  0.00     0.161 C 
BRANCH  13  14
HETATM   14  C16 UNL     1      25.458   6.324  48.586  1.00  0.00    -0.041 A 
HETATM   15  C17 UNL     1      26.587   6.970  48.131  1.00  0.00     0.009 A 
HETATM   16  C18 UNL     1      27.821   6.364  48.150  1.00  0.00     0.001 A 
HETATM   17  C19 UNL     1      27.995   5.069  48.629  1.00  0.00     0.000 A 
HETATM   18  C20 UNL     1      26.880   4.390  49.095  1.00  0.00     0.001 A 
HETATM   19  C21 UNL     1      25.669   5.030  49.058  1.00  0.00     0.009 A 
ENDBRANCH  13  14
ENDBRANCH  11  13
ENDBRANCH   8   9
ENDBRANCH   7   8
ENDBRANCH   1   7
BRANCH   2  20
HETATM   20  S1  UNL     1      25.562   2.320  51.957  1.00  0.00    -0.111 SA
BRANCH  20  21
HETATM   21  C5  UNL     1      26.368   1.783  53.450  1.00  0.00     0.184 A 
HETATM   22  N1  UNL     1      27.567   2.459  53.851  1.00  0.00    -0.372 N 
HETATM   23  C6  UNL     1      28.370   1.290  53.762  1.00  0.00     0.038 A 
HETATM   24  H6  UNL     1      27.702   3.469  54.103  1.00  0.00     0.161 HD
HETATM   25  C7  UNL     1      29.611   0.702  53.892  1.00  0.00     0.030 A 
HETATM   26  C11 UNL     1      27.241   0.595  53.373  1.00  0.00     0.001 A 
HETATM   27  C8  UNL     1      29.703  -0.663  53.611  1.00  0.00     0.002 A 
HETATM   28  C9  UNL     1      28.582  -1.376  53.219  1.00  0.00     0.001 A 
HETATM   29  C10 UNL     1      27.365  -0.750  53.104  1.00  0.00     0.012 A 
ENDBRANCH  20  21
ENDBRANCH   2  20
TORSDOF 9
ENDMDL
MODEL 8
REMARK VINA RESULT:      -7.5      5.040      7.002
REMARK  9 active torsions:
REMARK  status: ('A' for Active; 'I' for Inactive)
REMARK    1  A    between atoms: O1_2  and  C2_3 
REMARK    2  A    between atoms: C2_3  and  C3_5 
REMARK    3  A    between atoms: C3_5  and  C12_16 
REMARK    4  A    between atoms: C4_6  and  S1_7 
REMARK    5  A    between atoms: S1_7  and  C5_8 
REMARK    6  A    between atoms: C12_16  and  C13_17 
REMARK    7  A    between atoms: C13_17  and  C14_18 
REMARK       I    between atoms: C14_18  and  N2_20 
REMARK    8  A    between atoms: N2_20  and  C15_21 
REMARK    9  A    between atoms: C15_21  and  C16_22 
ROOT
HETATM    1  C3  UNL     1      27.573   6.106  48.490  1.00  0.00     0.024 C 
HETATM    2  C4  UNL     1      28.715   5.455  48.366  1.00  0.00     0.060 C 
ENDROOT
BRANCH   1   3
HETATM    3  C2  UNL     1      27.422   7.532  48.238  1.00  0.00     0.289 C 
HETATM    4  O2  UNL     1      27.143   8.298  47.317  1.00  0.00    -0.260 OA
BRANCH   3   5
HETATM    5  O1  UNL     1      27.644   8.368  49.326  1.00  0.00    -0.323 OA
HETATM    6  C1  UNL     1      28.511   9.475  49.207  1.00  0.00     0.213 C 
ENDBRANCH   3   5
ENDBRANCH   1   3
BRANCH   1   7
HETATM    7  C12 UNL     1      26.339   5.363  48.923  1.00  0.00     0.054 C 
BRANCH   7   8
HETATM    8  C13 UNL     1      26.755   3.930  49.169  1.00  0.00     0.107 C 
BRANCH   8   9
HETATM    9  C14 UNL     1      26.078   3.316  50.340  1.00  0.00     0.218 C 
HETATM   10  O3  UNL     1      24.856   3.166  50.502  1.00  0.00    -0.274 OA
HETATM   11  N2  UNL     1      27.047   2.899  51.311  1.00  0.00    -0.357 N 
HETATM   12  H15 UNL     1      28.092   3.003  51.229  1.00  0.00     0.162 HD
BRANCH  11  13
HETATM   13  C15 UNL     1      26.626   2.258  52.559  1.00  0.00     0.161 C 
BRANCH  13  14
HETATM   14  C16 UNL     1      27.352   1.014  52.836  1.00  0.00    -0.041 A 
HETATM   15  C17 UNL     1      26.995  -0.303  52.645  1.00  0.00     0.009 A 
HETATM   16  C18 UNL     1      27.843  -1.334  52.970  1.00  0.00     0.001 A 
HETATM   17  C19 UNL     1      29.106  -1.104  53.510  1.00  0.00     0.000 A 
HETATM   18  C20 UNL     1      29.497   0.210  53.716  1.00  0.00     0.001 A 
HETATM   19  C21 UNL     1      28.622   1.208  53.377  1.00  0.00     0.009 A 
ENDBRANCH  13  14
ENDBRANCH  11  13
ENDBRANCH   8   9
ENDBRANCH   7   8
ENDBRANCH   1   7
BRANCH   2  20
HETATM   20  S1  UNL     1      30.257   6.173  47.879  1.00  0.00    -0.111 SA
BRANCH  20  21
HETATM   21  C5  UNL     1      31.704   5.460  48.631  1.00  0.00     0.184 A 
HETATM   22  N1  UNL     1      32.921   6.218  48.606  1.00  0.00    -0.372 N 
HETATM   23  C6  UNL     1      33.624   5.244  47.848  1.00  0.00     0.038 A 
HETATM   24  H6  UNL     1      33.123   7.156  49.030  1.00  0.00     0.161 HD
HETATM   25  C7  UNL     1      34.795   4.851  47.232  1.00  0.00     0.030 A 
HETATM   26  C11 UNL     1      32.475   4.476  47.846  1.00  0.00     0.001 A 
HETATM   27  C8  UNL     1      34.791   3.614  46.582  1.00  0.00     0.002 A 
HETATM   28  C9  UNL     1      33.647   2.832  46.570  1.00  0.00     0.001 A 
HETATM   29  C10 UNL     1      32.504   3.262  47.197  1.00  0.00     0.012 A 
ENDBRANCH  20  21
ENDBRANCH   2  20
TORSDOF 9
ENDMDL
MODEL 9
REMARK VINA RESULT:      -7.4      3.285      7.037
REMARK  9 active torsions:
REMARK  status: ('A' for Active; 'I' for Inactive)
REMARK    1  A    between atoms: O1_2  and  C2_3 
REMARK    2  A    between atoms: C2_3  and  C3_5 
REMARK    3  A    between atoms: C3_5  and  C12_16 
REMARK    4  A    between atoms: C4_6  and  S1_7 
REMARK    5  A    between atoms: S1_7  and  C5_8 
REMARK    6  A    between atoms: C12_16  and  C13_17 
REMARK    7  A    between atoms: C13_17  and  C14_18 
REMARK       I    between atoms: C14_18  and  N2_20 
REMARK    8  A    between atoms: N2_20  and  C15_21 
REMARK    9  A    between atoms: C15_21  and  C16_22 
ROOT
HETATM    1  C3  UNL     1      21.834   3.761  51.357  1.00  0.00     0.024 C 
HETATM    2  C4  UNL     1      20.936   3.354  52.235  1.00  0.00     0.060 C 
ENDROOT
BRANCH   1   3
HETATM    3  C2  UNL     1      21.798   3.416  49.943  1.00  0.00     0.289 C 
HETATM    4  O2  UNL     1      21.438   3.896  48.869  1.00  0.00    -0.260 OA
BRANCH   3   5
HETATM    5  O1  UNL     1      22.314   2.170  49.608  1.00  0.00    -0.323 OA
HETATM    6  C1  UNL     1      21.607   1.320  48.731  1.00  0.00     0.213 C 
ENDBRANCH   3   5
ENDBRANCH   1   3
BRANCH   1   7
HETATM    7  C12 UNL     1      22.977   4.625  51.812  1.00  0.00     0.054 C 
BRANCH   7   8
HETATM    8  C13 UNL     1      23.978   3.710  52.482  1.00  0.00     0.107 C 
BRANCH   8   9
HETATM    9  C14 UNL     1      24.944   3.102  51.532  1.00  0.00     0.218 C 
HETATM   10  O3  UNL     1      25.232   1.898  51.428  1.00  0.00    -0.274 OA
HETATM   11  N2  UNL     1      25.537   4.116  50.709  1.00  0.00    -0.357 N 
HETATM   12  H15 UNL     1      25.333   5.149  50.754  1.00  0.00     0.162 HD
BRANCH  11  13
HETATM   13  C15 UNL     1      26.523   3.765  49.685  1.00  0.00     0.161 C 
BRANCH  13  14
HETATM   14  C16 UNL     1      27.051   4.935  48.975  1.00  0.00    -0.041 A 
HETATM   15  C17 UNL     1      28.314   5.209  48.499  1.00  0.00     0.009 A 
HETATM   16  C18 UNL     1      28.598   6.383  47.843  1.00  0.00     0.001 A 
HETATM   17  C19 UNL     1      27.626   7.356  47.624  1.00  0.00     0.000 A 
HETATM   18  C20 UNL     1      26.344   7.112  48.090  1.00  0.00     0.001 A 
HETATM   19  C21 UNL     1      26.103   5.930  48.739  1.00  0.00     0.009 A 
ENDBRANCH  13  14
ENDBRANCH  11  13
ENDBRANCH   8   9
ENDBRANCH   7   8
ENDBRANCH   1   7
BRANCH   2  20
HETATM   20  S1  UNL     1      19.540   2.329  51.873  1.00  0.00    -0.111 SA
BRANCH  20  21
HETATM   21  C5  UNL     1      19.841   0.576  51.935  1.00  0.00     0.184 A 
HETATM   22  N1  UNL     1      19.191  -0.186  52.962  1.00  0.00    -0.372 N 
HETATM   23  C6  UNL     1      20.412  -0.606  53.555  1.00  0.00     0.038 A 
HETATM   24  H6  UNL     1      18.165  -0.324  53.132  1.00  0.00     0.161 HD
HETATM   25  C7  UNL     1      21.055  -1.322  54.544  1.00  0.00     0.030 A 
HETATM   26  C11 UNL     1      21.083   0.113  52.585  1.00  0.00     0.001 A 
HETATM   27  C8  UNL     1      22.452  -1.303  54.541  1.00  0.00     0.002 A 
HETATM   28  C9  UNL     1      23.142  -0.588  53.575  1.00  0.00     0.001 A 
HETATM   29  C10 UNL     1      22.461   0.111  52.609  1.00  0.00     0.012 A 
ENDBRANCH  20  21
ENDBRANCH   2  20
TORSDOF 9
ENDMDL
