MODEL 1
REMARK VINA RESULT:      -6.9      0.000      0.000
REMARK  3 active torsions:
REMARK  status: ('A' for Active; 'I' for Inactive)
REMARK    1  A    between atoms: N1_5  and  C5_6 
REMARK    2  A    between atoms: C9_13  and  N5_14 
REMARK    3  A    between atoms: C16_21  and  N6_22 
ROOT
HETATM    1  C5  UNL     1      22.165   1.021  52.773  1.00  0.00     0.066 A 
HETATM    2  C6  UNL     1      20.776   0.867  52.908  1.00  0.00     0.051 A 
HETATM    3  C7  UNL     1      20.563  -0.089  53.897  1.00  0.00     0.121 A 
HETATM    4  N2  UNL     1      21.753  -0.521  54.367  1.00  0.00    -0.238 N 
HETATM    5  N3  UNL     1      22.141  -1.390  55.282  1.00  0.00    -0.161 NA
HETATM    6  C8  UNL     1      23.464  -1.601  55.533  1.00  0.00     0.258 A 
HETATM    7  N4  UNL     1      24.401  -0.909  54.832  1.00  0.00    -0.220 NA
HETATM    8  C9  UNL     1      24.025  -0.003  53.878  1.00  0.00     0.166 A 
HETATM    9  C15 UNL     1      22.695   0.147  53.690  1.00  0.00     0.131 A 
ENDROOT
BRANCH   1  10
HETATM   10  N1  UNL     1      22.587   1.951  51.788  1.00  0.00    -0.349 N 
HETATM   11  C4  UNL     1      22.934   1.935  50.357  1.00  0.00     0.126 C 
HETATM   12  C3  UNL     1      24.021   2.972  50.232  1.00  0.00     0.028 C 
HETATM   13  C2  UNL     1      24.042   3.754  51.504  1.00  0.00     0.036 C 
HETATM   14  C1  UNL     1      23.976   5.250  51.276  1.00  0.00     0.014 C 
HETATM   15  C16 UNL     1      22.758   3.360  52.159  1.00  0.00     0.323 C 
BRANCH  15  16
HETATM   16  N6  UNL     1      21.688   4.070  51.451  1.00  0.00     0.101 N 
HETATM   17  H17 UNL     1      21.278   4.834  52.037  1.00  0.00     0.315 HD
HETATM   18  H18 UNL     1      22.043   4.537  50.584  1.00  0.00     0.315 HD
ENDBRANCH  15  16
ENDBRANCH   1  10
BRANCH   8  19
HETATM   19  N5  UNL     1      25.128   0.635  53.256  1.00  0.00    -0.315 N 
HETATM   20  C10 UNL     1      25.791   0.352  52.031  1.00  0.00     0.110 A 
HETATM   21  C11 UNL     1      26.819   1.041  51.630  1.00  0.00    -0.009 A 
HETATM   22  C12 UNL     1      27.282   2.023  52.343  1.00  0.00     0.015 A 
HETATM   23  C13 UNL     1      26.691   2.419  53.617  1.00  0.00     0.019 A 
HETATM   24  C14 UNL     1      25.631   1.728  54.058  1.00  0.00     0.098 A 
ENDBRANCH   8  19
TORSDOF 3
ENDMDL
MODEL 2
REMARK VINA RESULT:      -6.8      1.314      4.172
REMARK  3 active torsions:
REMARK  status: ('A' for Active; 'I' for Inactive)
REMARK    1  A    between atoms: N1_5  and  C5_6 
REMARK    2  A    between atoms: C9_13  and  N5_14 
REMARK    3  A    between atoms: C16_21  and  N6_22 
ROOT
HETATM    1  C5  UNL     1      23.725   0.189  53.485  1.00  0.00     0.066 A 
HETATM    2  C6  UNL     1      23.505  -0.886  54.361  1.00  0.00     0.051 A 
HETATM    3  C7  UNL     1      22.130  -0.983  54.555  1.00  0.00     0.121 A 
HETATM    4  N2  UNL     1      21.508  -0.021  53.841  1.00  0.00    -0.238 N 
HETATM    5  N3  UNL     1      20.253   0.343  53.652  1.00  0.00    -0.161 NA
HETATM    6  C8  UNL     1      19.942   1.391  52.838  1.00  0.00     0.258 A 
HETATM    7  N4  UNL     1      20.936   2.073  52.209  1.00  0.00    -0.220 NA
HETATM    8  C9  UNL     1      22.244   1.715  52.389  1.00  0.00     0.166 A 
HETATM    9  C15 UNL     1      22.467   0.668  53.212  1.00  0.00     0.131 A 
ENDROOT
BRANCH   1  10
HETATM   10  N1  UNL     1      25.083   0.462  53.177  1.00  0.00    -0.349 N 
HETATM   11  C4  UNL     1      25.909   0.638  51.972  1.00  0.00     0.126 C 
HETATM   12  C3  UNL     1      27.250   0.069  52.360  1.00  0.00     0.028 C 
HETATM   13  C2  UNL     1      27.244  -0.122  53.841  1.00  0.00     0.036 C 
HETATM   14  C1  UNL     1      28.440   0.511  54.521  1.00  0.00     0.014 C 
HETATM   15  C16 UNL     1      26.041   0.653  54.271  1.00  0.00     0.323 C 
BRANCH  15  16
HETATM   16  N6  UNL     1      26.409   2.072  54.209  1.00  0.00     0.101 N 
HETATM   17  H17 UNL     1      26.529   2.397  53.221  1.00  0.00     0.315 HD
HETATM   18  H18 UNL     1      25.663   2.682  54.619  1.00  0.00     0.315 HD
ENDBRANCH  15  16
ENDBRANCH   1  10
BRANCH   8  19
HETATM   19  N5  UNL     1      23.144   2.524  51.650  1.00  0.00    -0.315 N 
HETATM   20  C10 UNL     1      23.985   3.592  52.066  1.00  0.00     0.110 A 
HETATM   21  C11 UNL     1      24.734   4.245  51.227  1.00  0.00    -0.009 A 
HETATM   22  C12 UNL     1      24.742   3.942  49.964  1.00  0.00     0.015 A 
HETATM   23  C13 UNL     1      23.929   2.865  49.409  1.00  0.00     0.019 A 
HETATM   24  C14 UNL     1      23.145   2.174  50.247  1.00  0.00     0.098 A 
ENDBRANCH   8  19
TORSDOF 3
ENDMDL
MODEL 3
REMARK VINA RESULT:      -6.7      1.333      4.152
REMARK  3 active torsions:
REMARK  status: ('A' for Active; 'I' for Inactive)
REMARK    1  A    between atoms: N1_5  and  C5_6 
REMARK    2  A    between atoms: C9_13  and  N5_14 
REMARK    3  A    between atoms: C16_21  and  N6_22 
ROOT
HETATM    1  C5  UNL     1      22.862   0.050  53.520  1.00  0.00     0.066 A 
HETATM    2  C6  UNL     1      22.522  -1.021  54.362  1.00  0.00     0.051 A 
HETATM    3  C7  UNL     1      21.149  -1.218  54.242  1.00  0.00     0.121 A 
HETATM    4  N2  UNL     1      20.642  -0.321  53.369  1.00  0.00    -0.238 N 
HETATM    5  N3  UNL     1      19.442  -0.057  52.886  1.00  0.00    -0.161 NA
HETATM    6  C8  UNL     1      19.254   0.946  51.983  1.00  0.00     0.258 A 
HETATM    7  N4  UNL     1      20.317   1.690  51.572  1.00  0.00    -0.220 NA
HETATM    8  C9  UNL     1      21.570   1.436  52.058  1.00  0.00     0.166 A 
HETATM    9  C15 UNL     1      21.670   0.425  52.949  1.00  0.00     0.131 A 
ENDROOT
BRANCH   1  10
HETATM   10  N1  UNL     1      24.232   0.419  53.519  1.00  0.00    -0.349 N 
HETATM   11  C4  UNL     1      25.024   1.654  53.637  1.00  0.00     0.126 C 
HETATM   12  C3  UNL     1      26.217   1.411  52.748  1.00  0.00     0.028 C 
HETATM   13  C2  UNL     1      26.232  -0.043  52.407  1.00  0.00     0.036 C 
HETATM   14  C1  UNL     1      27.567  -0.700  52.685  1.00  0.00     0.014 C 
HETATM   15  C16 UNL     1      25.254  -0.623  53.377  1.00  0.00     0.323 C 
BRANCH  15  16
HETATM   16  N6  UNL     1      25.930  -0.670  54.678  1.00  0.00     0.101 N 
HETATM   17  H17 UNL     1      25.647   0.130  55.290  1.00  0.00     0.315 HD
HETATM   18  H18 UNL     1      25.679  -1.537  55.211  1.00  0.00     0.315 HD
ENDBRANCH  15  16
ENDBRANCH   1  10
BRANCH   8  19
HETATM   19  N5  UNL     1      22.558   2.295  51.514  1.00  0.00    -0.315 N 
HETATM   20  C10 UNL     1      23.465   2.100  50.437  1.00  0.00     0.110 A 
HETATM   21  C11 UNL     1      24.331   3.007  50.094  1.00  0.00    -0.009 A 
HETATM   22  C12 UNL     1      24.400   4.137  50.730  1.00  0.00     0.015 A 
HETATM   23  C13 UNL     1      23.525   4.465  51.850  1.00  0.00     0.019 A 
HETATM   24  C14 UNL     1      22.622   3.551  52.229  1.00  0.00     0.098 A 
ENDBRANCH   8  19
TORSDOF 3
ENDMDL
MODEL 4
REMARK VINA RESULT:      -6.7      1.631      4.045
REMARK  3 active torsions:
REMARK  status: ('A' for Active; 'I' for Inactive)
REMARK    1  A    between atoms: N1_5  and  C5_6 
REMARK    2  A    between atoms: C9_13  and  N5_14 
REMARK    3  A    between atoms: C16_21  and  N6_22 
ROOT
HETATM    1  C5  UNL     1      24.002   0.892  53.342  1.00  0.00     0.066 A 
HETATM    2  C6  UNL     1      25.052   0.257  54.023  1.00  0.00     0.051 A 
HETATM    3  C7  UNL     1      24.514  -0.860  54.657  1.00  0.00     0.121 A 
HETATM    4  N2  UNL     1      23.193  -0.932  54.393  1.00  0.00    -0.238 N 
HETATM    5  N3  UNL     1      22.214  -1.757  54.718  1.00  0.00    -0.161 NA
HETATM    6  C8  UNL     1      20.944  -1.550  54.270  1.00  0.00     0.258 A 
HETATM    7  N4  UNL     1      20.676  -0.479  53.475  1.00  0.00    -0.220 NA
HETATM    8  C9  UNL     1      21.672   0.390  53.125  1.00  0.00     0.166 A 
HETATM    9  C15 UNL     1      22.902   0.115  53.611  1.00  0.00     0.131 A 
ENDROOT
BRANCH   1  10
HETATM   10  N1  UNL     1      24.352   2.076  52.641  1.00  0.00    -0.349 N 
HETATM   11  C4  UNL     1      24.034   3.512  52.709  1.00  0.00     0.126 C 
HETATM   12  C3  UNL     1      24.055   3.960  51.270  1.00  0.00     0.028 C 
HETATM   13  C2  UNL     1      24.681   2.865  50.469  1.00  0.00     0.036 C 
HETATM   14  C1  UNL     1      25.814   3.352  49.591  1.00  0.00     0.014 C 
HETATM   15  C16 UNL     1      25.291   1.992  51.518  1.00  0.00     0.323 C 
BRANCH  15  16
HETATM   16  N6  UNL     1      26.501   2.676  51.984  1.00  0.00     0.101 N 
HETATM   17  H17 UNL     1      26.769   2.373  52.949  1.00  0.00     0.315 HD
HETATM   18  H18 UNL     1      27.326   2.456  51.378  1.00  0.00     0.315 HD
ENDBRANCH  15  16
ENDBRANCH   1  10
BRANCH   8  19
HETATM   19  N5  UNL     1      21.220   1.439  52.285  1.00  0.00    -0.315 N 
HETATM   20  C10 UNL     1      20.599   2.678  52.603  1.00  0.00     0.110 A 
HETATM   21  C11 UNL     1      20.223   3.516  51.682  1.00  0.00    -0.009 A 
HETATM   22  C12 UNL     1      20.402   3.247  50.424  1.00  0.00     0.015 A 
HETATM   23  C13 UNL     1      21.029   2.013  49.963  1.00  0.00     0.019 A 
HETATM   24  C14 UNL     1      21.427   1.129  50.888  1.00  0.00     0.098 A 
ENDBRANCH   8  19
TORSDOF 3
ENDMDL
MODEL 5
REMARK VINA RESULT:      -6.5      1.733      3.050
REMARK  3 active torsions:
REMARK  status: ('A' for Active; 'I' for Inactive)
REMARK    1  A    between atoms: N1_5  and  C5_6 
REMARK    2  A    between atoms: C9_13  and  N5_14 
REMARK    3  A    between atoms: C16_21  and  N6_22 
ROOT
HETATM    1  C5  UNL     1      22.675  -0.179  53.449  1.00  0.00     0.066 A 
HETATM    2  C6  UNL     1      22.187  -1.257  54.204  1.00  0.00     0.051 A 
HETATM    3  C7  UNL     1      23.210  -1.654  55.061  1.00  0.00     0.121 A 
HETATM    4  N2  UNL     1      24.292  -0.871  54.861  1.00  0.00    -0.238 N 
HETATM    5  N3  UNL     1      25.504  -0.796  55.380  1.00  0.00    -0.161 NA
HETATM    6  C8  UNL     1      26.393   0.144  54.950  1.00  0.00     0.258 A 
HETATM    7  N4  UNL     1      26.030   1.018  53.974  1.00  0.00    -0.220 NA
HETATM    8  C9  UNL     1      24.780   0.960  53.420  1.00  0.00     0.166 A 
HETATM    9  C15 UNL     1      23.960  -0.000  53.901  1.00  0.00     0.131 A 
ENDROOT
BRANCH   1  10
HETATM   10  N1  UNL     1      21.774   0.359  52.493  1.00  0.00    -0.349 N 
HETATM   11  C4  UNL     1      21.559   0.282  51.039  1.00  0.00     0.126 C 
HETATM   12  C3  UNL     1      21.054   1.654  50.670  1.00  0.00     0.028 C 
HETATM   13  C2  UNL     1      20.702   2.358  51.939  1.00  0.00     0.036 C 
HETATM   14  C1  UNL     1      19.303   2.936  51.923  1.00  0.00     0.014 C 
HETATM   15  C16 UNL     1      20.701   1.252  52.944  1.00  0.00     0.323 C 
BRANCH  15  16
HETATM   16  N6  UNL     1      19.464   0.492  52.734  1.00  0.00     0.101 N 
HETATM   17  H17 UNL     1      19.651  -0.533  52.639  1.00  0.00     0.315 HD
HETATM   18  H18 UNL     1      18.811   0.587  53.548  1.00  0.00     0.315 HD
ENDBRANCH  15  16
ENDBRANCH   1  10
BRANCH   8  19
HETATM   19  N5  UNL     1      24.568   1.951  52.429  1.00  0.00    -0.315 N 
HETATM   20  C10 UNL     1      24.787   1.917  51.024  1.00  0.00     0.110 A 
HETATM   21  C11 UNL     1      24.556   2.949  50.267  1.00  0.00    -0.009 A 
HETATM   22  C12 UNL     1      24.113   4.061  50.772  1.00  0.00     0.015 A 
HETATM   23  C13 UNL     1      23.843   4.226  52.196  1.00  0.00     0.019 A 
HETATM   24  C14 UNL     1      24.072   3.181  53.004  1.00  0.00     0.098 A 
ENDBRANCH   8  19
TORSDOF 3
ENDMDL
MODEL 6
REMARK VINA RESULT:      -6.5      1.624      4.166
REMARK  3 active torsions:
REMARK  status: ('A' for Active; 'I' for Inactive)
REMARK    1  A    between atoms: N1_5  and  C5_6 
REMARK    2  A    between atoms: C9_13  and  N5_14 
REMARK    3  A    between atoms: C16_21  and  N6_22 
ROOT
HETATM    1  C5  UNL     1      23.835   1.151  52.045  1.00  0.00     0.066 A 
HETATM    2  C6  UNL     1      25.192   0.831  52.210  1.00  0.00     0.051 A 
HETATM    3  C7  UNL     1      25.277  -0.057  53.279  1.00  0.00     0.121 A 
HETATM    4  N2  UNL     1      24.041  -0.289  53.769  1.00  0.00    -0.238 N 
HETATM    5  N3  UNL     1      23.542  -1.026  54.745  1.00  0.00    -0.161 NA
HETATM    6  C8  UNL     1      22.201  -1.049  54.990  1.00  0.00     0.258 A 
HETATM    7  N4  UNL     1      21.363  -0.304  54.220  1.00  0.00    -0.220 NA
HETATM    8  C9  UNL     1      21.856   0.467  53.203  1.00  0.00     0.166 A 
HETATM    9  C15 UNL     1      23.195   0.435  53.027  1.00  0.00     0.131 A 
ENDROOT
BRANCH   1  10
HETATM   10  N1  UNL     1      23.543   2.070  51.004  1.00  0.00    -0.349 N 
HETATM   11  C4  UNL     1      22.661   2.133  49.827  1.00  0.00     0.126 C 
HETATM   12  C3  UNL     1      23.454   2.923  48.817  1.00  0.00     0.028 C 
HETATM   13  C2  UNL     1      24.605   3.544  49.538  1.00  0.00     0.036 C 
HETATM   14  C1  UNL     1      24.714   5.035  49.299  1.00  0.00     0.014 C 
HETATM   15  C16 UNL     1      24.235   3.363  50.974  1.00  0.00     0.323 C 
BRANCH  15  16
HETATM   16  N6  UNL     1      23.196   4.355  51.271  1.00  0.00     0.101 N 
HETATM   17  H17 UNL     1      23.479   5.314  50.964  1.00  0.00     0.315 HD
HETATM   18  H18 UNL     1      22.306   4.145  50.761  1.00  0.00     0.315 HD
ENDBRANCH  15  16
ENDBRANCH   1  10
BRANCH   8  19
HETATM   19  N5  UNL     1      20.843   1.165  52.499  1.00  0.00    -0.315 N 
HETATM   20  C10 UNL     1      20.395   2.510  52.610  1.00  0.00     0.110 A 
HETATM   21  C11 UNL     1      19.419   2.972  51.886  1.00  0.00    -0.009 A 
HETATM   22  C12 UNL     1      18.810   2.214  51.025  1.00  0.00     0.015 A 
HETATM   23  C13 UNL     1      19.173   0.817  50.811  1.00  0.00     0.019 A 
HETATM   24  C14 UNL     1      20.175   0.310  51.542  1.00  0.00     0.098 A 
ENDBRANCH   8  19
TORSDOF 3
ENDMDL
MODEL 7
REMARK VINA RESULT:      -6.2      2.061      4.569
REMARK  3 active torsions:
REMARK  status: ('A' for Active; 'I' for Inactive)
REMARK    1  A    between atoms: N1_5  and  C5_6 
REMARK    2  A    between atoms: C9_13  and  N5_14 
REMARK    3  A    between atoms: C16_21  and  N6_22 
ROOT
HETATM    1  C5  UNL     1      21.852   1.015  52.721  1.00  0.00     0.066 A 
HETATM    2  C6  UNL     1      21.748   0.232  53.881  1.00  0.00     0.051 A 
HETATM    3  C7  UNL     1      20.521  -0.424  53.826  1.00  0.00     0.121 A 
HETATM    4  N2  UNL     1      19.878  -0.076  52.691  1.00  0.00    -0.238 N 
HETATM    5  N3  UNL     1      18.720  -0.385  52.136  1.00  0.00    -0.161 NA
HETATM    6  C8  UNL     1      18.352   0.150  50.938  1.00  0.00     0.258 A 
HETATM    7  N4  UNL     1      19.186   1.016  50.302  1.00  0.00    -0.220 NA
HETATM    8  C9  UNL     1      20.390   1.352  50.856  1.00  0.00     0.166 A 
HETATM    9  C15 UNL     1      20.680   0.779  52.045  1.00  0.00     0.131 A 
ENDROOT
BRANCH   1  10
HETATM   10  N1  UNL     1      23.040   1.782  52.602  1.00  0.00    -0.349 N 
HETATM   11  C4  UNL     1      23.442   3.191  52.747  1.00  0.00     0.126 C 
HETATM   12  C3  UNL     1      24.523   3.371  51.711  1.00  0.00     0.028 C 
HETATM   13  C2  UNL     1      24.918   2.012  51.235  1.00  0.00     0.036 C 
HETATM   14  C1  UNL     1      26.413   1.777  51.299  1.00  0.00     0.014 C 
HETATM   15  C16 UNL     1      24.294   1.109  52.249  1.00  0.00     0.323 C 
BRANCH  15  16
HETATM   16  N6  UNL     1      25.122   1.195  53.457  1.00  0.00     0.101 N 
HETATM   17  H17 UNL     1      25.087   2.150  53.882  1.00  0.00     0.315 HD
HETATM   18  H18 UNL     1      24.787   0.540  54.202  1.00  0.00     0.315 HD
ENDBRANCH  15  16
ENDBRANCH   1  10
BRANCH   8  19
HETATM   19  N5  UNL     1      21.135   2.253  50.054  1.00  0.00    -0.315 N 
HETATM   20  C10 UNL     1      21.189   3.674  50.063  1.00  0.00     0.110 A 
HETATM   21  C11 UNL     1      21.922   4.340  49.221  1.00  0.00    -0.009 A 
HETATM   22  C12 UNL     1      22.639   3.725  48.329  1.00  0.00     0.015 A 
HETATM   23  C13 UNL     1      22.675   2.271  48.215  1.00  0.00     0.019 A 
HETATM   24  C14 UNL     1      21.930   1.555  49.068  1.00  0.00     0.098 A 
ENDBRANCH   8  19
TORSDOF 3
ENDMDL
MODEL 8
REMARK VINA RESULT:      -6.1      9.162     11.789
REMARK  3 active torsions:
REMARK  status: ('A' for Active; 'I' for Inactive)
REMARK    1  A    between atoms: N1_5  and  C5_6 
REMARK    2  A    between atoms: C9_13  and  N5_14 
REMARK    3  A    between atoms: C16_21  and  N6_22 
ROOT
HETATM    1  C5  UNL     1      30.516   6.378  47.756  1.00  0.00     0.066 A 
HETATM    2  C6  UNL     1      29.275   5.727  47.821  1.00  0.00     0.051 A 
HETATM    3  C7  UNL     1      28.374   6.618  48.398  1.00  0.00     0.121 A 
HETATM    4  N2  UNL     1      29.009   7.774  48.686  1.00  0.00    -0.238 N 
HETATM    5  N3  UNL     1      28.658   8.929  49.221  1.00  0.00    -0.161 NA
HETATM    6  C8  UNL     1      29.565   9.935  49.375  1.00  0.00     0.258 A 
HETATM    7  N4  UNL     1      30.851   9.750  48.973  1.00  0.00    -0.220 NA
HETATM    8  C9  UNL     1      31.239   8.562  48.416  1.00  0.00     0.166 A 
HETATM    9  C15 UNL     1      30.280   7.617  48.300  1.00  0.00     0.131 A 
ENDROOT
BRANCH   1  10
HETATM   10  N1  UNL     1      31.581   5.616  47.208  1.00  0.00    -0.349 N 
HETATM   11  C4  UNL     1      32.547   5.736  46.104  1.00  0.00     0.126 C 
HETATM   12  C3  UNL     1      32.740   4.319  45.630  1.00  0.00     0.028 C 
HETATM   13  C2  UNL     1      32.139   3.417  46.657  1.00  0.00     0.036 C 
HETATM   14  C1  UNL     1      33.088   2.331  47.117  1.00  0.00     0.014 C 
HETATM   15  C16 UNL     1      31.931   4.331  47.822  1.00  0.00     0.323 C 
BRANCH  15  16
HETATM   16  N6  UNL     1      33.249   4.547  48.428  1.00  0.00     0.101 N 
HETATM   17  H17 UNL     1      33.402   3.925  49.255  1.00  0.00     0.315 HD
HETATM   18  H18 UNL     1      34.023   4.324  47.758  1.00  0.00     0.315 HD
ENDBRANCH  15  16
ENDBRANCH   1  10
BRANCH   8  19
HETATM   19  N5  UNL     1      32.607   8.548  48.044  1.00  0.00    -0.315 N 
HETATM   20  C10 UNL     1      33.737   7.975  48.690  1.00  0.00     0.110 A 
HETATM   21  C11 UNL     1      34.937   8.088  48.206  1.00  0.00    -0.009 A 
HETATM   22  C12 UNL     1      35.152   8.737  47.100  1.00  0.00     0.015 A 
HETATM   23  C13 UNL     1      34.080   9.368  46.338  1.00  0.00     0.019 A 
HETATM   24  C14 UNL     1      32.831   9.270  46.811  1.00  0.00     0.098 A 
ENDBRANCH   8  19
TORSDOF 3
ENDMDL
MODEL 9
REMARK VINA RESULT:      -6.1     10.468     13.142
REMARK  3 active torsions:
REMARK  status: ('A' for Active; 'I' for Inactive)
REMARK    1  A    between atoms: N1_5  and  C5_6 
REMARK    2  A    between atoms: C9_13  and  N5_14 
REMARK    3  A    between atoms: C16_21  and  N6_22 
ROOT
HETATM    1  C5  UNL     1      32.856   7.343  45.814  1.00  0.00     0.066 A 
HETATM    2  C6  UNL     1      32.737   8.683  45.414  1.00  0.00     0.051 A 
HETATM    3  C7  UNL     1      33.467   8.827  44.238  1.00  0.00     0.121 A 
HETATM    4  N2  UNL     1      34.022   7.641  43.907  1.00  0.00    -0.238 N 
HETATM    5  N3  UNL     1      34.787   7.205  42.923  1.00  0.00    -0.161 NA
HETATM    6  C8  UNL     1      35.187   5.903  42.870  1.00  0.00     0.258 A 
HETATM    7  N4  UNL     1      34.795   5.038  43.843  1.00  0.00    -0.220 NA
HETATM    8  C9  UNL     1      34.002   5.465  44.873  1.00  0.00     0.166 A 
HETATM    9  C15 UNL     1      33.651   6.770  44.852  1.00  0.00     0.131 A 
ENDROOT
BRANCH   1  10
HETATM   10  N1  UNL     1      32.187   7.001  47.019  1.00  0.00    -0.349 N 
HETATM   11  C4  UNL     1      32.545   6.726  48.420  1.00  0.00     0.126 C 
HETATM   12  C3  UNL     1      31.552   5.679  48.854  1.00  0.00     0.028 C 
HETATM   13  C2  UNL     1      30.483   5.617  47.813  1.00  0.00     0.036 C 
HETATM   14  C1  UNL     1      29.089   5.741  48.393  1.00  0.00     0.014 C 
HETATM   15  C16 UNL     1      30.728   6.854  47.010  1.00  0.00     0.323 C 
BRANCH  15  16
HETATM   16  N6  UNL     1      30.230   7.980  47.807  1.00  0.00     0.101 N 
HETATM   17  H17 UNL     1      29.398   7.709  48.381  1.00  0.00     0.315 HD
HETATM   18  H18 UNL     1      30.949   8.316  48.490  1.00  0.00     0.315 HD
ENDBRANCH  15  16
ENDBRANCH   1  10
BRANCH   8  19
HETATM   19  N5  UNL     1      33.680   4.431  45.788  1.00  0.00    -0.315 N 
HETATM   20  C10 UNL     1      32.540   3.584  45.865  1.00  0.00     0.110 A 
HETATM   21  C11 UNL     1      32.405   2.697  46.805  1.00  0.00    -0.009 A 
HETATM   22  C12 UNL     1      33.316   2.551  47.720  1.00  0.00     0.015 A 
HETATM   23  C13 UNL     1      34.534   3.353  47.753  1.00  0.00     0.019 A 
HETATM   24  C14 UNL     1      34.703   4.277  46.798  1.00  0.00     0.098 A 
ENDBRANCH   8  19
TORSDOF 3
ENDMDL
