MODEL 1
REMARK VINA RESULT:      -9.0      0.000      0.000
REMARK  3 active torsions:
REMARK  status: ('A' for Active; 'I' for Inactive)
REMARK    1  A    between atoms: C2_2  and  N1_3 
REMARK    2  A    between atoms: C2_2  and  C15_20 
REMARK    3  A    between atoms: N1_3  and  C3_4 
ROOT
HETATM    1  C3  UNL     1      26.479   2.482  51.906  1.00  0.00     0.147 C 
HETATM    2  N2  UNL     1      27.654   2.078  52.265  1.00  0.00    -0.270 NA
HETATM    3  C4  UNL     1      27.980   0.986  53.225  1.00  0.00     0.161 C 
HETATM    4  C5  UNL     1      26.782   0.401  53.645  1.00  0.00     0.100 C 
HETATM    5  S1  UNL     1      25.335  -0.306  54.153  1.00  0.00    -0.135 SA
HETATM    6  C6  UNL     1      24.140  -0.865  54.550  1.00  0.00    -0.016 A 
HETATM    7  C7  UNL     1      23.002  -1.375  54.909  1.00  0.00     0.064 A 
HETATM    8  C8  UNL     1      21.638  -1.452  54.572  1.00  0.00     0.060 A 
HETATM    9  N3  UNL     1      20.486  -1.529  54.304  1.00  0.00    -0.157 N 
HETATM   10  C9  UNL     1      22.921  -0.567  53.725  1.00  0.00     0.084 A 
HETATM   11  C10 UNL     1      22.299   0.142  52.517  1.00  0.00     0.052 C 
HETATM   12  C11 UNL     1      22.764   1.550  52.354  1.00  0.00    -0.057 C 
HETATM   13  C12 UNL     1      23.957   1.319  51.775  1.00  0.00     0.039 C 
HETATM   14  C13 UNL     1      25.015   2.269  52.103  1.00  0.00     0.097 C 
HETATM   15  N4  UNL     1      24.336   3.080  52.893  1.00  0.00    -0.282 NA
HETATM   16  C14 UNL     1      22.940   3.024  52.346  1.00  0.00     0.183 C 
ENDROOT
BRANCH   1  17
HETATM   17  N1  UNL     1      26.795   3.552  50.968  1.00  0.00    -0.365 N 
HETATM   18  H5  UNL     1      27.379   4.342  51.418  1.00  0.00     0.162 HD
BRANCH  17  19
HETATM   19  C2  UNL     1      26.459   3.696  49.562  1.00  0.00     0.112 C 
HETATM   20  C1  UNL     1      27.406   4.579  48.794  1.00  0.00     0.037 C 
BRANCH  19  21
HETATM   21  C15 UNL     1      25.037   4.154  49.425  1.00  0.00    -0.036 A 
HETATM   22  C16 UNL     1      23.971   3.532  48.806  1.00  0.00     0.009 A 
HETATM   23  C17 UNL     1      22.749   4.197  48.830  1.00  0.00     0.001 A 
HETATM   24  C18 UNL     1      22.551   5.410  49.425  1.00  0.00     0.000 A 
HETATM   25  C19 UNL     1      23.628   6.029  50.045  1.00  0.00     0.001 A 
HETATM   26  C20 UNL     1      24.860   5.389  50.035  1.00  0.00     0.009 A 
ENDBRANCH  19  21
ENDBRANCH  17  19
ENDBRANCH   1  17
TORSDOF 3
ENDMDL
MODEL 2
REMARK VINA RESULT:      -8.9      1.051      2.305
REMARK  3 active torsions:
REMARK  status: ('A' for Active; 'I' for Inactive)
REMARK    1  A    between atoms: C2_2  and  N1_3 
REMARK    2  A    between atoms: C2_2  and  C15_20 
REMARK    3  A    between atoms: N1_3  and  C3_4 
ROOT
HETATM    1  C3  UNL     1      26.308   2.541  51.725  1.00  0.00     0.147 C 
HETATM    2  N2  UNL     1      27.498   2.173  52.073  1.00  0.00    -0.270 NA
HETATM    3  C4  UNL     1      27.865   1.113  53.053  1.00  0.00     0.161 C 
HETATM    4  C5  UNL     1      26.689   0.511  53.508  1.00  0.00     0.100 C 
HETATM    5  S1  UNL     1      25.267  -0.217  54.056  1.00  0.00    -0.135 SA
HETATM    6  C6  UNL     1      24.092  -0.793  54.486  1.00  0.00    -0.016 A 
HETATM    7  C7  UNL     1      22.973  -1.321  54.877  1.00  0.00     0.064 A 
HETATM    8  C8  UNL     1      21.605  -1.438  54.565  1.00  0.00     0.060 A 
HETATM    9  N3  UNL     1      20.451  -1.549  54.318  1.00  0.00    -0.157 N 
HETATM   10  C9  UNL     1      22.854  -0.544  53.676  1.00  0.00     0.084 A 
HETATM   11  C10 UNL     1      22.195   0.121  52.462  1.00  0.00     0.052 C 
HETATM   12  C11 UNL     1      22.624   1.534  52.256  1.00  0.00    -0.057 C 
HETATM   13  C12 UNL     1      23.813   1.317  51.663  1.00  0.00     0.039 C 
HETATM   14  C13 UNL     1      24.853   2.299  51.951  1.00  0.00     0.097 C 
HETATM   15  N4  UNL     1      24.168   3.113  52.732  1.00  0.00    -0.282 NA
HETATM   16  C14 UNL     1      22.765   3.011  52.210  1.00  0.00     0.183 C 
ENDROOT
BRANCH   1  17
HETATM   17  N1  UNL     1      26.584   3.595  50.755  1.00  0.00    -0.365 N 
HETATM   18  H5  UNL     1      27.638   3.814  50.667  1.00  0.00     0.162 HD
BRANCH  17  19
HETATM   19  C2  UNL     1      25.677   4.357  49.914  1.00  0.00     0.112 C 
HETATM   20  C1  UNL     1      24.797   3.508  49.038  1.00  0.00     0.037 C 
BRANCH  19  21
HETATM   21  C15 UNL     1      26.452   5.363  49.116  1.00  0.00    -0.036 A 
HETATM   22  C16 UNL     1      26.061   6.605  48.654  1.00  0.00     0.009 A 
HETATM   23  C17 UNL     1      26.998   7.334  47.926  1.00  0.00     0.001 A 
HETATM   24  C18 UNL     1      28.261   6.893  47.651  1.00  0.00     0.000 A 
HETATM   25  C19 UNL     1      28.646   5.644  48.119  1.00  0.00     0.001 A 
HETATM   26  C20 UNL     1      27.730   4.895  48.847  1.00  0.00     0.009 A 
ENDBRANCH  19  21
ENDBRANCH  17  19
ENDBRANCH   1  17
TORSDOF 3
ENDMDL
MODEL 3
REMARK VINA RESULT:      -8.2      3.076      5.937
REMARK  3 active torsions:
REMARK  status: ('A' for Active; 'I' for Inactive)
REMARK    1  A    between atoms: C2_2  and  N1_3 
REMARK    2  A    between atoms: C2_2  and  C15_20 
REMARK    3  A    between atoms: N1_3  and  C3_4 
ROOT
HETATM    1  C3  UNL     1      23.355  -0.019  53.129  1.00  0.00     0.147 C 
HETATM    2  N2  UNL     1      23.340  -0.820  54.144  1.00  0.00    -0.270 NA
HETATM    3  C4  UNL     1      22.146  -1.424  54.801  1.00  0.00     0.161 C 
HETATM    4  C5  UNL     1      21.009  -1.030  54.090  1.00  0.00     0.100 C 
HETATM    5  S1  UNL     1      19.635  -0.554  53.231  1.00  0.00    -0.135 SA
HETATM    6  C6  UNL     1      18.532  -0.152  52.511  1.00  0.00    -0.016 A 
HETATM    7  C7  UNL     1      17.507   0.239  51.818  1.00  0.00     0.064 A 
HETATM    8  C8  UNL     1      17.119   0.799  50.587  1.00  0.00     0.060 A 
HETATM    9  N3  UNL     1      16.773   1.269  49.555  1.00  0.00    -0.157 N 
HETATM   10  C9  UNL     1      18.760   0.411  51.138  1.00  0.00     0.084 A 
HETATM   11  C10 UNL     1      19.744   0.797  50.028  1.00  0.00     0.052 C 
HETATM   12  C11 UNL     1      20.951   1.512  50.531  1.00  0.00    -0.057 C 
HETATM   13  C12 UNL     1      21.659   0.458  50.978  1.00  0.00     0.039 C 
HETATM   14  C13 UNL     1      22.495   0.706  52.148  1.00  0.00     0.097 C 
HETATM   15  N4  UNL     1      22.238   1.988  52.326  1.00  0.00    -0.282 NA
HETATM   16  C14 UNL     1      21.985   2.497  50.938  1.00  0.00     0.183 C 
ENDROOT
BRANCH   1  17
HETATM   17  N1  UNL     1      24.781   0.223  52.950  1.00  0.00    -0.365 N 
HETATM   18  H5  UNL     1      25.135  -0.071  51.972  1.00  0.00     0.162 HD
BRANCH  17  19
HETATM   19  C2  UNL     1      25.758   0.794  53.862  1.00  0.00     0.112 C 
HETATM   20  C1  UNL     1      25.879   2.291  53.770  1.00  0.00     0.037 C 
BRANCH  19  21
HETATM   21  C15 UNL     1      27.083   0.117  53.674  1.00  0.00    -0.036 A 
HETATM   22  C16 UNL     1      27.362  -1.140  53.173  1.00  0.00     0.009 A 
HETATM   23  C17 UNL     1      28.701  -1.515  53.115  1.00  0.00     0.001 A 
HETATM   24  C18 UNL     1      29.735  -0.720  53.519  1.00  0.00     0.000 A 
HETATM   25  C19 UNL     1      29.446   0.542  54.022  1.00  0.00     0.001 A 
HETATM   26  C20 UNL     1      28.118   0.942  54.092  1.00  0.00     0.009 A 
ENDBRANCH  19  21
ENDBRANCH  17  19
ENDBRANCH   1  17
TORSDOF 3
ENDMDL
MODEL 4
REMARK VINA RESULT:      -8.1      2.364      5.186
REMARK  3 active torsions:
REMARK  status: ('A' for Active; 'I' for Inactive)
REMARK    1  A    between atoms: C2_2  and  N1_3 
REMARK    2  A    between atoms: C2_2  and  C15_20 
REMARK    3  A    between atoms: N1_3  and  C3_4 
ROOT
HETATM    1  C3  UNL     1      23.871   2.620  52.709  1.00  0.00     0.147 C 
HETATM    2  N2  UNL     1      23.593   3.788  52.229  1.00  0.00    -0.270 NA
HETATM    3  C4  UNL     1      22.287   4.255  51.686  1.00  0.00     0.161 C 
HETATM    4  C5  UNL     1      21.356   3.224  51.837  1.00  0.00     0.100 C 
HETATM    5  S1  UNL     1      20.231   1.977  52.020  1.00  0.00    -0.135 SA
HETATM    6  C6  UNL     1      19.335   0.945  52.182  1.00  0.00    -0.016 A 
HETATM    7  C7  UNL     1      18.507  -0.041  52.345  1.00  0.00     0.064 A 
HETATM    8  C8  UNL     1      18.312  -1.255  53.031  1.00  0.00     0.060 A 
HETATM    9  N3  UNL     1      18.129  -2.278  53.601  1.00  0.00    -0.157 N 
HETATM   10  C9  UNL     1      19.705  -0.160  53.129  1.00  0.00     0.084 A 
HETATM   11  C10 UNL     1      20.718  -0.758  54.112  1.00  0.00     0.052 C 
HETATM   12  C11 UNL     1      22.125  -0.695  53.622  1.00  0.00    -0.057 C 
HETATM   13  C12 UNL     1      22.398   0.591  53.912  1.00  0.00     0.039 C 
HETATM   14  C13 UNL     1      23.310   1.266  52.995  1.00  0.00     0.097 C 
HETATM   15  N4  UNL     1      23.564   0.267  52.170  1.00  0.00    -0.282 NA
HETATM   16  C14 UNL     1      23.469  -0.948  53.045  1.00  0.00     0.183 C 
ENDROOT
BRANCH   1  17
HETATM   17  N1  UNL     1      25.275   2.763  53.074  1.00  0.00    -0.365 N 
HETATM   18  H5  UNL     1      25.414   2.960  54.127  1.00  0.00     0.162 HD
BRANCH  17  19
HETATM   19  C2  UNL     1      26.471   2.670  52.255  1.00  0.00     0.112 C 
HETATM   20  C1  UNL     1      26.202   2.325  50.816  1.00  0.00     0.037 C 
BRANCH  19  21
HETATM   21  C15 UNL     1      27.443   1.716  52.884  1.00  0.00    -0.036 A 
HETATM   22  C16 UNL     1      28.558   1.981  53.655  1.00  0.00     0.009 A 
HETATM   23  C17 UNL     1      29.287   0.886  54.110  1.00  0.00     0.001 A 
HETATM   24  C18 UNL     1      28.964  -0.413  53.840  1.00  0.00     0.000 A 
HETATM   25  C19 UNL     1      27.842  -0.670  53.063  1.00  0.00     0.001 A 
HETATM   26  C20 UNL     1      27.096   0.404  52.595  1.00  0.00     0.009 A 
ENDBRANCH  19  21
ENDBRANCH  17  19
ENDBRANCH   1  17
TORSDOF 3
ENDMDL
MODEL 5
REMARK VINA RESULT:      -8.0      2.464      7.388
REMARK  3 active torsions:
REMARK  status: ('A' for Active; 'I' for Inactive)
REMARK    1  A    between atoms: C2_2  and  N1_3 
REMARK    2  A    between atoms: C2_2  and  C15_20 
REMARK    3  A    between atoms: N1_3  and  C3_4 
ROOT
HETATM    1  C3  UNL     1      22.558   3.600  51.072  1.00  0.00     0.147 C 
HETATM    2  N2  UNL     1      21.593   4.445  50.908  1.00  0.00    -0.270 NA
HETATM    3  C4  UNL     1      21.680   5.813  50.325  1.00  0.00     0.161 C 
HETATM    4  C5  UNL     1      22.997   6.028  49.907  1.00  0.00     0.100 C 
HETATM    5  S1  UNL     1      24.587   6.288  49.403  1.00  0.00    -0.135 SA
HETATM    6  C6  UNL     1      25.891   6.472  49.000  1.00  0.00    -0.016 A 
HETATM    7  C7  UNL     1      27.125   6.624  48.628  1.00  0.00     0.064 A 
HETATM    8  C8  UNL     1      28.319   5.931  48.354  1.00  0.00     0.060 A 
HETATM    9  N3  UNL     1      29.333   5.365  48.117  1.00  0.00    -0.157 N 
HETATM   10  C9  UNL     1      26.762   5.256  48.873  1.00  0.00     0.084 A 
HETATM   11  C10 UNL     1      26.913   3.736  48.992  1.00  0.00     0.052 C 
HETATM   12  C11 UNL     1      26.297   3.175  50.228  1.00  0.00    -0.057 C 
HETATM   13  C12 UNL     1      25.009   3.152  49.837  1.00  0.00     0.039 C 
HETATM   14  C13 UNL     1      24.024   3.387  50.888  1.00  0.00     0.097 C 
HETATM   15  N4  UNL     1      24.838   3.520  51.919  1.00  0.00    -0.282 NA
HETATM   16  C14 UNL     1      25.995   2.629  51.575  1.00  0.00     0.183 C 
ENDROOT
BRANCH   1  17
HETATM   17  N1  UNL     1      21.871   2.464  51.676  1.00  0.00    -0.365 N 
HETATM   18  H5  UNL     1      21.175   2.759  52.447  1.00  0.00     0.162 HD
BRANCH  17  19
HETATM   19  C2  UNL     1      21.979   1.043  51.390  1.00  0.00     0.112 C 
HETATM   20  C1  UNL     1      20.888   0.514  50.499  1.00  0.00     0.037 C 
BRANCH  19  21
HETATM   21  C15 UNL     1      22.069   0.274  52.675  1.00  0.00    -0.036 A 
HETATM   22  C16 UNL     1      21.057  -0.180  53.499  1.00  0.00     0.009 A 
HETATM   23  C17 UNL     1      21.436  -0.873  54.645  1.00  0.00     0.001 A 
HETATM   24  C18 UNL     1      22.733  -1.125  54.991  1.00  0.00     0.000 A 
HETATM   25  C19 UNL     1      23.745  -0.664  54.158  1.00  0.00     0.001 A 
HETATM   26  C20 UNL     1      23.394   0.031  53.008  1.00  0.00     0.009 A 
ENDBRANCH  19  21
ENDBRANCH  17  19
ENDBRANCH   1  17
TORSDOF 3
ENDMDL
MODEL 6
REMARK VINA RESULT:      -7.7      2.596      6.379
REMARK  3 active torsions:
REMARK  status: ('A' for Active; 'I' for Inactive)
REMARK    1  A    between atoms: C2_2  and  N1_3 
REMARK    2  A    between atoms: C2_2  and  C15_20 
REMARK    3  A    between atoms: N1_3  and  C3_4 
ROOT
HETATM    1  C3  UNL     1      25.300   2.004  51.902  1.00  0.00     0.147 C 
HETATM    2  N2  UNL     1      26.339   2.384  51.233  1.00  0.00    -0.270 NA
HETATM    3  C4  UNL     1      26.368   3.266  50.032  1.00  0.00     0.161 C 
HETATM    4  C5  UNL     1      25.062   3.687  49.767  1.00  0.00     0.100 C 
HETATM    5  S1  UNL     1      23.484   4.196  49.447  1.00  0.00    -0.135 SA
HETATM    6  C6  UNL     1      22.188   4.596  49.209  1.00  0.00    -0.016 A 
HETATM    7  C7  UNL     1      20.960   4.960  49.004  1.00  0.00     0.064 A 
HETATM    8  C8  UNL     1      19.686   5.036  49.599  1.00  0.00     0.060 A 
HETATM    9  N3  UNL     1      18.606   5.108  50.083  1.00  0.00    -0.157 N 
HETATM   10  C9  UNL     1      21.187   4.415  50.313  1.00  0.00     0.084 A 
HETATM   11  C10 UNL     1      20.882   3.944  51.739  1.00  0.00     0.052 C 
HETATM   12  C11 UNL     1      21.499   2.629  52.073  1.00  0.00    -0.057 C 
HETATM   13  C12 UNL     1      22.755   3.037  52.332  1.00  0.00     0.039 C 
HETATM   14  C13 UNL     1      23.812   2.096  51.980  1.00  0.00     0.097 C 
HETATM   15  N4  UNL     1      23.072   1.102  51.524  1.00  0.00    -0.282 NA
HETATM   16  C14 UNL     1      21.810   1.200  52.330  1.00  0.00     0.183 C 
ENDROOT
BRANCH   1  17
HETATM   17  N1  UNL     1      25.892   1.172  52.943  1.00  0.00    -0.365 N 
HETATM   18  H5  UNL     1      26.447   1.747  53.671  1.00  0.00     0.162 HD
BRANCH  17  19
HETATM   19  C2  UNL     1      25.835  -0.266  53.142  1.00  0.00     0.112 C 
HETATM   20  C1  UNL     1      24.999  -0.688  54.319  1.00  0.00     0.037 C 
BRANCH  19  21
HETATM   21  C15 UNL     1      27.226  -0.822  53.218  1.00  0.00    -0.036 A 
HETATM   22  C16 UNL     1      27.682  -2.090  52.912  1.00  0.00     0.009 A 
HETATM   23  C17 UNL     1      29.042  -2.332  53.083  1.00  0.00     0.001 A 
HETATM   24  C18 UNL     1      29.934  -1.398  53.527  1.00  0.00     0.000 A 
HETATM   25  C19 UNL     1      29.467  -0.126  53.833  1.00  0.00     0.001 A 
HETATM   26  C20 UNL     1      28.114   0.142  53.673  1.00  0.00     0.009 A 
ENDBRANCH  19  21
ENDBRANCH  17  19
ENDBRANCH   1  17
TORSDOF 3
ENDMDL
MODEL 7
REMARK VINA RESULT:      -7.5      3.518      6.960
REMARK  3 active torsions:
REMARK  status: ('A' for Active; 'I' for Inactive)
REMARK    1  A    between atoms: C2_2  and  N1_3 
REMARK    2  A    between atoms: C2_2  and  C15_20 
REMARK    3  A    between atoms: N1_3  and  C3_4 
ROOT
HETATM    1  C3  UNL     1      20.241   2.137  52.169  1.00  0.00     0.147 C 
HETATM    2  N2  UNL     1      20.131   3.340  51.709  1.00  0.00    -0.270 NA
HETATM    3  C4  UNL     1      21.183   4.394  51.674  1.00  0.00     0.161 C 
HETATM    4  C5  UNL     1      22.368   3.847  52.174  1.00  0.00     0.100 C 
HETATM    5  S1  UNL     1      23.800   3.185  52.778  1.00  0.00    -0.135 SA
HETATM    6  C6  UNL     1      24.953   2.621  53.274  1.00  0.00    -0.016 A 
HETATM    7  C7  UNL     1      26.029   2.067  53.744  1.00  0.00     0.064 A 
HETATM    8  C8  UNL     1      26.629   0.829  54.041  1.00  0.00     0.060 A 
HETATM    9  N3  UNL     1      27.152  -0.204  54.297  1.00  0.00    -0.157 N 
HETATM   10  C9  UNL     1      25.018   1.123  53.358  1.00  0.00     0.084 A 
HETATM   11  C10 UNL     1      24.338  -0.232  53.131  1.00  0.00     0.052 C 
HETATM   12  C11 UNL     1      22.915  -0.260  53.575  1.00  0.00    -0.057 C 
HETATM   13  C12 UNL     1      22.346   0.354  52.521  1.00  0.00     0.039 C 
HETATM   14  C13 UNL     1      21.176   1.173  52.821  1.00  0.00     0.097 C 
HETATM   15  N4  UNL     1      21.096   0.963  54.122  1.00  0.00    -0.282 NA
HETATM   16  C14 UNL     1      21.625  -0.430  54.292  1.00  0.00     0.183 C 
ENDROOT
BRANCH   1  17
HETATM   17  N1  UNL     1      18.909   1.594  51.932  1.00  0.00    -0.365 N 
HETATM   18  H5  UNL     1      18.179   1.957  52.641  1.00  0.00     0.162 HD
BRANCH  17  19
HETATM   19  C2  UNL     1      18.438   0.676  50.909  1.00  0.00     0.112 C 
HETATM   20  C1  UNL     1      17.709   1.345  49.776  1.00  0.00     0.037 C 
BRANCH  19  21
HETATM   21  C15 UNL     1      17.613  -0.406  51.541  1.00  0.00    -0.036 A 
HETATM   22  C16 UNL     1      16.352  -0.858  51.202  1.00  0.00     0.009 A 
HETATM   23  C17 UNL     1      15.820  -1.887  51.974  1.00  0.00     0.001 A 
HETATM   24  C18 UNL     1      16.467  -2.463  53.029  1.00  0.00     0.000 A 
HETATM   25  C19 UNL     1      17.734  -2.003  53.362  1.00  0.00     0.001 A 
HETATM   26  C20 UNL     1      18.289  -0.976  52.610  1.00  0.00     0.009 A 
ENDBRANCH  19  21
ENDBRANCH  17  19
ENDBRANCH   1  17
TORSDOF 3
ENDMDL
MODEL 8
REMARK VINA RESULT:      -7.4      3.067      7.332
REMARK  3 active torsions:
REMARK  status: ('A' for Active; 'I' for Inactive)
REMARK    1  A    between atoms: C2_2  and  N1_3 
REMARK    2  A    between atoms: C2_2  and  C15_20 
REMARK    3  A    between atoms: N1_3  and  C3_4 
ROOT
HETATM    1  C3  UNL     1      25.771   3.886  50.716  1.00  0.00     0.147 C 
HETATM    2  N2  UNL     1      26.878   3.754  50.060  1.00  0.00    -0.270 NA
HETATM    3  C4  UNL     1      27.341   4.563  48.898  1.00  0.00     0.161 C 
HETATM    4  C5  UNL     1      26.395   5.562  48.654  1.00  0.00     0.100 C 
HETATM    5  S1  UNL     1      25.251   6.770  48.361  1.00  0.00    -0.135 SA
HETATM    6  C6  UNL     1      24.303   7.744  48.144  1.00  0.00    -0.016 A 
HETATM    7  C7  UNL     1      23.396   8.654  47.959  1.00  0.00     0.064 A 
HETATM    8  C8  UNL     1      22.299   9.300  48.560  1.00  0.00     0.060 A 
HETATM    9  N3  UNL     1      21.374   9.856  49.049  1.00  0.00    -0.157 N 
HETATM   10  C9  UNL     1      23.316   8.016  49.242  1.00  0.00     0.084 A 
HETATM   11  C10 UNL     1      22.799   7.691  50.648  1.00  0.00     0.052 C 
HETATM   12  C11 UNL     1      22.715   6.228  50.924  1.00  0.00    -0.057 C 
HETATM   13  C12 UNL     1      24.010   5.983  51.196  1.00  0.00     0.039 C 
HETATM   14  C13 UNL     1      24.502   4.668  50.802  1.00  0.00     0.097 C 
HETATM   15  N4  UNL     1      23.388   4.162  50.306  1.00  0.00    -0.282 NA
HETATM   16  C14 UNL     1      22.309   4.813  51.120  1.00  0.00     0.183 C 
ENDROOT
BRANCH   1  17
HETATM   17  N1  UNL     1      25.881   2.834  51.719  1.00  0.00    -0.365 N 
HETATM   18  H5  UNL     1      26.299   3.188  52.650  1.00  0.00     0.162 HD
BRANCH  17  19
HETATM   19  C2  UNL     1      25.513   1.430  51.651  1.00  0.00     0.112 C 
HETATM   20  C1  UNL     1      24.163   1.123  52.239  1.00  0.00     0.037 C 
BRANCH  19  21
HETATM   21  C15 UNL     1      26.593   0.592  52.269  1.00  0.00    -0.036 A 
HETATM   22  C16 UNL     1      26.714  -0.783  52.323  1.00  0.00     0.009 A 
HETATM   23  C17 UNL     1      27.833  -1.295  52.972  1.00  0.00     0.001 A 
HETATM   24  C18 UNL     1      28.803  -0.523  53.547  1.00  0.00     0.000 A 
HETATM   25  C19 UNL     1      28.673   0.859  53.488  1.00  0.00     0.001 A 
HETATM   26  C20 UNL     1      27.565   1.397  52.847  1.00  0.00     0.009 A 
ENDBRANCH  19  21
ENDBRANCH  17  19
ENDBRANCH   1  17
TORSDOF 3
ENDMDL
MODEL 9
REMARK VINA RESULT:      -7.4      2.851      4.018
REMARK  3 active torsions:
REMARK  status: ('A' for Active; 'I' for Inactive)
REMARK    1  A    between atoms: C2_2  and  N1_3 
REMARK    2  A    between atoms: C2_2  and  C15_20 
REMARK    3  A    between atoms: N1_3  and  C3_4 
ROOT
HETATM    1  C3  UNL     1      22.906   1.849  51.712  1.00  0.00     0.147 C 
HETATM    2  N2  UNL     1      23.825   1.284  52.424  1.00  0.00    -0.270 NA
HETATM    3  C4  UNL     1      23.650   0.201  53.432  1.00  0.00     0.161 C 
HETATM    4  C5  UNL     1      22.302  -0.169  53.448  1.00  0.00     0.100 C 
HETATM    5  S1  UNL     1      20.674  -0.616  53.465  1.00  0.00    -0.135 SA
HETATM    6  C6  UNL     1      19.341  -0.962  53.458  1.00  0.00    -0.016 A 
HETATM    7  C7  UNL     1      18.080  -1.270  53.435  1.00  0.00     0.064 A 
HETATM    8  C8  UNL     1      16.898  -1.149  52.681  1.00  0.00     0.060 A 
HETATM    9  N3  UNL     1      15.893  -1.058  52.060  1.00  0.00    -0.157 N 
HETATM   10  C9  UNL     1      18.509  -0.516  52.290  1.00  0.00     0.084 A 
HETATM   11  C10 UNL     1      18.423   0.223  50.951  1.00  0.00     0.052 C 
HETATM   12  C11 UNL     1      19.139   1.531  50.950  1.00  0.00    -0.057 C 
HETATM   13  C12 UNL     1      20.399   1.089  50.780  1.00  0.00     0.039 C 
HETATM   14  C13 UNL     1      21.440   1.877  51.432  1.00  0.00     0.097 C 
HETATM   15  N4  UNL     1      20.690   2.821  51.969  1.00  0.00    -0.282 NA
HETATM   16  C14 UNL     1      19.547   2.958  51.006  1.00  0.00     0.183 C 
ENDROOT
BRANCH   1  17
HETATM   17  N1  UNL     1      23.672   2.811  50.928  1.00  0.00    -0.365 N 
HETATM   18  H5  UNL     1      23.795   2.505  49.899  1.00  0.00     0.162 HD
BRANCH  17  19
HETATM   19  C2  UNL     1      24.261   4.081  51.317  1.00  0.00     0.112 C 
HETATM   20  C1  UNL     1      23.264   5.195  51.475  1.00  0.00     0.037 C 
BRANCH  19  21
HETATM   21  C15 UNL     1      25.356   4.445  50.358  1.00  0.00    -0.036 A 
HETATM   22  C16 UNL     1      26.348   3.651  49.816  1.00  0.00     0.009 A 
HETATM   23  C17 UNL     1      27.243   4.263  48.944  1.00  0.00     0.001 A 
HETATM   24  C18 UNL     1      27.193   5.583  48.600  1.00  0.00     0.000 A 
HETATM   25  C19 UNL     1      26.192   6.375  49.149  1.00  0.00     0.001 A 
HETATM   26  C20 UNL     1      25.286   5.790  50.024  1.00  0.00     0.009 A 
ENDBRANCH  19  21
ENDBRANCH  17  19
ENDBRANCH   1  17
TORSDOF 3
ENDMDL
