MODEL 1
REMARK VINA RESULT:      -8.0      0.000      0.000
REMARK  4 active torsions:
REMARK  status: ('A' for Active; 'I' for Inactive)
REMARK    1  A    between atoms: O1_2  and  C2_3 
REMARK    2  A    between atoms: C6_9  and  N3_10 
REMARK    3  A    between atoms: N3_10  and  C7_11 
REMARK    4  A    between atoms: C16_20  and  O2_21 
ROOT
HETATM    1  C2  UNL     1      20.591  -0.207  52.949  1.00  0.00     0.103 A 
HETATM    2  C3  UNL     1      21.053   0.610  51.936  1.00  0.00     0.072 A 
HETATM    3  C4  UNL     1      22.358   1.011  51.906  1.00  0.00     0.075 A 
HETATM    4  N1  UNL     1      22.753   1.807  50.896  1.00  0.00    -0.241 NA
HETATM    5  C5  UNL     1      24.055   2.206  50.866  1.00  0.00     0.236 A 
HETATM    6  N2  UNL     1      24.961   1.830  51.816  1.00  0.00    -0.224 NA
HETATM    7  C6  UNL     1      24.529   1.045  52.794  1.00  0.00     0.141 A 
HETATM    8  C14 UNL     1      23.235   0.601  52.893  1.00  0.00     0.042 A 
HETATM    9  C15 UNL     1      22.805  -0.214  53.917  1.00  0.00     0.057 A 
HETATM   10  C16 UNL     1      21.469  -0.628  53.953  1.00  0.00     0.100 A 
ENDROOT
BRANCH   7  11
HETATM   11  N3  UNL     1      25.489   0.675  53.757  1.00  0.00    -0.344 N 
HETATM   12  H6  UNL     1      25.584   0.837  54.781  1.00  0.00     0.167 HD
BRANCH  11  13
HETATM   13  C7  UNL     1      26.633  -0.091  53.396  1.00  0.00     0.014 C 
HETATM   14  C8  UNL     1      26.410  -1.343  53.034  1.00  0.00     0.025 C 
HETATM   15  C9  UNL     1      27.363  -2.365  52.614  1.00  0.00     0.002 C 
HETATM   16  C10 UNL     1      28.670  -2.406  52.829  1.00  0.00    -0.000 C 
HETATM   17  C11 UNL     1      29.449  -1.404  53.556  1.00  0.00    -0.004 C 
HETATM   18  C12 UNL     1      29.080  -0.144  53.802  1.00  0.00    -0.021 C 
HETATM   19  C13 UNL     1      27.891   0.685  53.498  1.00  0.00     0.084 C 
ENDBRANCH  11  13
ENDBRANCH   7  11
BRANCH  10  20
HETATM   20  O2  UNL     1      21.145  -1.449  55.030  1.00  0.00    -0.358 OA
HETATM   21  H15 UNL     1      21.805  -1.640  55.786  1.00  0.00     0.217 HD
ENDBRANCH  10  20
BRANCH   1  22
HETATM   22  O1  UNL     1      19.321  -0.723  53.166  1.00  0.00    -0.353 OA
HETATM   23  C1  UNL     1      18.229  -0.539  52.310  1.00  0.00     0.210 C 
ENDBRANCH   1  22
TORSDOF 4
ENDMDL
MODEL 2
REMARK VINA RESULT:      -8.0      1.563      2.709
REMARK  4 active torsions:
REMARK  status: ('A' for Active; 'I' for Inactive)
REMARK    1  A    between atoms: O1_2  and  C2_3 
REMARK    2  A    between atoms: C6_9  and  N3_10 
REMARK    3  A    between atoms: N3_10  and  C7_11 
REMARK    4  A    between atoms: C16_20  and  O2_21 
ROOT
HETATM    1  C2  UNL     1      20.405  -0.542  53.393  1.00  0.00     0.103 A 
HETATM    2  C3  UNL     1      21.050  -1.005  54.523  1.00  0.00     0.072 A 
HETATM    3  C4  UNL     1      22.412  -0.962  54.613  1.00  0.00     0.075 A 
HETATM    4  N1  UNL     1      22.986  -1.427  55.738  1.00  0.00    -0.241 NA
HETATM    5  C5  UNL     1      24.345  -1.383  55.828  1.00  0.00     0.236 A 
HETATM    6  N2  UNL     1      25.133  -0.890  54.828  1.00  0.00    -0.224 NA
HETATM    7  C6  UNL     1      24.525  -0.442  53.737  1.00  0.00     0.141 A 
HETATM    8  C14 UNL     1      23.163  -0.452  53.571  1.00  0.00     0.042 A 
HETATM    9  C15 UNL     1      22.550   0.018  52.430  1.00  0.00     0.057 A 
HETATM   10  C16 UNL     1      21.155  -0.024  52.331  1.00  0.00     0.100 A 
ENDROOT
BRANCH   7  11
HETATM   11  N3  UNL     1      25.366   0.060  52.724  1.00  0.00    -0.344 N 
HETATM   12  H6  UNL     1      25.196   0.557  51.825  1.00  0.00     0.167 HD
BRANCH  11  13
HETATM   13  C7  UNL     1      26.781  -0.067  52.815  1.00  0.00     0.014 C 
HETATM   14  C8  UNL     1      27.257  -1.300  52.852  1.00  0.00     0.025 C 
HETATM   15  C9  UNL     1      28.642  -1.751  52.942  1.00  0.00     0.002 C 
HETATM   16  C10 UNL     1      29.701  -1.072  53.358  1.00  0.00    -0.000 C 
HETATM   17  C11 UNL     1      29.697   0.314  53.829  1.00  0.00    -0.004 C 
HETATM   18  C12 UNL     1      28.751   1.226  53.589  1.00  0.00    -0.021 C 
HETATM   19  C13 UNL     1      27.468   1.245  52.851  1.00  0.00     0.084 C 
ENDBRANCH  11  13
ENDBRANCH   7  11
BRANCH  10  20
HETATM   20  O2  UNL     1      20.643   0.476  51.137  1.00  0.00    -0.358 OA
HETATM   21  H15 UNL     1      19.892   1.167  51.113  1.00  0.00     0.217 HD
ENDBRANCH  10  20
BRANCH   1  22
HETATM   22  O1  UNL     1      19.050  -0.494  53.099  1.00  0.00    -0.353 OA
HETATM   23  C1  UNL     1      18.145  -1.534  53.342  1.00  0.00     0.210 C 
ENDBRANCH   1  22
TORSDOF 4
ENDMDL
MODEL 3
REMARK VINA RESULT:      -7.5      3.269      6.836
REMARK  4 active torsions:
REMARK  status: ('A' for Active; 'I' for Inactive)
REMARK    1  A    between atoms: O1_2  and  C2_3 
REMARK    2  A    between atoms: C6_9  and  N3_10 
REMARK    3  A    between atoms: N3_10  and  C7_11 
REMARK    4  A    between atoms: C16_20  and  O2_21 
ROOT
HETATM    1  C2  UNL     1      27.668   0.774  53.639  1.00  0.00     0.103 A 
HETATM    2  C3  UNL     1      26.786  -0.128  54.200  1.00  0.00     0.072 A 
HETATM    3  C4  UNL     1      25.440   0.005  54.010  1.00  0.00     0.075 A 
HETATM    4  N1  UNL     1      24.627  -0.902  54.580  1.00  0.00    -0.241 NA
HETATM    5  C5  UNL     1      23.284  -0.769  54.389  1.00  0.00     0.236 A 
HETATM    6  N2  UNL     1      22.744   0.242  53.648  1.00  0.00    -0.224 NA
HETATM    7  C6  UNL     1      23.582   1.114  53.104  1.00  0.00     0.141 A 
HETATM    8  C14 UNL     1      24.944   1.048  53.249  1.00  0.00     0.042 A 
HETATM    9  C15 UNL     1      25.799   1.965  52.676  1.00  0.00     0.057 A 
HETATM   10  C16 UNL     1      27.178   1.833  52.868  1.00  0.00     0.100 A 
ENDROOT
BRANCH   7  11
HETATM   11  N3  UNL     1      22.992   2.145  52.345  1.00  0.00    -0.344 N 
HETATM   12  H6  UNL     1      22.645   3.100  52.570  1.00  0.00     0.167 HD
BRANCH  11  13
HETATM   13  C7  UNL     1      22.759   1.987  50.949  1.00  0.00     0.014 C 
HETATM   14  C8  UNL     1      23.387   2.834  50.151  1.00  0.00     0.025 C 
HETATM   15  C9  UNL     1      23.353   2.926  48.695  1.00  0.00     0.002 C 
HETATM   16  C10 UNL     1      22.443   2.441  47.863  1.00  0.00    -0.000 C 
HETATM   17  C11 UNL     1      21.246   1.691  48.247  1.00  0.00    -0.004 C 
HETATM   18  C12 UNL     1      21.048   1.063  49.409  1.00  0.00    -0.021 C 
HETATM   19  C13 UNL     1      21.831   0.871  50.651  1.00  0.00     0.084 C 
ENDBRANCH  11  13
ENDBRANCH   7  11
BRANCH  10  20
HETATM   20  O2  UNL     1      27.946   2.813  52.244  1.00  0.00    -0.358 OA
HETATM   21  H15 UNL     1      28.068   3.745  52.643  1.00  0.00     0.217 HD
ENDBRANCH  10  20
BRANCH   1  22
HETATM   22  O1  UNL     1      29.053   0.822  53.707  1.00  0.00    -0.353 OA
HETATM   23  C1  UNL     1      29.888  -0.300  53.761  1.00  0.00     0.210 C 
ENDBRANCH   1  22
TORSDOF 4
ENDMDL
MODEL 4
REMARK VINA RESULT:      -7.3      2.555      6.642
REMARK  4 active torsions:
REMARK  status: ('A' for Active; 'I' for Inactive)
REMARK    1  A    between atoms: O1_2  and  C2_3 
REMARK    2  A    between atoms: C6_9  and  N3_10 
REMARK    3  A    between atoms: N3_10  and  C7_11 
REMARK    4  A    between atoms: C16_20  and  O2_21 
ROOT
HETATM    1  C2  UNL     1      27.700  -0.422  53.853  1.00  0.00     0.103 A 
HETATM    2  C3  UNL     1      27.341   0.885  54.113  1.00  0.00     0.072 A 
HETATM    3  C4  UNL     1      26.149   1.381  53.667  1.00  0.00     0.075 A 
HETATM    4  N1  UNL     1      25.851   2.662  53.950  1.00  0.00    -0.241 NA
HETATM    5  C5  UNL     1      24.661   3.156  53.505  1.00  0.00     0.236 A 
HETATM    6  N2  UNL     1      23.774   2.404  52.791  1.00  0.00    -0.224 NA
HETATM    7  C6  UNL     1      24.108   1.146  52.535  1.00  0.00     0.141 A 
HETATM    8  C14 UNL     1      25.286   0.576  52.948  1.00  0.00     0.042 A 
HETATM    9  C15 UNL     1      25.615  -0.733  52.671  1.00  0.00     0.057 A 
HETATM   10  C16 UNL     1      26.835  -1.247  53.126  1.00  0.00     0.100 A 
ENDROOT
BRANCH   7  11
HETATM   11  N3  UNL     1      23.170   0.397  51.796  1.00  0.00    -0.344 N 
HETATM   12  H6  UNL     1      23.197  -0.087  50.875  1.00  0.00     0.167 HD
BRANCH  11  13
HETATM   13  C7  UNL     1      21.856   0.170  52.295  1.00  0.00     0.014 C 
HETATM   14  C8  UNL     1      21.744  -0.717  53.269  1.00  0.00     0.025 C 
HETATM   15  C9  UNL     1      20.549  -1.161  53.977  1.00  0.00     0.002 C 
HETATM   16  C10 UNL     1      19.284  -1.062  53.596  1.00  0.00    -0.000 C 
HETATM   17  C11 UNL     1      18.812  -0.468  52.344  1.00  0.00    -0.004 C 
HETATM   18  C12 UNL     1      19.494   0.376  51.565  1.00  0.00    -0.021 C 
HETATM   19  C13 UNL     1      20.837   0.997  51.607  1.00  0.00     0.084 C 
ENDBRANCH  11  13
ENDBRANCH   7  11
BRANCH  10  20
HETATM   20  O2  UNL     1      27.063  -2.578  52.790  1.00  0.00    -0.358 OA
HETATM   21  H15 UNL     1      27.793  -3.134  53.237  1.00  0.00     0.217 HD
ENDBRANCH  10  20
BRANCH   1  22
HETATM   22  O1  UNL     1      28.848  -1.117  54.208  1.00  0.00    -0.353 OA
HETATM   23  C1  UNL     1      30.112  -0.905  53.647  1.00  0.00     0.210 C 
ENDBRANCH   1  22
TORSDOF 4
ENDMDL
MODEL 5
REMARK VINA RESULT:      -7.2      3.457      6.996
REMARK  4 active torsions:
REMARK  status: ('A' for Active; 'I' for Inactive)
REMARK    1  A    between atoms: O1_2  and  C2_3 
REMARK    2  A    between atoms: C6_9  and  N3_10 
REMARK    3  A    between atoms: N3_10  and  C7_11 
REMARK    4  A    between atoms: C16_20  and  O2_21 
ROOT
HETATM    1  C2  UNL     1      28.081   0.175  53.662  1.00  0.00     0.103 A 
HETATM    2  C3  UNL     1      26.859  -0.468  53.683  1.00  0.00     0.072 A 
HETATM    3  C4  UNL     1      25.702   0.228  53.471  1.00  0.00     0.075 A 
HETATM    4  N1  UNL     1      24.541  -0.451  53.504  1.00  0.00    -0.241 NA
HETATM    5  C5  UNL     1      23.387   0.244  53.292  1.00  0.00     0.236 A 
HETATM    6  N2  UNL     1      23.372   1.587  53.052  1.00  0.00    -0.224 NA
HETATM    7  C6  UNL     1      24.540   2.216  53.028  1.00  0.00     0.141 A 
HETATM    8  C14 UNL     1      25.742   1.588  53.231  1.00  0.00     0.042 A 
HETATM    9  C15 UNL     1      26.945   2.259  53.204  1.00  0.00     0.057 A 
HETATM   10  C16 UNL     1      28.133   1.552  53.420  1.00  0.00     0.100 A 
ENDROOT
BRANCH   7  11
HETATM   11  N3  UNL     1      24.489   3.602  52.776  1.00  0.00    -0.344 N 
HETATM   12  H6  UNL     1      24.755   4.445  53.325  1.00  0.00     0.167 HD
BRANCH  11  13
HETATM   13  C7  UNL     1      23.987   4.106  51.543  1.00  0.00     0.014 C 
HETATM   14  C8  UNL     1      22.940   4.910  51.622  1.00  0.00     0.025 C 
HETATM   15  C9  UNL     1      22.209   5.578  50.551  1.00  0.00     0.002 C 
HETATM   16  C10 UNL     1      22.182   5.273  49.261  1.00  0.00    -0.000 C 
HETATM   17  C11 UNL     1      22.902   4.168  48.628  1.00  0.00    -0.004 C 
HETATM   18  C12 UNL     1      23.958   3.523  49.133  1.00  0.00    -0.021 C 
HETATM   19  C13 UNL     1      24.757   3.619  50.375  1.00  0.00     0.084 C 
ENDBRANCH  11  13
ENDBRANCH   7  11
BRANCH  10  20
HETATM   20  O2  UNL     1      29.288   2.329  53.369  1.00  0.00    -0.358 OA
HETATM   21  H15 UNL     1      29.268   3.316  53.108  1.00  0.00     0.217 HD
ENDBRANCH  10  20
BRANCH   1  22
HETATM   22  O1  UNL     1      29.357  -0.334  53.850  1.00  0.00    -0.353 OA
HETATM   23  C1  UNL     1      29.764  -1.621  53.480  1.00  0.00     0.210 C 
ENDBRANCH   1  22
TORSDOF 4
ENDMDL
MODEL 6
REMARK VINA RESULT:      -7.2      3.084      4.279
REMARK  4 active torsions:
REMARK  status: ('A' for Active; 'I' for Inactive)
REMARK    1  A    between atoms: O1_2  and  C2_3 
REMARK    2  A    between atoms: C6_9  and  N3_10 
REMARK    3  A    between atoms: N3_10  and  C7_11 
REMARK    4  A    between atoms: C16_20  and  O2_21 
ROOT
HETATM    1  C2  UNL     1      24.171   3.741  49.697  1.00  0.00     0.103 A 
HETATM    2  C3  UNL     1      23.138   2.865  49.965  1.00  0.00     0.072 A 
HETATM    3  C4  UNL     1      23.234   1.967  50.990  1.00  0.00     0.075 A 
HETATM    4  N1  UNL     1      22.197   1.138  51.205  1.00  0.00    -0.241 NA
HETATM    5  C5  UNL     1      22.294   0.243  52.228  1.00  0.00     0.236 A 
HETATM    6  N2  UNL     1      23.394   0.161  53.031  1.00  0.00    -0.224 NA
HETATM    7  C6  UNL     1      24.394   0.998  52.784  1.00  0.00     0.141 A 
HETATM    8  C14 UNL     1      24.372   1.926  51.774  1.00  0.00     0.042 A 
HETATM    9  C15 UNL     1      25.421   2.786  51.532  1.00  0.00     0.057 A 
HETATM   10  C16 UNL     1      25.327   3.708  50.484  1.00  0.00     0.100 A 
ENDROOT
BRANCH   7  11
HETATM   11  N3  UNL     1      25.514   0.887  53.631  1.00  0.00    -0.344 N 
HETATM   12  H6  UNL     1      25.771   1.309  54.547  1.00  0.00     0.167 HD
BRANCH  11  13
HETATM   13  C7  UNL     1      26.615   0.052  53.287  1.00  0.00     0.014 C 
HETATM   14  C8  UNL     1      26.330  -1.213  53.027  1.00  0.00     0.025 C 
HETATM   15  C9  UNL     1      27.228  -2.301  52.650  1.00  0.00     0.002 C 
HETATM   16  C10 UNL     1      28.539  -2.379  52.822  1.00  0.00    -0.000 C 
HETATM   17  C11 UNL     1      29.383  -1.358  53.444  1.00  0.00    -0.004 C 
HETATM   18  C12 UNL     1      29.071  -0.070  53.609  1.00  0.00    -0.021 C 
HETATM   19  C13 UNL     1      27.904   0.782  53.286  1.00  0.00     0.084 C 
ENDBRANCH  11  13
ENDBRANCH   7  11
BRANCH  10  20
HETATM   20  O2  UNL     1      26.443   4.527  50.331  1.00  0.00    -0.358 OA
HETATM   21  H15 UNL     1      26.470   5.290  49.653  1.00  0.00     0.217 HD
ENDBRANCH  10  20
BRANCH   1  22
HETATM   22  O1  UNL     1      24.277   4.718  48.718  1.00  0.00    -0.353 OA
HETATM   23  C1  UNL     1      23.456   5.848  48.628  1.00  0.00     0.210 C 
ENDBRANCH   1  22
TORSDOF 4
ENDMDL
MODEL 7
REMARK VINA RESULT:      -7.2      4.682      6.435
REMARK  4 active torsions:
REMARK  status: ('A' for Active; 'I' for Inactive)
REMARK    1  A    between atoms: O1_2  and  C2_3 
REMARK    2  A    between atoms: C6_9  and  N3_10 
REMARK    3  A    between atoms: N3_10  and  C7_11 
REMARK    4  A    between atoms: C16_20  and  O2_21 
ROOT
HETATM    1  C2  UNL     1      26.416   6.076  49.065  1.00  0.00     0.103 A 
HETATM    2  C3  UNL     1      25.289   6.087  49.862  1.00  0.00     0.072 A 
HETATM    3  C4  UNL     1      24.915   4.971  50.555  1.00  0.00     0.075 A 
HETATM    4  N1  UNL     1      23.807   5.039  51.315  1.00  0.00    -0.241 NA
HETATM    5  C5  UNL     1      23.435   3.925  52.006  1.00  0.00     0.236 A 
HETATM    6  N2  UNL     1      24.139   2.757  51.953  1.00  0.00    -0.224 NA
HETATM    7  C6  UNL     1      25.225   2.734  51.191  1.00  0.00     0.141 A 
HETATM    8  C14 UNL     1      25.664   3.813  50.466  1.00  0.00     0.042 A 
HETATM    9  C15 UNL     1      26.795   3.769  49.679  1.00  0.00     0.057 A 
HETATM   10  C16 UNL     1      27.183   4.909  48.967  1.00  0.00     0.100 A 
ENDROOT
BRANCH   7  11
HETATM   11  N3  UNL     1      25.930   1.514  51.158  1.00  0.00    -0.344 N 
HETATM   12  H6  UNL     1      25.989   0.733  50.474  1.00  0.00     0.167 HD
BRANCH  11  13
HETATM   13  C7  UNL     1      26.788   1.134  52.229  1.00  0.00     0.014 C 
HETATM   14  C8  UNL     1      27.538   2.092  52.748  1.00  0.00     0.025 C 
HETATM   15  C9  UNL     1      28.504   2.017  53.839  1.00  0.00     0.002 C 
HETATM   16  C10 UNL     1      29.114   0.945  54.322  1.00  0.00    -0.000 C 
HETATM   17  C11 UNL     1      28.940  -0.428  53.845  1.00  0.00    -0.004 C 
HETATM   18  C12 UNL     1      27.913  -0.887  53.125  1.00  0.00    -0.021 C 
HETATM   19  C13 UNL     1      26.672  -0.304  52.566  1.00  0.00     0.084 C 
ENDBRANCH  11  13
ENDBRANCH   7  11
BRANCH  10  20
HETATM   20  O2  UNL     1      28.338   4.752  48.207  1.00  0.00    -0.358 OA
HETATM   21  H15 UNL     1      28.634   5.444  47.517  1.00  0.00     0.217 HD
ENDBRANCH  10  20
BRANCH   1  22
HETATM   22  O1  UNL     1      26.966   7.085  48.288  1.00  0.00    -0.353 OA
HETATM   23  C1  UNL     1      27.357   8.339  48.771  1.00  0.00     0.210 C 
ENDBRANCH   1  22
TORSDOF 4
ENDMDL
MODEL 8
REMARK VINA RESULT:      -7.1      2.387      6.391
REMARK  4 active torsions:
REMARK  status: ('A' for Active; 'I' for Inactive)
REMARK    1  A    between atoms: O1_2  and  C2_3 
REMARK    2  A    between atoms: C6_9  and  N3_10 
REMARK    3  A    between atoms: N3_10  and  C7_11 
REMARK    4  A    between atoms: C16_20  and  O2_21 
ROOT
HETATM    1  C2  UNL     1      27.489  -0.013  53.533  1.00  0.00     0.103 A 
HETATM    2  C3  UNL     1      27.673   0.846  52.468  1.00  0.00     0.072 A 
HETATM    3  C4  UNL     1      26.660   1.661  52.048  1.00  0.00     0.075 A 
HETATM    4  N1  UNL     1      26.896   2.477  51.005  1.00  0.00    -0.241 NA
HETATM    5  C5  UNL     1      25.885   3.290  50.587  1.00  0.00     0.236 A 
HETATM    6  N2  UNL     1      24.657   3.302  51.183  1.00  0.00    -0.224 NA
HETATM    7  C6  UNL     1      24.469   2.481  52.208  1.00  0.00     0.141 A 
HETATM    8  C14 UNL     1      25.435   1.634  52.688  1.00  0.00     0.042 A 
HETATM    9  C15 UNL     1      25.219   0.787  53.753  1.00  0.00     0.057 A 
HETATM   10  C16 UNL     1      26.253  -0.049  54.188  1.00  0.00     0.100 A 
ENDROOT
BRANCH   7  11
HETATM   11  N3  UNL     1      23.191   2.518  52.801  1.00  0.00    -0.344 N 
HETATM   12  H6  UNL     1      22.766   3.081  53.566  1.00  0.00     0.167 HD
BRANCH  11  13
HETATM   13  C7  UNL     1      22.151   1.653  52.358  1.00  0.00     0.014 C 
HETATM   14  C8  UNL     1      21.691   1.866  51.137  1.00  0.00     0.025 C 
HETATM   15  C9  UNL     1      20.643   1.157  50.410  1.00  0.00     0.002 C 
HETATM   16  C10 UNL     1      19.681   0.389  50.899  1.00  0.00    -0.000 C 
HETATM   17  C11 UNL     1      19.463   0.086  52.314  1.00  0.00    -0.004 C 
HETATM   18  C12 UNL     1      20.362   0.212  53.294  1.00  0.00    -0.021 C 
HETATM   19  C13 UNL     1      21.774   0.649  53.381  1.00  0.00     0.084 C 
ENDBRANCH  11  13
ENDBRANCH   7  11
BRANCH  10  20
HETATM   20  O2  UNL     1      25.925  -0.861  55.271  1.00  0.00    -0.358 OA
HETATM   21  H15 UNL     1      24.964  -0.971  55.596  1.00  0.00     0.217 HD
ENDBRANCH  10  20
BRANCH   1  22
HETATM   22  O1  UNL     1      28.372  -0.913  54.114  1.00  0.00    -0.353 OA
HETATM   23  C1  UNL     1      29.747  -0.957  53.856  1.00  0.00     0.210 C 
ENDBRANCH   1  22
TORSDOF 4
ENDMDL
MODEL 9
REMARK VINA RESULT:      -7.0      1.417      2.188
REMARK  4 active torsions:
REMARK  status: ('A' for Active; 'I' for Inactive)
REMARK    1  A    between atoms: O1_2  and  C2_3 
REMARK    2  A    between atoms: C6_9  and  N3_10 
REMARK    3  A    between atoms: N3_10  and  C7_11 
REMARK    4  A    between atoms: C16_20  and  O2_21 
ROOT
HETATM    1  C2  UNL     1      21.239   0.614  53.258  1.00  0.00     0.103 A 
HETATM    2  C3  UNL     1      21.391   1.925  52.854  1.00  0.00     0.072 A 
HETATM    3  C4  UNL     1      22.570   2.355  52.313  1.00  0.00     0.075 A 
HETATM    4  N1  UNL     1      22.662   3.644  51.938  1.00  0.00    -0.241 NA
HETATM    5  C5  UNL     1      23.838   4.071  51.399  1.00  0.00     0.236 A 
HETATM    6  N2  UNL     1      24.912   3.246  51.230  1.00  0.00    -0.224 NA
HETATM    7  C6  UNL     1      24.778   1.984  51.614  1.00  0.00     0.141 A 
HETATM    8  C14 UNL     1      23.627   1.478  52.164  1.00  0.00     0.042 A 
HETATM    9  C15 UNL     1      23.508   0.163  52.558  1.00  0.00     0.057 A 
HETATM   10  C16 UNL     1      22.303  -0.283  53.111  1.00  0.00     0.100 A 
ENDROOT
BRANCH   7  11
HETATM   11  N3  UNL     1      25.905   1.159  51.425  1.00  0.00    -0.344 N 
HETATM   12  H6  UNL     1      26.228   0.544  50.650  1.00  0.00     0.167 HD
BRANCH  11  13
HETATM   13  C7  UNL     1      26.905   1.041  52.432  1.00  0.00     0.014 C 
HETATM   14  C8  UNL     1      27.527   2.157  52.773  1.00  0.00     0.025 C 
HETATM   15  C9  UNL     1      28.583   2.359  53.758  1.00  0.00     0.002 C 
HETATM   16  C10 UNL     1      29.404   1.457  54.279  1.00  0.00    -0.000 C 
HETATM   17  C11 UNL     1      29.419   0.029  53.960  1.00  0.00    -0.004 C 
HETATM   18  C12 UNL     1      28.424  -0.664  53.400  1.00  0.00    -0.021 C 
HETATM   19  C13 UNL     1      27.059  -0.350  52.920  1.00  0.00     0.084 C 
ENDBRANCH  11  13
ENDBRANCH   7  11
BRANCH  10  20
HETATM   20  O2  UNL     1      22.293  -1.628  53.472  1.00  0.00    -0.358 OA
HETATM   21  H15 UNL     1      21.596  -2.282  53.116  1.00  0.00     0.217 HD
ENDBRANCH  10  20
BRANCH   1  22
HETATM   22  O1  UNL     1      20.143  -0.021  53.823  1.00  0.00    -0.353 OA
HETATM   23  C1  UNL     1      19.055  -0.525  53.101  1.00  0.00     0.210 C 
ENDBRANCH   1  22
TORSDOF 4
ENDMDL
