MODEL 1
REMARK VINA RESULT:      -8.0      0.000      0.000
REMARK  5 active torsions:
REMARK  status: ('A' for Active; 'I' for Inactive)
REMARK    1  A    between atoms: C10_15  and  N6_16 
REMARK    2  A    between atoms: C11_17  and  C12_18 
REMARK    3  A    between atoms: C12_18  and  N7_19 
REMARK    4  A    between atoms: N7_19  and  C14_21 
REMARK    5  A    between atoms: C19_26  and  N8_27 
ROOT
HETATM    1  C1  UNL     1      19.606   3.062  51.615  1.00  0.00     0.173 C 
HETATM    2  N1  UNL     1      20.890   3.233  52.323  1.00  0.00    -0.306 N 
HETATM    3  C2  UNL     1      21.480   4.549  52.397  1.00  0.00     0.186 C 
HETATM    4  C3  UNL     1      21.911   5.288  51.225  1.00  0.00     0.235 C 
HETATM    5  C4  UNL     1      20.741   5.683  50.405  1.00  0.00     0.088 C 
HETATM    6  N2  UNL     1      19.829   6.011  49.754  1.00  0.00    -0.195 NA
HETATM    7  N3  UNL     1      22.891   4.693  50.350  1.00  0.00    -0.260 N 
HETATM    8  C5  UNL     1      22.218   3.935  49.430  1.00  0.00     0.127 A 
HETATM    9  C6  UNL     1      23.102   3.299  48.525  1.00  0.00     0.002 A 
HETATM   10  C7  UNL     1      24.322   3.748  48.991  1.00  0.00     0.151 A 
HETATM   11  N4  UNL     1      24.189   4.575  50.076  1.00  0.00    -0.183 NA
HETATM   12  C8  UNL     1      22.329   2.477  47.560  1.00  0.00     0.033 C 
HETATM   13  C9  UNL     1      22.000   1.461  48.392  1.00  0.00     0.120 C 
HETATM   14  N5  UNL     1      22.575   1.778  49.630  1.00  0.00    -0.243 NA
HETATM   15  C10 UNL     1      22.330   1.344  50.791  1.00  0.00     0.131 C 
HETATM   16  C11 UNL     1      23.192   1.660  51.913  1.00  0.00     0.038 C 
HETATM   17  C20 UNL     1      22.848   2.312  52.991  1.00  0.00     0.119 C 
HETATM   18  N9  UNL     1      21.535   2.241  53.077  1.00  0.00    -0.175 NA
ENDROOT
BRANCH  16  19
HETATM   19  C12 UNL     1      24.480   1.060  51.596  1.00  0.00     0.167 C 
BRANCH  19  20
HETATM   20  N7  UNL     1      25.042   0.293  52.696  1.00  0.00    -0.379 N 
HETATM   21  C13 UNL     1      24.155  -0.498  53.525  1.00  0.00     0.150 C 
BRANCH  20  22
HETATM   22  C14 UNL     1      26.406   0.217  53.084  1.00  0.00     0.056 A 
HETATM   23  C15 UNL     1      27.069  -0.962  52.804  1.00  0.00     0.031 A 
HETATM   24  C16 UNL     1      28.398  -1.052  53.172  1.00  0.00     0.002 A 
HETATM   25  C17 UNL     1      29.070  -0.026  53.797  1.00  0.00     0.002 A 
HETATM   26  C18 UNL     1      28.397   1.160  54.076  1.00  0.00     0.031 A 
HETATM   27  C19 UNL     1      27.060   1.248  53.704  1.00  0.00     0.052 A 
BRANCH  27  28
HETATM   28  N8  UNL     1      26.390   2.463  53.996  1.00  0.00    -0.397 N 
HETATM   29  H22 UNL     1      25.768   3.167  53.537  1.00  0.00     0.156 HD
HETATM   30  H23 UNL     1      26.417   2.946  54.905  1.00  0.00     0.156 HD
ENDBRANCH  27  28
ENDBRANCH  20  22
ENDBRANCH  19  20
ENDBRANCH  16  19
BRANCH  15  31
HETATM   31  N6  UNL     1      21.481   0.441  51.477  1.00  0.00    -0.383 N 
HETATM   32  H11 UNL     1      21.186  -0.521  51.238  1.00  0.00     0.157 HD
HETATM   33  H12 UNL     1      20.900   0.353  52.332  1.00  0.00     0.157 HD
ENDBRANCH  15  31
TORSDOF 5
ENDMDL
MODEL 2
REMARK VINA RESULT:      -7.7      1.407      3.019
REMARK  5 active torsions:
REMARK  status: ('A' for Active; 'I' for Inactive)
REMARK    1  A    between atoms: C10_15  and  N6_16 
REMARK    2  A    between atoms: C11_17  and  C12_18 
REMARK    3  A    between atoms: C12_18  and  N7_19 
REMARK    4  A    between atoms: N7_19  and  C14_21 
REMARK    5  A    between atoms: C19_26  and  N8_27 
ROOT
HETATM    1  C1  UNL     1      24.154   5.315  51.141  1.00  0.00     0.173 C 
HETATM    2  N1  UNL     1      24.709   4.023  50.694  1.00  0.00    -0.306 N 
HETATM    3  C2  UNL     1      24.590   3.651  49.304  1.00  0.00     0.186 C 
HETATM    4  C3  UNL     1      23.313   3.446  48.648  1.00  0.00     0.235 C 
HETATM    5  C4  UNL     1      22.578   4.729  48.535  1.00  0.00     0.088 C 
HETATM    6  N2  UNL     1      21.992   5.732  48.427  1.00  0.00    -0.195 NA
HETATM    7  N3  UNL     1      22.409   2.458  49.182  1.00  0.00    -0.260 N 
HETATM    8  C5  UNL     1      21.641   3.072  50.136  1.00  0.00     0.127 A 
HETATM    9  C6  UNL     1      20.721   2.173  50.729  1.00  0.00     0.002 A 
HETATM   10  C7  UNL     1      21.015   1.009  50.047  1.00  0.00     0.151 A 
HETATM   11  N4  UNL     1      22.019   1.184  49.131  1.00  0.00    -0.183 NA
HETATM   12  C8  UNL     1      19.926   2.878  51.765  1.00  0.00     0.033 C 
HETATM   13  C9  UNL     1      20.885   2.967  52.717  1.00  0.00     0.120 C 
HETATM   14  N5  UNL     1      22.021   2.351  52.175  1.00  0.00    -0.243 NA
HETATM   15  C10 UNL     1      23.239   2.425  52.504  1.00  0.00     0.131 C 
HETATM   16  C11 UNL     1      24.231   1.537  51.933  1.00  0.00     0.038 C 
HETATM   17  C20 UNL     1      25.267   1.892  51.221  1.00  0.00     0.119 C 
HETATM   18  N9  UNL     1      25.491   3.164  51.482  1.00  0.00    -0.175 NA
ENDROOT
BRANCH  16  19
HETATM   19  C12 UNL     1      23.849   0.198  52.360  1.00  0.00     0.167 C 
BRANCH  19  20
HETATM   20  N7  UNL     1      24.676  -0.317  53.440  1.00  0.00    -0.379 N 
HETATM   21  C13 UNL     1      24.054  -0.633  54.709  1.00  0.00     0.150 C 
BRANCH  20  22
HETATM   22  C14 UNL     1      26.075  -0.558  53.412  1.00  0.00     0.056 A 
HETATM   23  C15 UNL     1      26.501  -1.675  52.720  1.00  0.00     0.031 A 
HETATM   24  C16 UNL     1      27.860  -1.923  52.681  1.00  0.00     0.002 A 
HETATM   25  C17 UNL     1      28.785  -1.111  53.297  1.00  0.00     0.002 A 
HETATM   26  C18 UNL     1      28.349   0.013  53.992  1.00  0.00     0.031 A 
HETATM   27  C19 UNL     1      26.982   0.261  54.030  1.00  0.00     0.052 A 
BRANCH  27  28
HETATM   28  N8  UNL     1      26.556   1.410  54.744  1.00  0.00    -0.397 N 
HETATM   29  H22 UNL     1      26.953   2.253  55.217  1.00  0.00     0.156 HD
HETATM   30  H23 UNL     1      25.575   1.641  54.953  1.00  0.00     0.156 HD
ENDBRANCH  27  28
ENDBRANCH  20  22
ENDBRANCH  19  20
ENDBRANCH  16  19
BRANCH  15  31
HETATM   31  N6  UNL     1      24.094   3.055  53.441  1.00  0.00    -0.383 N 
HETATM   32  H11 UNL     1      23.879   3.542  54.328  1.00  0.00     0.157 HD
HETATM   33  H12 UNL     1      25.093   3.269  53.624  1.00  0.00     0.157 HD
ENDBRANCH  15  31
TORSDOF 5
ENDMDL
MODEL 3
REMARK VINA RESULT:      -7.4      8.446     11.473
REMARK  5 active torsions:
REMARK  status: ('A' for Active; 'I' for Inactive)
REMARK    1  A    between atoms: C10_15  and  N6_16 
REMARK    2  A    between atoms: C11_17  and  C12_18 
REMARK    3  A    between atoms: C12_18  and  N7_19 
REMARK    4  A    between atoms: N7_19  and  C14_21 
REMARK    5  A    between atoms: C19_26  and  N8_27 
ROOT
HETATM    1  C1  UNL     1      33.739   3.706  47.825  1.00  0.00     0.173 C 
HETATM    2  N1  UNL     1      32.412   4.181  47.387  1.00  0.00    -0.306 N 
HETATM    3  C2  UNL     1      32.130   4.270  45.973  1.00  0.00     0.186 C 
HETATM    4  C3  UNL     1      32.855   5.153  45.078  1.00  0.00     0.235 C 
HETATM    5  C4  UNL     1      34.260   4.701  44.933  1.00  0.00     0.088 C 
HETATM    6  N2  UNL     1      35.365   4.351  44.800  1.00  0.00    -0.195 NA
HETATM    7  N3  UNL     1      32.866   6.567  45.356  1.00  0.00    -0.260 N 
HETATM    8  C5  UNL     1      33.918   6.816  46.196  1.00  0.00     0.127 A 
HETATM    9  C6  UNL     1      34.007   8.188  46.536  1.00  0.00     0.002 A 
HETATM   10  C7  UNL     1      32.937   8.703  45.830  1.00  0.00     0.151 A 
HETATM   11  N4  UNL     1      32.263   7.735  45.131  1.00  0.00    -0.183 NA
HETATM   12  C8  UNL     1      35.148   8.405  47.460  1.00  0.00     0.033 C 
HETATM   13  C9  UNL     1      34.595   7.875  48.576  1.00  0.00     0.120 C 
HETATM   14  N5  UNL     1      33.310   7.458  48.206  1.00  0.00    -0.243 NA
HETATM   15  C10 UNL     1      32.511   6.650  48.760  1.00  0.00     0.131 C 
HETATM   16  C11 UNL     1      31.139   6.518  48.313  1.00  0.00     0.038 C 
HETATM   17  C20 UNL     1      30.582   5.437  47.836  1.00  0.00     0.119 C 
HETATM   18  N9  UNL     1      31.319   4.421  48.235  1.00  0.00    -0.175 NA
ENDROOT
BRANCH  16  19
HETATM   19  C12 UNL     1      30.524   7.816  48.555  1.00  0.00     0.167 C 
BRANCH  19  20
HETATM   20  N7  UNL     1      29.186   7.930  47.997  1.00  0.00    -0.379 N 
HETATM   21  C13 UNL     1      29.034   8.353  46.620  1.00  0.00     0.150 C 
BRANCH  20  22
HETATM   22  C14 UNL     1      27.954   7.672  48.656  1.00  0.00     0.056 A 
HETATM   23  C15 UNL     1      27.235   6.574  48.226  1.00  0.00     0.031 A 
HETATM   24  C16 UNL     1      26.036   6.308  48.858  1.00  0.00     0.002 A 
HETATM   25  C17 UNL     1      25.543   7.084  49.882  1.00  0.00     0.002 A 
HETATM   26  C18 UNL     1      26.273   8.188  50.312  1.00  0.00     0.031 A 
HETATM   27  C19 UNL     1      27.479   8.455  49.675  1.00  0.00     0.052 A 
BRANCH  27  28
HETATM   28  N8  UNL     1      28.210   9.584  50.125  1.00  0.00    -0.397 N 
HETATM   29  H22 UNL     1      28.920  10.269  49.780  1.00  0.00     0.156 HD
HETATM   30  H23 UNL     1      28.136   9.995  51.066  1.00  0.00     0.156 HD
ENDBRANCH  27  28
ENDBRANCH  20  22
ENDBRANCH  19  20
ENDBRANCH  16  19
BRANCH  15  31
HETATM   31  N6  UNL     1      32.406   5.797  49.886  1.00  0.00    -0.383 N 
HETATM   32  H11 UNL     1      33.131   5.274  50.406  1.00  0.00     0.157 HD
HETATM   33  H12 UNL     1      31.714   5.397  50.549  1.00  0.00     0.157 HD
ENDBRANCH  15  31
TORSDOF 5
ENDMDL
MODEL 4
REMARK VINA RESULT:      -7.4      1.392      3.126
REMARK  5 active torsions:
REMARK  status: ('A' for Active; 'I' for Inactive)
REMARK    1  A    between atoms: C10_15  and  N6_16 
REMARK    2  A    between atoms: C11_17  and  C12_18 
REMARK    3  A    between atoms: C12_18  and  N7_19 
REMARK    4  A    between atoms: N7_19  and  C14_21 
REMARK    5  A    between atoms: C19_26  and  N8_27 
ROOT
HETATM    1  C1  UNL     1      23.321   6.147  50.825  1.00  0.00     0.173 C 
HETATM    2  N1  UNL     1      24.130   5.062  50.237  1.00  0.00    -0.306 N 
HETATM    3  C2  UNL     1      23.986   4.763  48.832  1.00  0.00     0.186 C 
HETATM    4  C3  UNL     1      22.744   4.292  48.247  1.00  0.00     0.235 C 
HETATM    5  C4  UNL     1      21.716   5.359  48.290  1.00  0.00     0.088 C 
HETATM    6  N2  UNL     1      20.900   6.193  48.305  1.00  0.00    -0.195 NA
HETATM    7  N3  UNL     1      22.153   3.080  48.758  1.00  0.00    -0.260 N 
HETATM    8  C5  UNL     1      21.344   3.424  49.808  1.00  0.00     0.127 A 
HETATM    9  C6  UNL     1      20.721   2.290  50.385  1.00  0.00     0.002 A 
HETATM   10  C7  UNL     1      21.227   1.281  49.591  1.00  0.00     0.151 A 
HETATM   11  N4  UNL     1      22.078   1.756  48.627  1.00  0.00    -0.183 NA
HETATM   12  C8  UNL     1      19.870   2.711  51.526  1.00  0.00     0.033 C 
HETATM   13  C9  UNL     1      20.857   2.972  52.416  1.00  0.00     0.120 C 
HETATM   14  N5  UNL     1      22.058   2.690  51.750  1.00  0.00    -0.243 NA
HETATM   15  C10 UNL     1      23.245   3.040  52.003  1.00  0.00     0.131 C 
HETATM   16  C11 UNL     1      24.370   2.461  51.295  1.00  0.00     0.038 C 
HETATM   17  C20 UNL     1      25.226   3.105  50.547  1.00  0.00     0.119 C 
HETATM   18  N9  UNL     1      25.159   4.373  50.897  1.00  0.00    -0.175 NA
ENDROOT
BRANCH  16  19
HETATM   19  C12 UNL     1      24.358   1.046  51.635  1.00  0.00     0.167 C 
BRANCH  19  20
HETATM   20  N7  UNL     1      25.051   0.748  52.879  1.00  0.00    -0.379 N 
HETATM   21  C13 UNL     1      24.274   0.366  54.040  1.00  0.00     0.150 C 
BRANCH  20  22
HETATM   22  C14 UNL     1      26.451   0.790  53.114  1.00  0.00     0.056 A 
HETATM   23  C15 UNL     1      26.979   2.000  53.520  1.00  0.00     0.031 A 
HETATM   24  C16 UNL     1      28.339   2.057  53.755  1.00  0.00     0.002 A 
HETATM   25  C17 UNL     1      29.170   0.971  53.602  1.00  0.00     0.002 A 
HETATM   26  C18 UNL     1      28.632  -0.246  53.194  1.00  0.00     0.031 A 
HETATM   27  C19 UNL     1      27.263  -0.302  52.958  1.00  0.00     0.052 A 
BRANCH  27  28
HETATM   28  N8  UNL     1      26.732  -1.550  52.542  1.00  0.00    -0.397 N 
HETATM   29  H22 UNL     1      25.980  -2.227  52.802  1.00  0.00     0.156 HD
HETATM   30  H23 UNL     1      27.080  -2.101  51.745  1.00  0.00     0.156 HD
ENDBRANCH  27  28
ENDBRANCH  20  22
ENDBRANCH  19  20
ENDBRANCH  16  19
BRANCH  15  31
HETATM   31  N6  UNL     1      24.001   3.800  52.929  1.00  0.00    -0.383 N 
HETATM   32  H11 UNL     1      25.000   4.067  52.926  1.00  0.00     0.157 HD
HETATM   33  H12 UNL     1      23.918   4.314  53.827  1.00  0.00     0.157 HD
ENDBRANCH  15  31
TORSDOF 5
ENDMDL
MODEL 5
REMARK VINA RESULT:      -7.4      3.662      6.486
REMARK  5 active torsions:
REMARK  status: ('A' for Active; 'I' for Inactive)
REMARK    1  A    between atoms: C10_15  and  N6_16 
REMARK    2  A    between atoms: C11_17  and  C12_18 
REMARK    3  A    between atoms: C12_18  and  N7_19 
REMARK    4  A    between atoms: N7_19  and  C14_21 
REMARK    5  A    between atoms: C19_26  and  N8_27 
ROOT
HETATM    1  C1  UNL     1      20.586   4.507  49.747  1.00  0.00     0.173 C 
HETATM    2  N1  UNL     1      21.705   4.991  48.915  1.00  0.00    -0.306 N 
HETATM    3  C2  UNL     1      22.357   4.073  48.012  1.00  0.00     0.186 C 
HETATM    4  C3  UNL     1      23.070   2.892  48.465  1.00  0.00     0.235 C 
HETATM    5  C4  UNL     1      22.123   1.907  49.041  1.00  0.00     0.088 C 
HETATM    6  N2  UNL     1      21.390   1.116  49.486  1.00  0.00    -0.195 NA
HETATM    7  N3  UNL     1      24.165   3.054  49.389  1.00  0.00    -0.260 N 
HETATM    8  C5  UNL     1      23.644   3.031  50.656  1.00  0.00     0.127 A 
HETATM    9  C6  UNL     1      24.650   3.193  51.640  1.00  0.00     0.002 A 
HETATM   10  C7  UNL     1      25.775   3.306  50.849  1.00  0.00     0.151 A 
HETATM   11  N4  UNL     1      25.481   3.223  49.513  1.00  0.00    -0.183 NA
HETATM   12  C8  UNL     1      24.037   3.180  52.992  1.00  0.00     0.033 C 
HETATM   13  C9  UNL     1      23.474   4.411  52.961  1.00  0.00     0.120 C 
HETATM   14  N5  UNL     1      23.803   4.951  51.710  1.00  0.00    -0.243 NA
HETATM   15  C10 UNL     1      23.295   5.911  51.064  1.00  0.00     0.131 C 
HETATM   16  C11 UNL     1      23.928   6.437  49.871  1.00  0.00     0.038 C 
HETATM   17  C20 UNL     1      23.416   6.455  48.669  1.00  0.00     0.119 C 
HETATM   18  N9  UNL     1      22.111   6.331  48.809  1.00  0.00    -0.175 NA
ENDROOT
BRANCH  16  19
HETATM   19  C12 UNL     1      25.209   6.970  50.312  1.00  0.00     0.167 C 
BRANCH  19  20
HETATM   20  N7  UNL     1      25.709   8.039  49.461  1.00  0.00    -0.379 N 
HETATM   21  C13 UNL     1      24.825   9.133  49.118  1.00  0.00     0.150 C 
BRANCH  20  22
HETATM   22  C14 UNL     1      27.007   8.151  48.894  1.00  0.00     0.056 A 
HETATM   23  C15 UNL     1      27.199   7.568  47.657  1.00  0.00     0.031 A 
HETATM   24  C16 UNL     1      28.456   7.671  47.091  1.00  0.00     0.002 A 
HETATM   25  C17 UNL     1      29.502   8.320  47.707  1.00  0.00     0.002 A 
HETATM   26  C18 UNL     1      29.301   8.906  48.953  1.00  0.00     0.031 A 
HETATM   27  C19 UNL     1      28.036   8.803  49.521  1.00  0.00     0.052 A 
BRANCH  27  28
HETATM   28  N8  UNL     1      27.849   9.404  50.792  1.00  0.00    -0.397 N 
HETATM   29  H22 UNL     1      27.947  10.333  51.261  1.00  0.00     0.156 HD
HETATM   30  H23 UNL     1      27.517   8.911  51.632  1.00  0.00     0.156 HD
ENDBRANCH  27  28
ENDBRANCH  20  22
ENDBRANCH  19  20
ENDBRANCH  16  19
BRANCH  15  31
HETATM   31  N6  UNL     1      22.263   6.877  51.150  1.00  0.00    -0.383 N 
HETATM   32  H11 UNL     1      22.309   7.908  51.224  1.00  0.00     0.157 HD
HETATM   33  H12 UNL     1      21.230   6.972  51.175  1.00  0.00     0.157 HD
ENDBRANCH  15  31
TORSDOF 5
ENDMDL
MODEL 6
REMARK VINA RESULT:      -7.3      8.670     10.701
REMARK  5 active torsions:
REMARK  status: ('A' for Active; 'I' for Inactive)
REMARK    1  A    between atoms: C10_15  and  N6_16 
REMARK    2  A    between atoms: C11_17  and  C12_18 
REMARK    3  A    between atoms: C12_18  and  N7_19 
REMARK    4  A    between atoms: N7_19  and  C14_21 
REMARK    5  A    between atoms: C19_26  and  N8_27 
ROOT
HETATM    1  C1  UNL     1      30.714   9.953  49.793  1.00  0.00     0.173 C 
HETATM    2  N1  UNL     1      31.350  10.041  48.464  1.00  0.00    -0.306 N 
HETATM    3  C2  UNL     1      30.944  11.090  47.560  1.00  0.00     0.186 C 
HETATM    4  C3  UNL     1      29.596  11.202  47.035  1.00  0.00     0.235 C 
HETATM    5  C4  UNL     1      28.647  11.549  48.120  1.00  0.00     0.088 C 
HETATM    6  N2  UNL     1      27.889  11.834  48.960  1.00  0.00    -0.195 NA
HETATM    7  N3  UNL     1      29.045  10.094  46.295  1.00  0.00    -0.260 N 
HETATM    8  C5  UNL     1      28.454   9.248  47.195  1.00  0.00     0.127 A 
HETATM    9  C6  UNL     1      27.887   8.117  46.559  1.00  0.00     0.002 A 
HETATM   10  C7  UNL     1      28.192   8.378  45.238  1.00  0.00     0.151 A 
HETATM   11  N4  UNL     1      28.881   9.554  45.088  1.00  0.00    -0.183 NA
HETATM   12  C8  UNL     1      27.276   7.223  47.574  1.00  0.00     0.033 C 
HETATM   13  C9  UNL     1      28.417   6.711  48.092  1.00  0.00     0.120 C 
HETATM   14  N5  UNL     1      29.464   7.307  47.376  1.00  0.00    -0.243 NA
HETATM   15  C10 UNL     1      30.694   7.415  47.646  1.00  0.00     0.131 C 
HETATM   16  C11 UNL     1      31.644   7.894  46.662  1.00  0.00     0.038 C 
HETATM   17  C20 UNL     1      32.384   8.965  46.760  1.00  0.00     0.119 C 
HETATM   18  N9  UNL     1      32.445   9.271  48.041  1.00  0.00    -0.175 NA
ENDROOT
BRANCH  16  19
HETATM   19  C12 UNL     1      31.621   6.911  45.589  1.00  0.00     0.167 C 
BRANCH  19  20
HETATM   20  N7  UNL     1      32.880   6.196  45.439  1.00  0.00    -0.379 N 
HETATM   21  C13 UNL     1      33.783   6.583  44.375  1.00  0.00     0.150 C 
BRANCH  20  22
HETATM   22  C14 UNL     1      33.357   5.119  46.232  1.00  0.00     0.056 A 
HETATM   23  C15 UNL     1      32.781   3.883  46.016  1.00  0.00     0.031 A 
HETATM   24  C16 UNL     1      33.235   2.823  46.777  1.00  0.00     0.002 A 
HETATM   25  C17 UNL     1      34.223   2.956  47.726  1.00  0.00     0.002 A 
HETATM   26  C18 UNL     1      34.800   4.204  47.939  1.00  0.00     0.031 A 
HETATM   27  C19 UNL     1      34.342   5.269  47.171  1.00  0.00     0.052 A 
BRANCH  27  28
HETATM   28  N8  UNL     1      34.941   6.534  47.402  1.00  0.00    -0.397 N 
HETATM   29  H22 UNL     1      35.741   7.115  47.065  1.00  0.00     0.156 HD
HETATM   30  H23 UNL     1      34.607   7.226  48.087  1.00  0.00     0.156 HD
ENDBRANCH  27  28
ENDBRANCH  20  22
ENDBRANCH  19  20
ENDBRANCH  16  19
BRANCH  15  31
HETATM   31  N6  UNL     1      31.639   7.084  48.648  1.00  0.00    -0.383 N 
HETATM   32  H11 UNL     1      32.672   7.035  48.610  1.00  0.00     0.157 HD
HETATM   33  H12 UNL     1      31.712   6.801  49.644  1.00  0.00     0.157 HD
ENDBRANCH  15  31
TORSDOF 5
ENDMDL
MODEL 7
REMARK VINA RESULT:      -7.3      8.647     10.653
REMARK  5 active torsions:
REMARK  status: ('A' for Active; 'I' for Inactive)
REMARK    1  A    between atoms: C10_15  and  N6_16 
REMARK    2  A    between atoms: C11_17  and  C12_18 
REMARK    3  A    between atoms: C12_18  and  N7_19 
REMARK    4  A    between atoms: N7_19  and  C14_21 
REMARK    5  A    between atoms: C19_26  and  N8_27 
ROOT
HETATM    1  C1  UNL     1      29.323  12.774  48.953  1.00  0.00     0.173 C 
HETATM    2  N1  UNL     1      30.055  11.921  47.995  1.00  0.00    -0.306 N 
HETATM    3  C2  UNL     1      29.647  11.912  46.610  1.00  0.00     0.186 C 
HETATM    4  C3  UNL     1      28.340  11.455  46.175  1.00  0.00     0.235 C 
HETATM    5  C4  UNL     1      27.285  12.385  46.647  1.00  0.00     0.088 C 
HETATM    6  N2  UNL     1      26.444  13.113  47.000  1.00  0.00    -0.195 NA
HETATM    7  N3  UNL     1      27.930  10.111  46.499  1.00  0.00    -0.260 N 
HETATM    8  C5  UNL     1      27.333  10.147  47.731  1.00  0.00     0.127 A 
HETATM    9  C6  UNL     1      26.901   8.862  48.142  1.00  0.00     0.002 A 
HETATM   10  C7  UNL     1      27.291   8.096  47.062  1.00  0.00     0.151 A 
HETATM   11  N4  UNL     1      27.902   8.844  46.089  1.00  0.00    -0.183 NA
HETATM   12  C8  UNL     1      26.277   8.948  49.487  1.00  0.00     0.033 C 
HETATM   13  C9  UNL     1      27.408   9.110  50.214  1.00  0.00     0.120 C 
HETATM   14  N5  UNL     1      28.463   9.093  49.291  1.00  0.00    -0.243 NA
HETATM   15  C10 UNL     1      29.656   9.496  49.392  1.00  0.00     0.131 C 
HETATM   16  C11 UNL     1      30.644   9.192  48.376  1.00  0.00     0.038 C 
HETATM   17  C20 UNL     1      31.295  10.059  47.648  1.00  0.00     0.119 C 
HETATM   18  N9  UNL     1      31.232  11.213  48.281  1.00  0.00    -0.175 NA
ENDROOT
BRANCH  16  19
HETATM   19  C12 UNL     1      30.778   7.742  48.384  1.00  0.00     0.167 C 
BRANCH  19  20
HETATM   20  N7  UNL     1      31.885   7.264  47.571  1.00  0.00    -0.379 N 
HETATM   21  C13 UNL     1      31.666   7.024  46.160  1.00  0.00     0.150 C 
BRANCH  20  22
HETATM   22  C14 UNL     1      33.210   6.985  48.001  1.00  0.00     0.056 A 
HETATM   23  C15 UNL     1      34.136   8.000  47.864  1.00  0.00     0.031 A 
HETATM   24  C16 UNL     1      35.429   7.747  48.278  1.00  0.00     0.002 A 
HETATM   25  C17 UNL     1      35.819   6.540  48.813  1.00  0.00     0.002 A 
HETATM   26  C18 UNL     1      34.881   5.521  48.948  1.00  0.00     0.031 A 
HETATM   27  C19 UNL     1      33.580   5.777  48.531  1.00  0.00     0.052 A 
BRANCH  27  28
HETATM   28  N8  UNL     1      32.638   4.727  48.676  1.00  0.00    -0.397 N 
HETATM   29  H22 UNL     1      32.606   3.688  48.784  1.00  0.00     0.156 HD
HETATM   30  H23 UNL     1      31.616   4.854  48.702  1.00  0.00     0.156 HD
ENDBRANCH  27  28
ENDBRANCH  20  22
ENDBRANCH  19  20
ENDBRANCH  16  19
BRANCH  15  31
HETATM   31  N6  UNL     1      30.540  10.114  50.310  1.00  0.00    -0.383 N 
HETATM   32  H11 UNL     1      30.556  11.077  50.686  1.00  0.00     0.157 HD
HETATM   33  H12 UNL     1      31.382   9.928  50.887  1.00  0.00     0.157 HD
ENDBRANCH  15  31
TORSDOF 5
ENDMDL
MODEL 8
REMARK VINA RESULT:      -7.3      1.703      2.635
REMARK  5 active torsions:
REMARK  status: ('A' for Active; 'I' for Inactive)
REMARK    1  A    between atoms: C10_15  and  N6_16 
REMARK    2  A    between atoms: C11_17  and  C12_18 
REMARK    3  A    between atoms: C12_18  and  N7_19 
REMARK    4  A    between atoms: N7_19  and  C14_21 
REMARK    5  A    between atoms: C19_26  and  N8_27 
ROOT
HETATM    1  C1  UNL     1      18.691   1.314  49.573  1.00  0.00     0.173 C 
HETATM    2  N1  UNL     1      19.620   1.359  50.719  1.00  0.00    -0.306 N 
HETATM    3  C2  UNL     1      19.289   2.179  51.860  1.00  0.00     0.186 C 
HETATM    4  C3  UNL     1      19.154   3.622  51.782  1.00  0.00     0.235 C 
HETATM    5  C4  UNL     1      17.967   3.987  50.971  1.00  0.00     0.088 C 
HETATM    6  N2  UNL     1      17.029   4.290  50.346  1.00  0.00    -0.195 NA
HETATM    7  N3  UNL     1      20.273   4.400  51.312  1.00  0.00    -0.260 N 
HETATM    8  C5  UNL     1      20.180   4.477  49.948  1.00  0.00     0.127 A 
HETATM    9  C6  UNL     1      21.249   5.220  49.389  1.00  0.00     0.002 A 
HETATM   10  C7  UNL     1      21.953   5.562  50.527  1.00  0.00     0.151 A 
HETATM   11  N4  UNL     1      21.369   5.071  51.666  1.00  0.00    -0.183 NA
HETATM   12  C8  UNL     1      21.114   5.260  47.912  1.00  0.00     0.033 C 
HETATM   13  C9  UNL     1      21.491   3.987  47.649  1.00  0.00     0.120 C 
HETATM   14  N5  UNL     1      21.782   3.409  48.892  1.00  0.00    -0.243 NA
HETATM   15  C10 UNL     1      21.878   2.197  49.239  1.00  0.00     0.131 C 
HETATM   16  C11 UNL     1      22.394   1.823  50.540  1.00  0.00     0.038 C 
HETATM   17  C20 UNL     1      21.749   1.168  51.468  1.00  0.00     0.119 C 
HETATM   18  N9  UNL     1      20.753   0.544  50.871  1.00  0.00    -0.175 NA
ENDROOT
BRANCH  16  19
HETATM   19  C12 UNL     1      23.773   2.288  50.561  1.00  0.00     0.167 C 
BRANCH  19  20
HETATM   20  N7  UNL     1      24.380   2.226  51.882  1.00  0.00    -0.379 N 
HETATM   21  C13 UNL     1      23.989   3.200  52.879  1.00  0.00     0.150 C 
BRANCH  20  22
HETATM   22  C14 UNL     1      25.352   1.296  52.339  1.00  0.00     0.056 A 
HETATM   23  C15 UNL     1      24.880   0.103  52.850  1.00  0.00     0.031 A 
HETATM   24  C16 UNL     1      25.812  -0.814  53.298  1.00  0.00     0.002 A 
HETATM   25  C17 UNL     1      27.168  -0.583  53.252  1.00  0.00     0.002 A 
HETATM   26  C18 UNL     1      27.637   0.621  52.736  1.00  0.00     0.031 A 
HETATM   27  C19 UNL     1      26.698   1.543  52.286  1.00  0.00     0.052 A 
BRANCH  27  28
HETATM   28  N8  UNL     1      27.194   2.764  51.763  1.00  0.00    -0.397 N 
HETATM   29  H22 UNL     1      27.441   3.203  50.847  1.00  0.00     0.156 HD
HETATM   30  H23 UNL     1      27.440   3.588  52.329  1.00  0.00     0.156 HD
ENDBRANCH  27  28
ENDBRANCH  20  22
ENDBRANCH  19  20
ENDBRANCH  16  19
BRANCH  15  31
HETATM   31  N6  UNL     1      21.770   0.886  48.715  1.00  0.00    -0.383 N 
HETATM   32  H11 UNL     1      21.030   0.173  48.830  1.00  0.00     0.157 HD
HETATM   33  H12 UNL     1      22.269   0.199  48.118  1.00  0.00     0.157 HD
ENDBRANCH  15  31
TORSDOF 5
ENDMDL
MODEL 9
REMARK VINA RESULT:      -7.2      9.439     11.192
REMARK  5 active torsions:
REMARK  status: ('A' for Active; 'I' for Inactive)
REMARK    1  A    between atoms: C10_15  and  N6_16 
REMARK    2  A    between atoms: C11_17  and  C12_18 
REMARK    3  A    between atoms: C12_18  and  N7_19 
REMARK    4  A    between atoms: N7_19  and  C14_21 
REMARK    5  A    between atoms: C19_26  and  N8_27 
ROOT
HETATM    1  C1  UNL     1      28.236   9.991  47.158  1.00  0.00     0.173 C 
HETATM    2  N1  UNL     1      29.265  10.037  48.215  1.00  0.00    -0.306 N 
HETATM    3  C2  UNL     1      29.886  11.300  48.536  1.00  0.00     0.186 C 
HETATM    4  C3  UNL     1      30.682  12.053  47.586  1.00  0.00     0.235 C 
HETATM    5  C4  UNL     1      29.827  12.568  46.489  1.00  0.00     0.088 C 
HETATM    6  N2  UNL     1      29.166  12.990  45.625  1.00  0.00    -0.195 NA
HETATM    7  N3  UNL     1      31.837  11.423  46.995  1.00  0.00    -0.260 N 
HETATM    8  C5  UNL     1      31.418  10.757  45.875  1.00  0.00     0.127 A 
HETATM    9  C6  UNL     1      32.488  10.094  45.226  1.00  0.00     0.002 A 
HETATM   10  C7  UNL     1      33.543  10.430  46.050  1.00  0.00     0.151 A 
HETATM   11  N4  UNL     1      33.150  11.220  47.100  1.00  0.00    -0.183 NA
HETATM   12  C8  UNL     1      31.982   9.373  44.031  1.00  0.00     0.033 C 
HETATM   13  C9  UNL     1      31.365   8.351  44.668  1.00  0.00     0.120 C 
HETATM   14  N5  UNL     1      31.573   8.572  46.037  1.00  0.00    -0.243 NA
HETATM   15  C10 UNL     1      30.974   8.110  47.049  1.00  0.00     0.131 C 
HETATM   16  C11 UNL     1      31.488   8.314  48.389  1.00  0.00     0.038 C 
HETATM   17  C20 UNL     1      30.885   8.944  49.361  1.00  0.00     0.119 C 
HETATM   18  N9  UNL     1      29.602   8.968  49.061  1.00  0.00    -0.175 NA
ENDROOT
BRANCH  16  19
HETATM   19  C12 UNL     1      32.775   7.633  48.420  1.00  0.00     0.167 C 
BRANCH  19  20
HETATM   20  N7  UNL     1      32.666   6.213  48.716  1.00  0.00    -0.379 N 
HETATM   21  C13 UNL     1      31.963   5.799  49.913  1.00  0.00     0.150 C 
BRANCH  20  22
HETATM   22  C14 UNL     1      33.184   5.132  47.953  1.00  0.00     0.056 A 
HETATM   23  C15 UNL     1      32.393   4.661  46.924  1.00  0.00     0.031 A 
HETATM   24  C16 UNL     1      32.883   3.612  46.170  1.00  0.00     0.002 A 
HETATM   25  C17 UNL     1      34.108   3.031  46.406  1.00  0.00     0.002 A 
HETATM   26  C18 UNL     1      34.900   3.511  47.444  1.00  0.00     0.031 A 
HETATM   27  C19 UNL     1      34.406   4.567  48.202  1.00  0.00     0.052 A 
BRANCH  27  28
HETATM   28  N8  UNL     1      35.227   5.043  49.256  1.00  0.00    -0.397 N 
HETATM   29  H22 UNL     1      35.258   5.813  49.962  1.00  0.00     0.156 HD
HETATM   30  H23 UNL     1      36.111   4.609  49.554  1.00  0.00     0.156 HD
ENDBRANCH  27  28
ENDBRANCH  20  22
ENDBRANCH  19  20
ENDBRANCH  16  19
BRANCH  15  31
HETATM   31  N6  UNL     1      29.910   7.246  47.405  1.00  0.00    -0.383 N 
HETATM   32  H11 UNL     1      28.919   7.450  47.623  1.00  0.00     0.157 HD
HETATM   33  H12 UNL     1      29.688   6.246  47.575  1.00  0.00     0.157 HD
ENDBRANCH  15  31
TORSDOF 5
ENDMDL
