MODEL 1
REMARK VINA RESULT:      -8.8      0.000      0.000
REMARK  5 active torsions:
REMARK  status: ('A' for Active; 'I' for Inactive)
REMARK    1  A    between atoms: O1_2  and  C2_3 
REMARK    2  A    between atoms: C6_9  and  N3_10 
REMARK    3  A    between atoms: N3_10  and  C7_11 
REMARK    4  A    between atoms: C15_20  and  N4_21 
REMARK       I    between atoms: N4_21  and  C16_22 
REMARK    5  A    between atoms: C16_22  and  C17_24 
ROOT
HETATM    1  C2  UNL     1      23.327   1.252  52.718  1.00  0.00     0.093 C 
HETATM    2  C3  UNL     1      22.097   1.580  52.402  1.00  0.00     0.044 C 
HETATM    3  C4  UNL     1      21.784   3.007  52.348  1.00  0.00     0.171 A 
HETATM    4  N1  UNL     1      20.614   3.469  51.711  1.00  0.00    -0.271 NA
HETATM    5  C5  UNL     1      20.577   4.667  51.203  1.00  0.00     0.203 A 
HETATM    6  N2  UNL     1      21.690   5.573  51.241  1.00  0.00    -0.337 N 
HETATM    7  C6  UNL     1      22.913   5.131  51.863  1.00  0.00     0.115 A 
HETATM    8  C13 UNL     1      22.941   3.888  52.380  1.00  0.00     0.017 A 
HETATM    9  C14 UNL     1      24.253   3.453  52.810  1.00  0.00     0.046 C 
HETATM   10  C15 UNL     1      24.442   2.156  52.957  1.00  0.00     0.069 C 
HETATM   11  H7  UNL     1      21.588   6.523  50.821  1.00  0.00     0.168 HD
ENDROOT
BRANCH  10  12
HETATM   12  N4  UNL     1      25.655   1.536  53.333  1.00  0.00    -0.323 N 
HETATM   13  C16 UNL     1      26.777   1.216  52.544  1.00  0.00     0.247 C 
HETATM   14  O2  UNL     1      26.741   1.501  51.328  1.00  0.00    -0.271 OA
HETATM   15  H14 UNL     1      25.847   1.234  54.311  1.00  0.00     0.169 HD
BRANCH  13  16
HETATM   16  C17 UNL     1      28.019   0.569  52.978  1.00  0.00     0.203 C 
HETATM   17  C18 UNL     1      27.808  -0.060  54.331  1.00  0.00     0.215 C 
HETATM   18  O3  UNL     1      28.094   1.006  55.236  1.00  0.00    -0.301 OA
HETATM   19  C19 UNL     1      29.143   1.707  54.659  1.00  0.00     0.361 C 
HETATM   20  O4  UNL     1      30.023   2.377  55.288  1.00  0.00    -0.238 OA
HETATM   21  N5  UNL     1      29.057   1.539  53.256  1.00  0.00    -0.321 N 
HETATM   22  H18 UNL     1      29.680   2.069  52.596  1.00  0.00     0.165 HD
ENDBRANCH  13  16
ENDBRANCH  10  12
BRANCH   1  23
HETATM   23  O1  UNL     1      23.497  -0.125  52.774  1.00  0.00    -0.354 OA
HETATM   24  C1  UNL     1      22.562  -1.039  53.281  1.00  0.00     0.210 C 
ENDBRANCH   1  23
BRANCH   7  25
HETATM   25  N3  UNL     1      23.970   6.048  51.868  1.00  0.00    -0.342 N 
HETATM   26  H8  UNL     1      24.132   6.547  52.770  1.00  0.00     0.167 HD
BRANCH  25  27
HETATM   27  C7  UNL     1      24.796   6.323  50.756  1.00  0.00     0.034 A 
HETATM   28  C8  UNL     1      25.286   5.304  49.966  1.00  0.00     0.029 A 
HETATM   29  C9  UNL     1      26.092   5.502  48.874  1.00  0.00     0.004 A 
HETATM   30  C10 UNL     1      26.429   6.816  48.552  1.00  0.00     0.019 A 
HETATM   31  C11 UNL     1      25.943   7.857  49.338  1.00  0.00     0.013 A 
HETATM   32 BR1  UNL     1      26.416   9.668  48.883  1.00  0.00    -0.051 Br
HETATM   33  C12 UNL     1      25.136   7.601  50.426  1.00  0.00     0.048 A 
ENDBRANCH  25  27
ENDBRANCH   7  25
TORSDOF 5
ENDMDL
MODEL 2
REMARK VINA RESULT:      -8.8      4.823      7.643
REMARK  5 active torsions:
REMARK  status: ('A' for Active; 'I' for Inactive)
REMARK    1  A    between atoms: O1_2  and  C2_3 
REMARK    2  A    between atoms: C6_9  and  N3_10 
REMARK    3  A    between atoms: N3_10  and  C7_11 
REMARK    4  A    between atoms: C15_20  and  N4_21 
REMARK       I    between atoms: N4_21  and  C16_22 
REMARK    5  A    between atoms: C16_22  and  C17_24 
ROOT
HETATM    1  C2  UNL     1      28.574   7.155  48.424  1.00  0.00     0.093 C 
HETATM    2  C3  UNL     1      27.470   7.732  48.832  1.00  0.00     0.044 C 
HETATM    3  C4  UNL     1      26.334   6.860  49.125  1.00  0.00     0.171 A 
HETATM    4  N1  UNL     1      25.233   7.330  49.870  1.00  0.00    -0.271 NA
HETATM    5  C5  UNL     1      24.512   6.497  50.564  1.00  0.00     0.203 A 
HETATM    6  N2  UNL     1      24.781   5.089  50.632  1.00  0.00    -0.337 N 
HETATM    7  C6  UNL     1      25.912   4.572  49.902  1.00  0.00     0.115 A 
HETATM    8  C13 UNL     1      26.653   5.442  49.193  1.00  0.00     0.017 A 
HETATM    9  C14 UNL     1      27.874   4.882  48.651  1.00  0.00     0.046 C 
HETATM   10  C15 UNL     1      28.820   5.726  48.292  1.00  0.00     0.069 C 
HETATM   11  H7  UNL     1      24.156   4.477  51.201  1.00  0.00     0.168 HD
ENDROOT
BRANCH  10  12
HETATM   12  N4  UNL     1      30.088   5.375  47.778  1.00  0.00    -0.323 N 
HETATM   13  C16 UNL     1      31.323   5.259  48.447  1.00  0.00     0.247 C 
HETATM   14  O2  UNL     1      31.350   5.491  49.675  1.00  0.00    -0.271 OA
HETATM   15  H14 UNL     1      30.240   5.150  46.772  1.00  0.00     0.169 HD
BRANCH  13  16
HETATM   16  C17 UNL     1      32.619   4.890  47.871  1.00  0.00     0.203 C 
HETATM   17  C18 UNL     1      32.502   4.836  46.369  1.00  0.00     0.215 C 
HETATM   18  O3  UNL     1      32.059   3.502  46.124  1.00  0.00    -0.301 OA
HETATM   19  C19 UNL     1      32.715   2.718  47.062  1.00  0.00     0.361 C 
HETATM   20  O4  UNL     1      33.022   1.491  46.920  1.00  0.00    -0.238 OA
HETATM   21  N5  UNL     1      32.979   3.526  48.194  1.00  0.00    -0.321 N 
HETATM   22  H18 UNL     1      33.371   3.123  49.082  1.00  0.00     0.165 HD
ENDBRANCH  13  16
ENDBRANCH  10  12
BRANCH   1  23
HETATM   23  O1  UNL     1      29.570   8.081  48.142  1.00  0.00    -0.354 OA
HETATM   24  C1  UNL     1      30.223   8.885  49.087  1.00  0.00     0.210 C 
ENDBRANCH   1  23
BRANCH   7  25
HETATM   25  N3  UNL     1      26.136   3.194  50.006  1.00  0.00    -0.342 N 
HETATM   26  H8  UNL     1      26.365   2.704  49.114  1.00  0.00     0.167 HD
BRANCH  25  27
HETATM   27  C7  UNL     1      26.069   2.461  51.212  1.00  0.00     0.034 A 
HETATM   28  C8  UNL     1      27.142   2.419  52.078  1.00  0.00     0.029 A 
HETATM   29  C9  UNL     1      27.142   1.727  53.263  1.00  0.00     0.004 A 
HETATM   30  C10 UNL     1      25.984   1.030  53.601  1.00  0.00     0.019 A 
HETATM   31  C11 UNL     1      24.892   1.060  52.739  1.00  0.00     0.013 A 
HETATM   32 BR1  UNL     1      23.297   0.092  53.219  1.00  0.00    -0.051 Br
HETATM   33  C12 UNL     1      24.945   1.773  51.559  1.00  0.00     0.048 A 
ENDBRANCH  25  27
ENDBRANCH   7  25
TORSDOF 5
ENDMDL
MODEL 3
REMARK VINA RESULT:      -8.5      1.975      2.354
REMARK  5 active torsions:
REMARK  status: ('A' for Active; 'I' for Inactive)
REMARK    1  A    between atoms: O1_2  and  C2_3 
REMARK    2  A    between atoms: C6_9  and  N3_10 
REMARK    3  A    between atoms: N3_10  and  C7_11 
REMARK    4  A    between atoms: C15_20  and  N4_21 
REMARK       I    between atoms: N4_21  and  C16_22 
REMARK    5  A    between atoms: C16_22  and  C17_24 
ROOT
HETATM    1  C2  UNL     1      23.253   0.319  52.703  1.00  0.00     0.093 C 
HETATM    2  C3  UNL     1      22.122   0.706  52.163  1.00  0.00     0.044 C 
HETATM    3  C4  UNL     1      22.169   1.884  51.298  1.00  0.00     0.171 A 
HETATM    4  N1  UNL     1      21.105   2.183  50.423  1.00  0.00    -0.271 NA
HETATM    5  C5  UNL     1      21.327   2.859  49.332  1.00  0.00     0.203 A 
HETATM    6  N2  UNL     1      22.629   3.324  48.946  1.00  0.00    -0.337 N 
HETATM    7  C6  UNL     1      23.748   3.018  49.802  1.00  0.00     0.115 A 
HETATM    8  C13 UNL     1      23.507   2.315  50.924  1.00  0.00     0.017 A 
HETATM    9  C14 UNL     1      24.699   1.886  51.625  1.00  0.00     0.046 C 
HETATM   10  C15 UNL     1      24.572   0.894  52.483  1.00  0.00     0.069 C 
HETATM   11  H7  UNL     1      22.733   3.868  48.061  1.00  0.00     0.168 HD
ENDROOT
BRANCH  10  12
HETATM   12  N4  UNL     1      25.618   0.314  53.235  1.00  0.00    -0.323 N 
HETATM   13  C16 UNL     1      26.572   0.935  54.066  1.00  0.00     0.247 C 
HETATM   14  O2  UNL     1      26.527   2.178  54.185  1.00  0.00    -0.271 OA
HETATM   15  H14 UNL     1      25.795  -0.712  53.246  1.00  0.00     0.169 HD
BRANCH  13  16
HETATM   16  C17 UNL     1      27.645   0.291  54.830  1.00  0.00     0.203 C 
HETATM   17  C18 UNL     1      28.902   1.116  54.718  1.00  0.00     0.215 C 
HETATM   18  O3  UNL     1      29.511   0.623  53.525  1.00  0.00    -0.301 OA
HETATM   19  C19 UNL     1      29.257  -0.741  53.518  1.00  0.00     0.361 C 
HETATM   20  O4  UNL     1      29.984  -1.629  52.969  1.00  0.00    -0.238 OA
HETATM   21  N5  UNL     1      28.052  -0.961  54.228  1.00  0.00    -0.321 N 
HETATM   22  H18 UNL     1      27.595  -1.906  54.263  1.00  0.00     0.165 HD
ENDBRANCH  13  16
ENDBRANCH  10  12
BRANCH   1  23
HETATM   23  O1  UNL     1      23.081  -0.783  53.530  1.00  0.00    -0.354 OA
HETATM   24  C1  UNL     1      22.361  -0.791  54.733  1.00  0.00     0.210 C 
ENDBRANCH   1  23
BRANCH   7  25
HETATM   25  N3  UNL     1      24.996   3.488  49.378  1.00  0.00    -0.342 N 
HETATM   26  H8  UNL     1      25.626   2.776  48.948  1.00  0.00     0.167 HD
BRANCH  25  27
HETATM   27  C7  UNL     1      25.430   4.827  49.498  1.00  0.00     0.034 A 
HETATM   28  C8  UNL     1      24.786   5.710  50.338  1.00  0.00     0.029 A 
HETATM   29  C9  UNL     1      25.156   7.021  50.500  1.00  0.00     0.004 A 
HETATM   30  C10 UNL     1      26.251   7.476  49.767  1.00  0.00     0.019 A 
HETATM   31  C11 UNL     1      26.914   6.599  48.914  1.00  0.00     0.013 A 
HETATM   32 BR1  UNL     1      28.425   7.240  47.906  1.00  0.00    -0.051 Br
HETATM   33  C12 UNL     1      26.499   5.289  48.789  1.00  0.00     0.048 A 
ENDBRANCH  25  27
ENDBRANCH   7  25
TORSDOF 5
ENDMDL
MODEL 4
REMARK VINA RESULT:      -8.4      2.474      3.179
REMARK  5 active torsions:
REMARK  status: ('A' for Active; 'I' for Inactive)
REMARK    1  A    between atoms: O1_2  and  C2_3 
REMARK    2  A    between atoms: C6_9  and  N3_10 
REMARK    3  A    between atoms: N3_10  and  C7_11 
REMARK    4  A    between atoms: C15_20  and  N4_21 
REMARK       I    between atoms: N4_21  and  C16_22 
REMARK    5  A    between atoms: C16_22  and  C17_24 
ROOT
HETATM    1  C2  UNL     1      24.581   1.858  52.633  1.00  0.00     0.093 C 
HETATM    2  C3  UNL     1      23.568   2.565  52.192  1.00  0.00     0.044 C 
HETATM    3  C4  UNL     1      23.870   3.647  51.257  1.00  0.00     0.171 A 
HETATM    4  N1  UNL     1      22.852   4.240  50.482  1.00  0.00    -0.271 NA
HETATM    5  C5  UNL     1      23.139   4.785  49.335  1.00  0.00     0.203 A 
HETATM    6  N2  UNL     1      24.464   4.811  48.785  1.00  0.00    -0.337 N 
HETATM    7  C6  UNL     1      25.530   4.194  49.536  1.00  0.00     0.115 A 
HETATM    8  C13 UNL     1      25.221   3.630  50.718  1.00  0.00     0.017 A 
HETATM    9  C14 UNL     1      26.299   2.869  51.314  1.00  0.00     0.046 C 
HETATM   10  C15 UNL     1      25.977   1.988  52.240  1.00  0.00     0.069 C 
HETATM   11  H7  UNL     1      24.624   5.273  47.863  1.00  0.00     0.168 HD
ENDROOT
BRANCH  10  12
HETATM   12  N4  UNL     1      26.877   1.129  52.911  1.00  0.00    -0.323 N 
HETATM   13  C16 UNL     1      27.897   1.447  53.829  1.00  0.00     0.247 C 
HETATM   14  O2  UNL     1      28.070   2.649  54.124  1.00  0.00    -0.271 OA
HETATM   15  H14 UNL     1      26.868   0.097  52.777  1.00  0.00     0.169 HD
BRANCH  13  16
HETATM   16  C17 UNL     1      28.811   0.521  54.504  1.00  0.00     0.203 C 
HETATM   17  C18 UNL     1      30.059   0.357  53.674  1.00  0.00     0.215 C 
HETATM   18  O3  UNL     1      29.719  -0.697  52.775  1.00  0.00    -0.301 OA
HETATM   19  C19 UNL     1      28.939  -1.575  53.515  1.00  0.00     0.361 C 
HETATM   20  O4  UNL     1      28.837  -2.827  53.315  1.00  0.00    -0.238 OA
HETATM   21  N5  UNL     1      28.285  -0.828  54.525  1.00  0.00    -0.321 N 
HETATM   22  H18 UNL     1      27.552  -1.257  55.143  1.00  0.00     0.165 HD
ENDBRANCH  13  16
ENDBRANCH  10  12
BRANCH   1  23
HETATM   23  O1  UNL     1      24.180   0.886  53.539  1.00  0.00    -0.354 OA
HETATM   24  C1  UNL     1      23.365  -0.215  53.241  1.00  0.00     0.210 C 
ENDBRANCH   1  23
BRANCH   7  25
HETATM   25  N3  UNL     1      26.802   4.240  48.953  1.00  0.00    -0.342 N 
HETATM   26  H8  UNL     1      27.247   3.316  48.764  1.00  0.00     0.167 HD
BRANCH  25  27
HETATM   27  C7  UNL     1      27.488   5.430  48.622  1.00  0.00     0.034 A 
HETATM   28  C8  UNL     1      26.865   6.657  48.709  1.00  0.00     0.029 A 
HETATM   29  C9  UNL     1      27.472   7.848  48.402  1.00  0.00     0.004 A 
HETATM   30  C10 UNL     1      28.800   7.802  47.980  1.00  0.00     0.019 A 
HETATM   31  C11 UNL     1      29.445   6.573  47.886  1.00  0.00     0.013 A 
HETATM   32 BR1  UNL     1      31.280   6.525  47.300  1.00  0.00    -0.051 Br
HETATM   33  C12 UNL     1      28.786   5.405  48.207  1.00  0.00     0.048 A 
ENDBRANCH  25  27
ENDBRANCH   7  25
TORSDOF 5
ENDMDL
MODEL 5
REMARK VINA RESULT:      -8.2      1.795      2.053
REMARK  5 active torsions:
REMARK  status: ('A' for Active; 'I' for Inactive)
REMARK    1  A    between atoms: O1_2  and  C2_3 
REMARK    2  A    between atoms: C6_9  and  N3_10 
REMARK    3  A    between atoms: N3_10  and  C7_11 
REMARK    4  A    between atoms: C15_20  and  N4_21 
REMARK       I    between atoms: N4_21  and  C16_22 
REMARK    5  A    between atoms: C16_22  and  C17_24 
ROOT
HETATM    1  C2  UNL     1      22.630   2.549  52.335  1.00  0.00     0.093 C 
HETATM    2  C3  UNL     1      21.591   3.110  51.764  1.00  0.00     0.044 C 
HETATM    3  C4  UNL     1      21.647   4.557  51.557  1.00  0.00     0.171 A 
HETATM    4  N1  UNL     1      20.753   5.197  50.675  1.00  0.00    -0.271 NA
HETATM    5  C5  UNL     1      21.097   6.310  50.093  1.00  0.00     0.203 A 
HETATM    6  N2  UNL     1      22.371   6.941  50.288  1.00  0.00    -0.337 N 
HETATM    7  C6  UNL     1      23.323   6.304  51.165  1.00  0.00     0.115 A 
HETATM    8  C13 UNL     1      22.959   5.152  51.757  1.00  0.00     0.017 A 
HETATM    9  C14 UNL     1      24.031   4.481  52.463  1.00  0.00     0.046 C 
HETATM   10  C15 UNL     1      23.872   3.200  52.727  1.00  0.00     0.069 C 
HETATM   11  H7  UNL     1      22.577   7.837  49.795  1.00  0.00     0.168 HD
ENDROOT
BRANCH  10  12
HETATM   12  N4  UNL     1      24.813   2.367  53.373  1.00  0.00    -0.323 N 
HETATM   13  C16 UNL     1      25.954   1.732  52.844  1.00  0.00     0.247 C 
HETATM   14  O2  UNL     1      26.212   1.899  51.633  1.00  0.00    -0.271 OA
HETATM   15  H14 UNL     1      24.745   2.127  54.384  1.00  0.00     0.169 HD
BRANCH  13  16
HETATM   16  C17 UNL     1      26.907   0.873  53.553  1.00  0.00     0.203 C 
HETATM   17  C18 UNL     1      26.757  -0.547  53.068  1.00  0.00     0.215 C 
HETATM   18  O3  UNL     1      25.725  -1.070  53.904  1.00  0.00    -0.301 OA
HETATM   19  C19 UNL     1      25.938  -0.502  55.151  1.00  0.00     0.361 C 
HETATM   20  O4  UNL     1      25.617  -1.021  56.268  1.00  0.00    -0.238 OA
HETATM   21  N5  UNL     1      26.572   0.748  54.956  1.00  0.00    -0.321 N 
HETATM   22  H18 UNL     1      26.735   1.416  55.751  1.00  0.00     0.165 HD
ENDBRANCH  13  16
ENDBRANCH  10  12
BRANCH   1  23
HETATM   23  O1  UNL     1      22.449   1.184  52.513  1.00  0.00    -0.354 OA
HETATM   24  C1  UNL     1      21.626   0.594  53.481  1.00  0.00     0.210 C 
ENDBRANCH   1  23
BRANCH   7  25
HETATM   25  N3  UNL     1      24.553   6.955  51.316  1.00  0.00    -0.342 N 
HETATM   26  H8  UNL     1      24.701   7.437  52.229  1.00  0.00     0.167 HD
BRANCH  25  27
HETATM   27  C7  UNL     1      25.566   6.990  50.332  1.00  0.00     0.034 A 
HETATM   28  C8  UNL     1      25.841   5.885  49.555  1.00  0.00     0.029 A 
HETATM   29  C9  UNL     1      26.810   5.853  48.584  1.00  0.00     0.004 A 
HETATM   30  C10 UNL     1      27.553   7.014  48.379  1.00  0.00     0.019 A 
HETATM   31  C11 UNL     1      27.289   8.140  49.154  1.00  0.00     0.013 A 
HETATM   32 BR1  UNL     1      28.325   9.738  48.860  1.00  0.00    -0.051 Br
HETATM   33  C12 UNL     1      26.303   8.117  50.118  1.00  0.00     0.048 A 
ENDBRANCH  25  27
ENDBRANCH   7  25
TORSDOF 5
ENDMDL
MODEL 6
REMARK VINA RESULT:      -8.2      5.167      7.685
REMARK  5 active torsions:
REMARK  status: ('A' for Active; 'I' for Inactive)
REMARK    1  A    between atoms: O1_2  and  C2_3 
REMARK    2  A    between atoms: C6_9  and  N3_10 
REMARK    3  A    between atoms: N3_10  and  C7_11 
REMARK    4  A    between atoms: C15_20  and  N4_21 
REMARK       I    between atoms: N4_21  and  C16_22 
REMARK    5  A    between atoms: C16_22  and  C17_24 
ROOT
HETATM    1  C2  UNL     1      20.116  -0.339  53.159  1.00  0.00     0.093 C 
HETATM    2  C3  UNL     1      20.550  -1.127  54.113  1.00  0.00     0.044 C 
HETATM    3  C4  UNL     1      21.995  -1.331  54.199  1.00  0.00     0.171 A 
HETATM    4  N1  UNL     1      22.581  -1.877  55.360  1.00  0.00    -0.271 NA
HETATM    5  C5  UNL     1      23.814  -1.590  55.664  1.00  0.00     0.203 A 
HETATM    6  N2  UNL     1      24.637  -0.717  54.877  1.00  0.00    -0.337 N 
HETATM    7  C6  UNL     1      24.067  -0.120  53.695  1.00  0.00     0.115 A 
HETATM    8  C13 UNL     1      22.791  -0.419  53.392  1.00  0.00     0.017 A 
HETATM    9  C14 UNL     1      22.236   0.365  52.309  1.00  0.00     0.046 C 
HETATM   10  C15 UNL     1      20.923   0.416  52.210  1.00  0.00     0.069 C 
HETATM   11  H7  UNL     1      25.621  -0.537  55.176  1.00  0.00     0.168 HD
ENDROOT
BRANCH  10  12
HETATM   12  N4  UNL     1      20.195   1.151  51.247  1.00  0.00    -0.323 N 
HETATM   13  C16 UNL     1      19.678   2.460  51.327  1.00  0.00     0.247 C 
HETATM   14  O2  UNL     1      19.864   3.102  52.383  1.00  0.00    -0.271 OA
HETATM   15  H14 UNL     1      19.955   0.761  50.312  1.00  0.00     0.169 HD
BRANCH  13  16
HETATM   16  C17 UNL     1      18.926   3.186  50.300  1.00  0.00     0.203 C 
HETATM   17  C18 UNL     1      18.667   2.271  49.130  1.00  0.00     0.215 C 
HETATM   18  O3  UNL     1      19.836   2.428  48.327  1.00  0.00    -0.301 OA
HETATM   19  C19 UNL     1      20.182   3.767  48.437  1.00  0.00     0.361 C 
HETATM   20  O4  UNL     1      20.800   4.449  47.559  1.00  0.00    -0.238 OA
HETATM   21  N5  UNL     1      19.723   4.231  49.694  1.00  0.00    -0.321 N 
HETATM   22  H18 UNL     1      19.965   5.189  50.052  1.00  0.00     0.165 HD
ENDBRANCH  13  16
ENDBRANCH  10  12
BRANCH   1  23
HETATM   23  O1  UNL     1      18.730  -0.249  53.151  1.00  0.00    -0.354 OA
HETATM   24  C1  UNL     1      17.846  -1.337  53.167  1.00  0.00     0.210 C 
ENDBRANCH   1  23
BRANCH   7  25
HETATM   25  N3  UNL     1      24.908   0.729  52.965  1.00  0.00    -0.342 N 
HETATM   26  H8  UNL     1      24.446   1.292  52.219  1.00  0.00     0.167 HD
BRANCH  25  27
HETATM   27  C7  UNL     1      26.298   0.856  53.181  1.00  0.00     0.034 A 
HETATM   28  C8  UNL     1      26.874   2.090  53.398  1.00  0.00     0.029 A 
HETATM   29  C9  UNL     1      28.216   2.282  53.613  1.00  0.00     0.004 A 
HETATM   30  C10 UNL     1      29.035   1.155  53.610  1.00  0.00     0.019 A 
HETATM   31  C11 UNL     1      28.472  -0.099  53.392  1.00  0.00     0.013 A 
HETATM   32 BR1  UNL     1      29.617  -1.648  53.391  1.00  0.00    -0.051 Br
HETATM   33  C12 UNL     1      27.116  -0.235  53.181  1.00  0.00     0.048 A 
ENDBRANCH  25  27
ENDBRANCH   7  25
TORSDOF 5
ENDMDL
MODEL 7
REMARK VINA RESULT:      -8.1      4.102      6.907
REMARK  5 active torsions:
REMARK  status: ('A' for Active; 'I' for Inactive)
REMARK    1  A    between atoms: O1_2  and  C2_3 
REMARK    2  A    between atoms: C6_9  and  N3_10 
REMARK    3  A    between atoms: N3_10  and  C7_11 
REMARK    4  A    between atoms: C15_20  and  N4_21 
REMARK       I    between atoms: N4_21  and  C16_22 
REMARK    5  A    between atoms: C16_22  and  C17_24 
ROOT
HETATM    1  C2  UNL     1      24.024   4.636  48.949  1.00  0.00     0.093 C 
HETATM    2  C3  UNL     1      23.082   3.776  49.252  1.00  0.00     0.044 C 
HETATM    3  C4  UNL     1      23.401   2.771  50.266  1.00  0.00     0.171 A 
HETATM    4  N1  UNL     1      22.381   2.027  50.894  1.00  0.00    -0.271 NA
HETATM    5  C5  UNL     1      22.564   1.552  52.092  1.00  0.00     0.203 A 
HETATM    6  N2  UNL     1      23.769   1.755  52.844  1.00  0.00    -0.337 N 
HETATM    7  C6  UNL     1      24.827   2.531  52.247  1.00  0.00     0.115 A 
HETATM    8  C13 UNL     1      24.626   3.020  51.009  1.00  0.00     0.017 A 
HETATM    9  C14 UNL     1      25.648   3.943  50.560  1.00  0.00     0.046 C 
HETATM   10  C15 UNL     1      25.341   4.746  49.561  1.00  0.00     0.069 C 
HETATM   11  H7  UNL     1      23.851   1.338  53.798  1.00  0.00     0.168 HD
ENDROOT
BRANCH  10  12
HETATM   12  N4  UNL     1      26.186   5.733  49.006  1.00  0.00    -0.323 N 
HETATM   13  C16 UNL     1      26.418   7.055  49.437  1.00  0.00     0.247 C 
HETATM   14  O2  UNL     1      25.810   7.457  50.452  1.00  0.00    -0.271 OA
HETATM   15  H14 UNL     1      26.763   5.561  48.157  1.00  0.00     0.169 HD
BRANCH  13  16
HETATM   16  C17 UNL     1      27.306   8.049  48.828  1.00  0.00     0.203 C 
HETATM   17  C18 UNL     1      27.468   7.743  47.361  1.00  0.00     0.215 C 
HETATM   18  O3  UNL     1      28.554   6.817  47.338  1.00  0.00    -0.301 OA
HETATM   19  C19 UNL     1      29.425   7.248  48.328  1.00  0.00     0.361 C 
HETATM   20  O4  UNL     1      30.685   7.067  48.339  1.00  0.00    -0.238 OA
HETATM   21  N5  UNL     1      28.663   7.920  49.314  1.00  0.00    -0.321 N 
HETATM   22  H18 UNL     1      29.090   8.240  50.220  1.00  0.00     0.165 HD
ENDBRANCH  13  16
ENDBRANCH  10  12
BRANCH   1  23
HETATM   23  O1  UNL     1      23.622   5.515  47.953  1.00  0.00    -0.354 OA
HETATM   24  C1  UNL     1      22.354   5.540  47.355  1.00  0.00     0.210 C 
ENDBRANCH   1  23
BRANCH   7  25
HETATM   25  N3  UNL     1      25.979   2.705  53.023  1.00  0.00    -0.342 N 
HETATM   26  H8  UNL     1      26.069   3.629  53.499  1.00  0.00     0.167 HD
BRANCH  25  27
HETATM   27  C7  UNL     1      26.988   1.731  53.187  1.00  0.00     0.034 A 
HETATM   28  C8  UNL     1      28.234   2.072  53.671  1.00  0.00     0.029 A 
HETATM   29  C9  UNL     1      29.256   1.175  53.853  1.00  0.00     0.004 A 
HETATM   30  C10 UNL     1      29.009  -0.157  53.527  1.00  0.00     0.019 A 
HETATM   31  C11 UNL     1      27.758  -0.520  53.037  1.00  0.00     0.013 A 
HETATM   32 BR1  UNL     1      27.430  -2.365  52.591  1.00  0.00    -0.051 Br
HETATM   33  C12 UNL     1      26.765   0.423  52.873  1.00  0.00     0.048 A 
ENDBRANCH  25  27
ENDBRANCH   7  25
TORSDOF 5
ENDMDL
MODEL 8
REMARK VINA RESULT:      -8.0      2.951      6.213
REMARK  5 active torsions:
REMARK  status: ('A' for Active; 'I' for Inactive)
REMARK    1  A    between atoms: O1_2  and  C2_3 
REMARK    2  A    between atoms: C6_9  and  N3_10 
REMARK    3  A    between atoms: N3_10  and  C7_11 
REMARK    4  A    between atoms: C15_20  and  N4_21 
REMARK       I    between atoms: N4_21  and  C16_22 
REMARK    5  A    between atoms: C16_22  and  C17_24 
ROOT
HETATM    1  C2  UNL     1      22.979   0.441  53.064  1.00  0.00     0.093 C 
HETATM    2  C3  UNL     1      24.223   0.306  53.457  1.00  0.00     0.044 C 
HETATM    3  C4  UNL     1      25.253   0.914  52.617  1.00  0.00     0.171 A 
HETATM    4  N1  UNL     1      26.561   1.113  53.105  1.00  0.00    -0.271 NA
HETATM    5  C5  UNL     1      27.299   2.071  52.622  1.00  0.00     0.203 A 
HETATM    6  N2  UNL     1      26.849   2.973  51.600  1.00  0.00    -0.337 N 
HETATM    7  C6  UNL     1      25.509   2.818  51.091  1.00  0.00     0.115 A 
HETATM    8  C13 UNL     1      24.754   1.828  51.601  1.00  0.00     0.017 A 
HETATM    9  C14 UNL     1      23.368   1.859  51.181  1.00  0.00     0.046 C 
HETATM   10  C15 UNL     1      22.499   1.192  51.913  1.00  0.00     0.069 C 
HETATM   11  H7  UNL     1      27.498   3.713  51.252  1.00  0.00     0.168 HD
ENDROOT
BRANCH  10  12
HETATM   12  N4  UNL     1      21.106   1.130  51.687  1.00  0.00    -0.323 N 
HETATM   13  C16 UNL     1      20.091   2.010  52.114  1.00  0.00     0.247 C 
HETATM   14  O2  UNL     1      20.424   3.005  52.793  1.00  0.00    -0.271 OA
HETATM   15  H14 UNL     1      20.663   0.363  51.139  1.00  0.00     0.169 HD
BRANCH  13  16
HETATM   16  C17 UNL     1      18.652   1.906  51.856  1.00  0.00     0.203 C 
HETATM   17  C18 UNL     1      18.347   0.554  51.263  1.00  0.00     0.215 C 
HETATM   18  O3  UNL     1      18.542   0.759  49.864  1.00  0.00    -0.301 OA
HETATM   19  C19 UNL     1      18.078   2.042  49.612  1.00  0.00     0.361 C 
HETATM   20  O4  UNL     1      17.598   2.454  48.508  1.00  0.00    -0.238 OA
HETATM   21  N5  UNL     1      18.233   2.800  50.797  1.00  0.00    -0.321 N 
HETATM   22  H18 UNL     1      18.054   3.835  50.820  1.00  0.00     0.165 HD
ENDBRANCH  13  16
ENDBRANCH  10  12
BRANCH   1  23
HETATM   23  O1  UNL     1      22.093  -0.206  53.916  1.00  0.00    -0.354 OA
HETATM   24  C1  UNL     1      22.446  -1.157  54.884  1.00  0.00     0.210 C 
ENDBRANCH   1  23
BRANCH   7  25
HETATM   25  N3  UNL     1      25.116   3.726  50.101  1.00  0.00    -0.342 N 
HETATM   26  H8  UNL     1      24.161   3.582  49.708  1.00  0.00     0.167 HD
BRANCH  25  27
HETATM   27  C7  UNL     1      25.918   4.787  49.625  1.00  0.00     0.034 A 
HETATM   28  C8  UNL     1      27.067   4.541  48.904  1.00  0.00     0.029 A 
HETATM   29  C9  UNL     1      27.889   5.524  48.413  1.00  0.00     0.004 A 
HETATM   30  C10 UNL     1      27.530   6.847  48.666  1.00  0.00     0.019 A 
HETATM   31  C11 UNL     1      26.373   7.115  49.392  1.00  0.00     0.013 A 
HETATM   32 BR1  UNL     1      25.889   8.948  49.733  1.00  0.00    -0.051 Br
HETATM   33  C12 UNL     1      25.583   6.087  49.861  1.00  0.00     0.048 A 
ENDBRANCH  25  27
ENDBRANCH   7  25
TORSDOF 5
ENDMDL
MODEL 9
REMARK VINA RESULT:      -7.9      3.349      5.690
REMARK  5 active torsions:
REMARK  status: ('A' for Active; 'I' for Inactive)
REMARK    1  A    between atoms: O1_2  and  C2_3 
REMARK    2  A    between atoms: C6_9  and  N3_10 
REMARK    3  A    between atoms: N3_10  and  C7_11 
REMARK    4  A    between atoms: C15_20  and  N4_21 
REMARK       I    between atoms: N4_21  and  C16_22 
REMARK    5  A    between atoms: C16_22  and  C17_24 
ROOT
HETATM    1  C2  UNL     1      25.250   3.893  50.175  1.00  0.00     0.093 C 
HETATM    2  C3  UNL     1      24.578   4.350  49.146  1.00  0.00     0.044 C 
HETATM    3  C4  UNL     1      23.132   4.132  49.147  1.00  0.00     0.171 A 
HETATM    4  N1  UNL     1      22.290   4.855  48.277  1.00  0.00    -0.271 NA
HETATM    5  C5  UNL     1      21.048   5.071  48.602  1.00  0.00     0.203 A 
HETATM    6  N2  UNL     1      20.465   4.616  49.832  1.00  0.00    -0.337 N 
HETATM    7  C6  UNL     1      21.299   3.893  50.760  1.00  0.00     0.115 A 
HETATM    8  C13 UNL     1      22.583   3.680  50.416  1.00  0.00     0.017 A 
HETATM    9  C14 UNL     1      23.398   3.123  51.475  1.00  0.00     0.046 C 
HETATM   10  C15 UNL     1      24.705   3.246  51.360  1.00  0.00     0.069 C 
HETATM   11  H7  UNL     1      19.459   4.817  50.024  1.00  0.00     0.168 HD
ENDROOT
BRANCH  10  12
HETATM   12  N4  UNL     1      25.662   2.801  52.300  1.00  0.00    -0.323 N 
HETATM   13  C16 UNL     1      26.488   1.660  52.261  1.00  0.00     0.247 C 
HETATM   14  O2  UNL     1      26.397   0.901  51.273  1.00  0.00    -0.271 OA
HETATM   15  H14 UNL     1      25.861   3.318  53.181  1.00  0.00     0.169 HD
BRANCH  13  16
HETATM   16  C17 UNL     1      27.470   1.234  53.263  1.00  0.00     0.203 C 
HETATM   17  C18 UNL     1      27.783  -0.227  53.066  1.00  0.00     0.215 C 
HETATM   18  O3  UNL     1      26.776  -0.884  53.834  1.00  0.00    -0.301 OA
HETATM   19  C19 UNL     1      26.589  -0.087  54.955  1.00  0.00     0.361 C 
HETATM   20  O4  UNL     1      26.199  -0.491  56.097  1.00  0.00    -0.238 OA
HETATM   21  N5  UNL     1      26.911   1.245  54.598  1.00  0.00    -0.321 N 
HETATM   22  H18 UNL     1      26.740   2.049  55.252  1.00  0.00     0.165 HD
ENDBRANCH  13  16
ENDBRANCH  10  12
BRANCH   1  23
HETATM   23  O1  UNL     1      26.613   4.124  50.048  1.00  0.00    -0.354 OA
HETATM   24  C1  UNL     1      27.246   4.645  48.911  1.00  0.00     0.210 C 
ENDBRANCH   1  23
BRANCH   7  25
HETATM   25  N3  UNL     1      20.686   3.478  51.947  1.00  0.00    -0.342 N 
HETATM   26  H8  UNL     1      20.655   4.186  52.712  1.00  0.00     0.167 HD
BRANCH  25  27
HETATM   27  C7  UNL     1      20.128   2.197  52.154  1.00  0.00     0.034 A 
HETATM   28  C8  UNL     1      18.932   1.839  51.568  1.00  0.00     0.029 A 
HETATM   29  C9  UNL     1      18.337   0.613  51.727  1.00  0.00     0.004 A 
HETATM   30  C10 UNL     1      18.990  -0.319  52.532  1.00  0.00     0.019 A 
HETATM   31  C11 UNL     1      20.198   0.024  53.131  1.00  0.00     0.013 A 
HETATM   32 BR1  UNL     1      21.091  -1.274  54.240  1.00  0.00    -0.051 Br
HETATM   33  C12 UNL     1      20.753   1.272  52.937  1.00  0.00     0.048 A 
ENDBRANCH  25  27
ENDBRANCH   7  25
TORSDOF 5
ENDMDL
