MODEL 1
REMARK VINA RESULT:      -9.0      0.000      0.000
REMARK  6 active torsions:
REMARK  status: ('A' for Active; 'I' for Inactive)
REMARK    1  A    between atoms: C3_3  and  C4_4 
REMARK       I    between atoms: C4_4  and  N1_6 
REMARK    2  A    between atoms: N1_6  and  C5_7 
REMARK    3  A    between atoms: C8_10  and  N2_11 
REMARK    4  A    between atoms: N2_11  and  C9_12 
REMARK    5  A    between atoms: C20_27  and  O2_28 
REMARK    6  A    between atoms: O2_28  and  C21_29 
ROOT
HETATM    1  C5  UNL     1      23.972   3.452  49.933  1.00  0.00     0.069 A 
HETATM    2  C6  UNL     1      24.125   2.800  51.139  1.00  0.00     0.048 A 
HETATM    3  C7  UNL     1      23.260   1.793  51.513  1.00  0.00     0.023 A 
HETATM    4  C8  UNL     1      23.333   1.084  52.698  1.00  0.00     0.067 A 
HETATM    5  C15 UNL     1      22.416   0.089  52.983  1.00  0.00     0.089 A 
HETATM    6  C16 UNL     1      22.492  -0.647  54.213  1.00  0.00     0.103 C 
HETATM    7  N3  UNL     1      22.553  -1.233  55.231  1.00  0.00    -0.191 NA
HETATM    8  C17 UNL     1      21.416  -0.178  52.042  1.00  0.00     0.142 A 
HETATM    9  N4  UNL     1      21.318   0.503  50.865  1.00  0.00    -0.259 NA
HETATM   10  C18 UNL     1      22.241   1.462  50.643  1.00  0.00     0.071 A 
HETATM   11  C19 UNL     1      22.083   2.110  49.434  1.00  0.00     0.071 A 
HETATM   12  C20 UNL     1      22.941   3.120  49.046  1.00  0.00     0.097 A 
ENDROOT
BRANCH   4  13
HETATM   13  N2  UNL     1      24.382   1.421  53.601  1.00  0.00    -0.354 N 
HETATM   14  H8  UNL     1      24.301   2.111  54.397  1.00  0.00     0.166 HD
BRANCH  13  15
HETATM   15  C9  UNL     1      25.649   0.796  53.445  1.00  0.00     0.034 A 
HETATM   16  C10 UNL     1      25.830  -0.442  52.847  1.00  0.00     0.032 A 
HETATM   17  C11 UNL     1      27.095  -0.996  52.727  1.00  0.00     0.046 A 
HETATM   18  C12 UNL     1      28.206  -0.328  53.199  1.00  0.00     0.138 A 
HETATM   19  F1  UNL     1      29.466  -0.832  53.104  1.00  0.00    -0.204 F 
HETATM   20  C13 UNL     1      28.094   0.919  53.812  1.00  0.00     0.074 A 
HETATM   21 CL1  UNL     1      29.446   1.838  54.440  1.00  0.00    -0.081 Cl
HETATM   22  C14 UNL     1      26.804   1.405  53.895  1.00  0.00     0.056 A 
ENDBRANCH  13  15
ENDBRANCH   4  13
BRANCH   1  23
HETATM   23  N1  UNL     1      24.959   4.474  49.699  1.00  0.00    -0.321 N 
HETATM   24  C4  UNL     1      26.185   3.863  49.343  1.00  0.00     0.245 C 
HETATM   25  O1  UNL     1      26.118   2.615  49.318  1.00  0.00    -0.268 OA
HETATM   26  H6  UNL     1      24.896   5.533  49.753  1.00  0.00     0.169 HD
BRANCH  24  27
HETATM   27  C3  UNL     1      27.398   4.646  49.038  1.00  0.00     0.070 C 
HETATM   28  C2  UNL     1      27.487   5.833  48.438  1.00  0.00    -0.026 C 
HETATM   29  C1  UNL     1      28.792   6.485  48.207  1.00  0.00     0.036 C 
ENDBRANCH  24  27
ENDBRANCH   1  23
BRANCH  12  30
HETATM   30  O2  UNL     1      22.964   3.882  47.911  1.00  0.00    -0.349 OA
BRANCH  30  31
HETATM   31  C21 UNL     1      21.843   4.222  47.121  1.00  0.00     0.171 C 
HETATM   32  C22 UNL     1      21.894   3.702  45.721  1.00  0.00     0.034 C 
ENDBRANCH  30  31
ENDBRANCH  12  30
TORSDOF 6
ENDMDL
MODEL 2
REMARK VINA RESULT:      -8.9      3.344      6.010
REMARK  6 active torsions:
REMARK  status: ('A' for Active; 'I' for Inactive)
REMARK    1  A    between atoms: C3_3  and  C4_4 
REMARK       I    between atoms: C4_4  and  N1_6 
REMARK    2  A    between atoms: N1_6  and  C5_7 
REMARK    3  A    between atoms: C8_10  and  N2_11 
REMARK    4  A    between atoms: N2_11  and  C9_12 
REMARK    5  A    between atoms: C20_27  and  O2_28 
REMARK    6  A    between atoms: O2_28  and  C21_29 
ROOT
HETATM    1  C5  UNL     1      26.070   0.706  52.477  1.00  0.00     0.069 A 
HETATM    2  C6  UNL     1      24.729   0.468  52.258  1.00  0.00     0.048 A 
HETATM    3  C7  UNL     1      23.957  -0.158  53.214  1.00  0.00     0.023 A 
HETATM    4  C8  UNL     1      22.609  -0.438  53.086  1.00  0.00     0.067 A 
HETATM    5  C15 UNL     1      21.920  -1.072  54.103  1.00  0.00     0.089 A 
HETATM    6  C16 UNL     1      20.521  -1.362  53.972  1.00  0.00     0.103 C 
HETATM    7  N3  UNL     1      19.378  -1.610  53.846  1.00  0.00    -0.191 NA
HETATM    8  C17 UNL     1      22.623  -1.420  55.262  1.00  0.00     0.142 A 
HETATM    9  N4  UNL     1      23.952  -1.158  55.418  1.00  0.00    -0.259 NA
HETATM   10  C18 UNL     1      24.570  -0.537  54.391  1.00  0.00     0.071 A 
HETATM   11  C19 UNL     1      25.913  -0.303  54.617  1.00  0.00     0.071 A 
HETATM   12  C20 UNL     1      26.697   0.323  53.669  1.00  0.00     0.097 A 
ENDROOT
BRANCH   4  13
HETATM   13  N2  UNL     1      21.970  -0.049  51.874  1.00  0.00    -0.354 N 
HETATM   14  H8  UNL     1      21.709  -0.705  51.088  1.00  0.00     0.166 HD
BRANCH  13  15
HETATM   15  C9  UNL     1      21.645   1.320  51.677  1.00  0.00     0.034 A 
HETATM   16  C10 UNL     1      20.869   2.062  52.554  1.00  0.00     0.032 A 
HETATM   17  C11 UNL     1      20.589   3.396  52.302  1.00  0.00     0.046 A 
HETATM   18  C12 UNL     1      21.077   4.019  51.172  1.00  0.00     0.138 A 
HETATM   19  F1  UNL     1      20.828   5.325  50.883  1.00  0.00    -0.204 F 
HETATM   20  C13 UNL     1      21.863   3.330  50.249  1.00  0.00     0.074 A 
HETATM   21 CL1  UNL     1      22.525   4.038  48.790  1.00  0.00    -0.081 Cl
HETATM   22  C14 UNL     1      22.098   2.007  50.568  1.00  0.00     0.056 A 
ENDBRANCH  13  15
ENDBRANCH   4  13
BRANCH   1  23
HETATM   23  N1  UNL     1      26.727   1.368  51.380  1.00  0.00    -0.321 N 
HETATM   24  C4  UNL     1      26.187   2.668  51.232  1.00  0.00     0.245 C 
HETATM   25  O1  UNL     1      25.293   2.922  52.068  1.00  0.00    -0.268 OA
HETATM   26  H6  UNL     1      27.495   1.040  50.723  1.00  0.00     0.169 HD
BRANCH  24  27
HETATM   27  C3  UNL     1      26.653   3.603  50.189  1.00  0.00     0.070 C 
HETATM   28  C2  UNL     1      26.040   4.687  49.716  1.00  0.00    -0.026 C 
HETATM   29  C1  UNL     1      26.652   5.521  48.662  1.00  0.00     0.036 C 
ENDBRANCH  24  27
ENDBRANCH   1  23
BRANCH  12  30
HETATM   30  O2  UNL     1      28.025   0.648  53.687  1.00  0.00    -0.349 OA
BRANCH  30  31
HETATM   31  C21 UNL     1      29.039  -0.053  54.378  1.00  0.00     0.171 C 
HETATM   32  C22 UNL     1      29.757  -1.071  53.554  1.00  0.00     0.034 C 
ENDBRANCH  30  31
ENDBRANCH  12  30
TORSDOF 6
ENDMDL
MODEL 3
REMARK VINA RESULT:      -8.8      3.504      6.602
REMARK  6 active torsions:
REMARK  status: ('A' for Active; 'I' for Inactive)
REMARK    1  A    between atoms: C3_3  and  C4_4 
REMARK       I    between atoms: C4_4  and  N1_6 
REMARK    2  A    between atoms: N1_6  and  C5_7 
REMARK    3  A    between atoms: C8_10  and  N2_11 
REMARK    4  A    between atoms: N2_11  and  C9_12 
REMARK    5  A    between atoms: C20_27  and  O2_28 
REMARK    6  A    between atoms: O2_28  and  C21_29 
ROOT
HETATM    1  C5  UNL     1      24.311   1.746  53.241  1.00  0.00     0.069 A 
HETATM    2  C6  UNL     1      24.243   3.066  52.846  1.00  0.00     0.048 A 
HETATM    3  C7  UNL     1      23.087   3.581  52.297  1.00  0.00     0.023 A 
HETATM    4  C8  UNL     1      22.925   4.887  51.873  1.00  0.00     0.067 A 
HETATM    5  C15 UNL     1      21.723   5.309  51.333  1.00  0.00     0.089 A 
HETATM    6  C16 UNL     1      21.553   6.664  50.893  1.00  0.00     0.103 C 
HETATM    7  N3  UNL     1      21.430   7.773  50.520  1.00  0.00    -0.191 NA
HETATM    8  C17 UNL     1      20.682   4.381  51.230  1.00  0.00     0.142 A 
HETATM    9  N4  UNL     1      20.811   3.087  51.640  1.00  0.00    -0.259 NA
HETATM   10  C18 UNL     1      22.006   2.734  52.158  1.00  0.00     0.071 A 
HETATM   11  C19 UNL     1      22.067   1.411  52.552  1.00  0.00     0.071 A 
HETATM   12  C20 UNL     1      23.217   0.883  53.103  1.00  0.00     0.097 A 
ENDROOT
BRANCH   4  13
HETATM   13  N2  UNL     1      24.036   5.767  52.013  1.00  0.00    -0.354 N 
HETATM   14  H8  UNL     1      24.309   6.262  52.905  1.00  0.00     0.166 HD
BRANCH  13  15
HETATM   15  C9  UNL     1      24.861   6.017  50.883  1.00  0.00     0.034 A 
HETATM   16  C10 UNL     1      25.326   5.025  50.033  1.00  0.00     0.032 A 
HETATM   17  C11 UNL     1      26.128   5.337  48.948  1.00  0.00     0.046 A 
HETATM   18  C12 UNL     1      26.485   6.644  48.685  1.00  0.00     0.138 A 
HETATM   19  F1  UNL     1      27.270   6.999  47.633  1.00  0.00    -0.204 F 
HETATM   20  C13 UNL     1      26.052   7.689  49.501  1.00  0.00     0.074 A 
HETATM   21 CL1  UNL     1      26.453   9.375  49.246  1.00  0.00    -0.081 Cl
HETATM   22  C14 UNL     1      25.257   7.300  50.561  1.00  0.00     0.056 A 
ENDBRANCH  13  15
ENDBRANCH   4  13
BRANCH   1  23
HETATM   23  N1  UNL     1      25.587   1.372  53.793  1.00  0.00    -0.321 N 
HETATM   24  C4  UNL     1      26.456   0.998  52.740  1.00  0.00     0.245 C 
HETATM   25  O1  UNL     1      25.920   1.081  51.614  1.00  0.00    -0.268 OA
HETATM   26  H6  UNL     1      25.934   1.342  54.797  1.00  0.00     0.169 HD
BRANCH  24  27
HETATM   27  C3  UNL     1      27.845   0.561  52.981  1.00  0.00     0.070 C 
HETATM   28  C2  UNL     1      28.279  -0.632  53.386  1.00  0.00    -0.026 C 
HETATM   29  C1  UNL     1      29.717  -0.905  53.579  1.00  0.00     0.036 C 
ENDBRANCH  24  27
ENDBRANCH   1  23
BRANCH  12  30
HETATM   30  O2  UNL     1      23.490  -0.379  53.553  1.00  0.00    -0.349 OA
BRANCH  30  31
HETATM   31  C21 UNL     1      22.911  -0.995  54.687  1.00  0.00     0.171 C 
HETATM   32  C22 UNL     1      21.650  -1.744  54.406  1.00  0.00     0.034 C 
ENDBRANCH  30  31
ENDBRANCH  12  30
TORSDOF 6
ENDMDL
MODEL 4
REMARK VINA RESULT:      -8.8      3.046      5.682
REMARK  6 active torsions:
REMARK  status: ('A' for Active; 'I' for Inactive)
REMARK    1  A    between atoms: C3_3  and  C4_4 
REMARK       I    between atoms: C4_4  and  N1_6 
REMARK    2  A    between atoms: N1_6  and  C5_7 
REMARK    3  A    between atoms: C8_10  and  N2_11 
REMARK    4  A    between atoms: N2_11  and  C9_12 
REMARK    5  A    between atoms: C20_27  and  O2_28 
REMARK    6  A    between atoms: O2_28  and  C21_29 
ROOT
HETATM    1  C5  UNL     1      26.202   2.232  52.032  1.00  0.00     0.069 A 
HETATM    2  C6  UNL     1      24.826   2.247  51.938  1.00  0.00     0.048 A 
HETATM    3  C7  UNL     1      24.071   1.218  52.461  1.00  0.00     0.023 A 
HETATM    4  C8  UNL     1      22.691   1.145  52.416  1.00  0.00     0.067 A 
HETATM    5  C15 UNL     1      22.022   0.069  52.970  1.00  0.00     0.089 A 
HETATM    6  C16 UNL     1      20.590  -0.007  52.924  1.00  0.00     0.103 C 
HETATM    7  N3  UNL     1      19.417  -0.068  52.865  1.00  0.00    -0.191 NA
HETATM    8  C17 UNL     1      22.779  -0.940  53.575  1.00  0.00     0.142 A 
HETATM    9  N4  UNL     1      24.141  -0.896  53.636  1.00  0.00    -0.259 NA
HETATM   10  C18 UNL     1      24.737   0.179  53.079  1.00  0.00     0.071 A 
HETATM   11  C19 UNL     1      26.114   0.158  53.176  1.00  0.00     0.071 A 
HETATM   12  C20 UNL     1      26.883   1.181  52.658  1.00  0.00     0.097 A 
ENDROOT
BRANCH   4  13
HETATM   13  N2  UNL     1      21.997   2.214  51.780  1.00  0.00    -0.354 N 
HETATM   14  H8  UNL     1      21.427   2.950  52.280  1.00  0.00     0.166 HD
BRANCH  13  15
HETATM   15  C9  UNL     1      22.058   2.327  50.365  1.00  0.00     0.034 A 
HETATM   16  C10 UNL     1      21.723   1.301  49.495  1.00  0.00     0.032 A 
HETATM   17  C11 UNL     1      21.805   1.477  48.122  1.00  0.00     0.046 A 
HETATM   18  C12 UNL     1      22.222   2.678  47.588  1.00  0.00     0.138 A 
HETATM   19  F1  UNL     1      22.319   2.898  46.249  1.00  0.00    -0.204 F 
HETATM   20  C13 UNL     1      22.574   3.751  48.407  1.00  0.00     0.074 A 
HETATM   21 CL1  UNL     1      23.113   5.310  47.819  1.00  0.00    -0.081 Cl
HETATM   22  C14 UNL     1      22.467   3.500  49.761  1.00  0.00     0.056 A 
ENDBRANCH  13  15
ENDBRANCH   4  13
BRANCH   1  23
HETATM   23  N1  UNL     1      26.835   3.380  51.437  1.00  0.00    -0.321 N 
HETATM   24  C4  UNL     1      26.558   3.394  50.048  1.00  0.00     0.245 C 
HETATM   25  O1  UNL     1      25.849   2.432  49.683  1.00  0.00    -0.268 OA
HETATM   26  H6  UNL     1      27.430   4.151  51.861  1.00  0.00     0.169 HD
BRANCH  24  27
HETATM   27  C3  UNL     1      27.068   4.450  49.152  1.00  0.00     0.070 C 
HETATM   28  C2  UNL     1      26.573   5.670  48.945  1.00  0.00    -0.026 C 
HETATM   29  C1  UNL     1      27.212   6.613  48.005  1.00  0.00     0.036 C 
ENDBRANCH  24  27
ENDBRANCH   1  23
BRANCH  12  30
HETATM   30  O2  UNL     1      28.239   1.357  52.645  1.00  0.00    -0.349 OA
BRANCH  30  31
HETATM   31  C21 UNL     1      29.125   1.029  53.696  1.00  0.00     0.171 C 
HETATM   32  C22 UNL     1      29.852  -0.262  53.510  1.00  0.00     0.034 C 
ENDBRANCH  30  31
ENDBRANCH  12  30
TORSDOF 6
ENDMDL
MODEL 5
REMARK VINA RESULT:      -8.1      4.790      8.089
REMARK  6 active torsions:
REMARK  status: ('A' for Active; 'I' for Inactive)
REMARK    1  A    between atoms: C3_3  and  C4_4 
REMARK       I    between atoms: C4_4  and  N1_6 
REMARK    2  A    between atoms: N1_6  and  C5_7 
REMARK    3  A    between atoms: C8_10  and  N2_11 
REMARK    4  A    between atoms: N2_11  and  C9_12 
REMARK    5  A    between atoms: C20_27  and  O2_28 
REMARK    6  A    between atoms: O2_28  and  C21_29 
ROOT
HETATM    1  C5  UNL     1      17.132   0.328  51.498  1.00  0.00     0.069 A 
HETATM    2  C6  UNL     1      18.510   0.358  51.465  1.00  0.00     0.048 A 
HETATM    3  C7  UNL     1      19.191   1.558  51.491  1.00  0.00     0.023 A 
HETATM    4  C8  UNL     1      20.567   1.689  51.462  1.00  0.00     0.067 A 
HETATM    5  C15 UNL     1      21.158   2.939  51.492  1.00  0.00     0.089 A 
HETATM    6  C16 UNL     1      22.586   3.076  51.462  1.00  0.00     0.103 C 
HETATM    7  N3  UNL     1      23.758   3.178  51.421  1.00  0.00    -0.191 NA
HETATM    8  C17 UNL     1      20.327   4.062  51.552  1.00  0.00     0.142 A 
HETATM    9  N4  UNL     1      18.967   3.965  51.582  1.00  0.00    -0.259 NA
HETATM   10  C18 UNL     1      18.449   2.720  51.551  1.00  0.00     0.071 A 
HETATM   11  C19 UNL     1      17.068   2.696  51.584  1.00  0.00     0.071 A 
HETATM   12  C20 UNL     1      16.374   1.503  51.559  1.00  0.00     0.097 A 
ENDROOT
BRANCH   4  13
HETATM   13  N2  UNL     1      21.340   0.494  51.400  1.00  0.00    -0.354 N 
HETATM   14  H8  UNL     1      21.593  -0.021  50.513  1.00  0.00     0.166 HD
BRANCH  13  15
HETATM   15  C9  UNL     1      21.823  -0.074  52.610  1.00  0.00     0.034 A 
HETATM   16  C10 UNL     1      21.006  -0.651  53.571  1.00  0.00     0.032 A 
HETATM   17  C11 UNL     1      21.542  -1.188  54.731  1.00  0.00     0.046 A 
HETATM   18  C12 UNL     1      22.903  -1.162  54.958  1.00  0.00     0.138 A 
HETATM   19  F1  UNL     1      23.474  -1.676  56.081  1.00  0.00    -0.204 F 
HETATM   20  C13 UNL     1      23.780  -0.596  54.033  1.00  0.00     0.074 A 
HETATM   21 CL1  UNL     1      25.517  -0.519  54.236  1.00  0.00    -0.081 Cl
HETATM   22  C14 UNL     1      23.172  -0.083  52.904  1.00  0.00     0.056 A 
ENDBRANCH  13  15
ENDBRANCH   4  13
BRANCH   1  23
HETATM   23  N1  UNL     1      16.582  -1.003  51.464  1.00  0.00    -0.321 N 
HETATM   24  C4  UNL     1      16.801  -1.627  52.716  1.00  0.00     0.245 C 
HETATM   25  O1  UNL     1      17.403  -0.892  53.528  1.00  0.00    -0.268 OA
HETATM   26  H6  UNL     1      16.079  -1.533  50.694  1.00  0.00     0.169 HD
BRANCH  24  27
HETATM   27  C3  UNL     1      16.352  -3.004  53.001  1.00  0.00     0.070 C 
HETATM   28  C2  UNL     1      17.014  -3.978  53.625  1.00  0.00    -0.026 C 
HETATM   29  C1  UNL     1      16.413  -5.311  53.830  1.00  0.00     0.036 C 
ENDBRANCH  24  27
ENDBRANCH   1  23
BRANCH  12  30
HETATM   30  O2  UNL     1      15.029   1.255  51.583  1.00  0.00    -0.349 OA
BRANCH  30  31
HETATM   31  C21 UNL     1      14.158   1.526  52.662  1.00  0.00     0.171 C 
HETATM   32  C22 UNL     1      13.768   0.324  53.458  1.00  0.00     0.034 C 
ENDBRANCH  30  31
ENDBRANCH  12  30
TORSDOF 6
ENDMDL
MODEL 6
REMARK VINA RESULT:      -7.8      3.545      6.545
REMARK  6 active torsions:
REMARK  status: ('A' for Active; 'I' for Inactive)
REMARK    1  A    between atoms: C3_3  and  C4_4 
REMARK       I    between atoms: C4_4  and  N1_6 
REMARK    2  A    between atoms: N1_6  and  C5_7 
REMARK    3  A    between atoms: C8_10  and  N2_11 
REMARK    4  A    between atoms: N2_11  and  C9_12 
REMARK    5  A    between atoms: C20_27  and  O2_28 
REMARK    6  A    between atoms: O2_28  and  C21_29 
ROOT
HETATM    1  C5  UNL     1      23.056   1.422  52.165  1.00  0.00     0.069 A 
HETATM    2  C6  UNL     1      22.772   2.373  51.208  1.00  0.00     0.048 A 
HETATM    3  C7  UNL     1      21.532   2.975  51.156  1.00  0.00     0.023 A 
HETATM    4  C8  UNL     1      21.155   3.936  50.236  1.00  0.00     0.067 A 
HETATM    5  C15 UNL     1      19.884   4.481  50.266  1.00  0.00     0.089 A 
HETATM    6  C16 UNL     1      19.492   5.479  49.312  1.00  0.00     0.103 C 
HETATM    7  N3  UNL     1      19.176   6.284  48.515  1.00  0.00    -0.191 NA
HETATM    8  C17 UNL     1      18.995   4.034  51.249  1.00  0.00     0.142 A 
HETATM    9  N4  UNL     1      19.337   3.088  52.169  1.00  0.00    -0.259 NA
HETATM   10  C18 UNL     1      20.590   2.594  52.091  1.00  0.00     0.071 A 
HETATM   11  C19 UNL     1      20.869   1.641  53.052  1.00  0.00     0.071 A 
HETATM   12  C20 UNL     1      22.105   1.031  53.116  1.00  0.00     0.097 A 
ENDROOT
BRANCH   4  13
HETATM   13  N2  UNL     1      22.121   4.334  49.269  1.00  0.00    -0.354 N 
HETATM   14  H8  UNL     1      22.141   4.014  48.263  1.00  0.00     0.166 HD
BRANCH  13  15
HETATM   15  C9  UNL     1      23.152   5.232  49.658  1.00  0.00     0.034 A 
HETATM   16  C10 UNL     1      22.975   6.260  50.572  1.00  0.00     0.032 A 
HETATM   17  C11 UNL     1      24.023   7.102  50.907  1.00  0.00     0.046 A 
HETATM   18  C12 UNL     1      25.270   6.939  50.340  1.00  0.00     0.138 A 
HETATM   19  F1  UNL     1      26.329   7.740  50.637  1.00  0.00    -0.204 F 
HETATM   20  C13 UNL     1      25.516   5.925  49.413  1.00  0.00     0.074 A 
HETATM   21 CL1  UNL     1      27.063   5.642  48.644  1.00  0.00    -0.081 Cl
HETATM   22  C14 UNL     1      24.424   5.128  49.130  1.00  0.00     0.056 A 
ENDBRANCH  13  15
ENDBRANCH   4  13
BRANCH   1  23
HETATM   23  N1  UNL     1      24.394   0.896  52.079  1.00  0.00    -0.321 N 
HETATM   24  C4  UNL     1      25.278   1.760  52.769  1.00  0.00     0.245 C 
HETATM   25  O1  UNL     1      24.699   2.746  53.275  1.00  0.00    -0.268 OA
HETATM   26  H6  UNL     1      24.774   0.023  51.608  1.00  0.00     0.169 HD
BRANCH  24  27
HETATM   27  C3  UNL     1      26.727   1.496  52.865  1.00  0.00     0.070 C 
HETATM   28  C2  UNL     1      27.361   0.647  53.673  1.00  0.00    -0.026 C 
HETATM   29  C1  UNL     1      28.830   0.502  53.640  1.00  0.00     0.036 C 
ENDBRANCH  24  27
ENDBRANCH   1  23
BRANCH  12  30
HETATM   30  O2  UNL     1      22.585   0.079  53.972  1.00  0.00    -0.349 OA
BRANCH  30  31
HETATM   31  C21 UNL     1      21.818  -0.656  54.905  1.00  0.00     0.171 C 
HETATM   32  C22 UNL     1      21.062  -1.802  54.317  1.00  0.00     0.034 C 
ENDBRANCH  30  31
ENDBRANCH  12  30
TORSDOF 6
ENDMDL
MODEL 7
REMARK VINA RESULT:      -7.8      4.058      5.947
REMARK  6 active torsions:
REMARK  status: ('A' for Active; 'I' for Inactive)
REMARK    1  A    between atoms: C3_3  and  C4_4 
REMARK       I    between atoms: C4_4  and  N1_6 
REMARK    2  A    between atoms: N1_6  and  C5_7 
REMARK    3  A    between atoms: C8_10  and  N2_11 
REMARK    4  A    between atoms: N2_11  and  C9_12 
REMARK    5  A    between atoms: C20_27  and  O2_28 
REMARK    6  A    between atoms: O2_28  and  C21_29 
ROOT
HETATM    1  C5  UNL     1      23.219   3.646  50.619  1.00  0.00     0.069 A 
HETATM    2  C6  UNL     1      22.598   2.881  51.584  1.00  0.00     0.048 A 
HETATM    3  C7  UNL     1      23.234   1.790  52.137  1.00  0.00     0.023 A 
HETATM    4  C8  UNL     1      22.695   0.965  53.108  1.00  0.00     0.067 A 
HETATM    5  C15 UNL     1      23.413  -0.108  53.602  1.00  0.00     0.089 A 
HETATM    6  C16 UNL     1      22.855  -0.964  54.609  1.00  0.00     0.103 C 
HETATM    7  N3  UNL     1      22.381  -1.669  55.423  1.00  0.00    -0.191 NA
HETATM    8  C17 UNL     1      24.697  -0.336  53.093  1.00  0.00     0.142 A 
HETATM    9  N4  UNL     1      25.256   0.459  52.136  1.00  0.00    -0.259 NA
HETATM   10  C18 UNL     1      24.507   1.491  51.694  1.00  0.00     0.071 A 
HETATM   11  C19 UNL     1      25.134   2.253  50.727  1.00  0.00     0.071 A 
HETATM   12  C20 UNL     1      24.510   3.348  50.165  1.00  0.00     0.097 A 
ENDROOT
BRANCH   4  13
HETATM   13  N2  UNL     1      21.382   1.267  53.571  1.00  0.00    -0.354 N 
HETATM   14  H8  UNL     1      21.157   1.886  54.396  1.00  0.00     0.166 HD
BRANCH  13  15
HETATM   15  C9  UNL     1      20.268   0.706  52.890  1.00  0.00     0.034 A 
HETATM   16  C10 UNL     1      19.778   1.189  51.686  1.00  0.00     0.032 A 
HETATM   17  C11 UNL     1      18.685   0.595  51.074  1.00  0.00     0.046 A 
HETATM   18  C12 UNL     1      18.059  -0.493  51.647  1.00  0.00     0.138 A 
HETATM   19  F1  UNL     1      16.984  -1.108  51.084  1.00  0.00    -0.204 F 
HETATM   20  C13 UNL     1      18.501  -1.027  52.857  1.00  0.00     0.074 A 
HETATM   21 CL1  UNL     1      17.771  -2.403  53.657  1.00  0.00    -0.081 Cl
HETATM   22  C14 UNL     1      19.593  -0.382  53.405  1.00  0.00     0.056 A 
ENDBRANCH  13  15
ENDBRANCH   4  13
BRANCH   1  23
HETATM   23  N1  UNL     1      22.417   4.745  50.148  1.00  0.00    -0.321 N 
HETATM   24  C4  UNL     1      22.592   5.851  51.015  1.00  0.00     0.245 C 
HETATM   25  O1  UNL     1      23.381   5.613  51.955  1.00  0.00    -0.268 OA
HETATM   26  H6  UNL     1      21.768   4.832  49.312  1.00  0.00     0.169 HD
BRANCH  24  27
HETATM   27  C3  UNL     1      21.902   7.138  50.802  1.00  0.00     0.070 C 
HETATM   28  C2  UNL     1      20.895   7.409  49.973  1.00  0.00    -0.026 C 
HETATM   29  C1  UNL     1      20.314   8.764  49.882  1.00  0.00     0.036 C 
ENDBRANCH  24  27
ENDBRANCH   1  23
BRANCH  12  30
HETATM   30  O2  UNL     1      24.941   4.225  49.209  1.00  0.00    -0.349 OA
BRANCH  30  31
HETATM   31  C21 UNL     1      25.921   5.228  49.389  1.00  0.00     0.171 C 
HETATM   32  C22 UNL     1      25.585   6.539  48.759  1.00  0.00     0.034 C 
ENDBRANCH  30  31
ENDBRANCH  12  30
TORSDOF 6
ENDMDL
MODEL 8
REMARK VINA RESULT:      -7.4      3.319      5.489
REMARK  6 active torsions:
REMARK  status: ('A' for Active; 'I' for Inactive)
REMARK    1  A    between atoms: C3_3  and  C4_4 
REMARK       I    between atoms: C4_4  and  N1_6 
REMARK    2  A    between atoms: N1_6  and  C5_7 
REMARK    3  A    between atoms: C8_10  and  N2_11 
REMARK    4  A    between atoms: N2_11  and  C9_12 
REMARK    5  A    between atoms: C20_27  and  O2_28 
REMARK    6  A    between atoms: O2_28  and  C21_29 
ROOT
HETATM    1  C5  UNL     1      24.653   4.786  50.347  1.00  0.00     0.069 A 
HETATM    2  C6  UNL     1      24.289   3.901  51.340  1.00  0.00     0.048 A 
HETATM    3  C7  UNL     1      25.072   2.805  51.632  1.00  0.00     0.023 A 
HETATM    4  C8  UNL     1      24.790   1.866  52.608  1.00  0.00     0.067 A 
HETATM    5  C15 UNL     1      25.640   0.797  52.826  1.00  0.00     0.089 A 
HETATM    6  C16 UNL     1      25.348  -0.178  53.838  1.00  0.00     0.103 C 
HETATM    7  N3  UNL     1      25.091  -0.980  54.659  1.00  0.00    -0.191 NA
HETATM    8  C17 UNL     1      26.790   0.693  52.035  1.00  0.00     0.142 A 
HETATM    9  N4  UNL     1      27.095   1.603  51.066  1.00  0.00    -0.259 NA
HETATM   10  C18 UNL     1      26.228   2.623  50.900  1.00  0.00     0.071 A 
HETATM   11  C19 UNL     1      26.599   3.506  49.903  1.00  0.00     0.071 A 
HETATM   12  C20 UNL     1      25.825   4.607  49.600  1.00  0.00     0.097 A 
ENDROOT
BRANCH   4  13
HETATM   13  N2  UNL     1      23.599   2.046  53.368  1.00  0.00    -0.354 N 
HETATM   14  H8  UNL     1      23.527   2.608  54.259  1.00  0.00     0.166 HD
BRANCH  13  15
HETATM   15  C9  UNL     1      22.398   1.433  52.918  1.00  0.00     0.034 A 
HETATM   16  C10 UNL     1      21.663   1.884  51.832  1.00  0.00     0.032 A 
HETATM   17  C11 UNL     1      20.498   1.240  51.445  1.00  0.00     0.046 A 
HETATM   18  C12 UNL     1      20.041   0.134  52.131  1.00  0.00     0.138 A 
HETATM   19  F1  UNL     1      18.904  -0.530  51.790  1.00  0.00    -0.204 F 
HETATM   20  C13 UNL     1      20.733  -0.370  53.233  1.00  0.00     0.074 A 
HETATM   21 CL1  UNL     1      20.229  -1.766  54.162  1.00  0.00    -0.081 Cl
HETATM   22  C14 UNL     1      21.882   0.323  53.557  1.00  0.00     0.056 A 
ENDBRANCH  13  15
ENDBRANCH   4  13
BRANCH   1  23
HETATM   23  N1  UNL     1      23.726   5.873  50.172  1.00  0.00    -0.321 N 
HETATM   24  C4  UNL     1      22.641   5.434  49.376  1.00  0.00     0.245 C 
HETATM   25  O1  UNL     1      22.746   4.238  49.026  1.00  0.00    -0.268 OA
HETATM   26  H6  UNL     1      23.746   6.874  50.528  1.00  0.00     0.169 HD
BRANCH  24  27
HETATM   27  C3  UNL     1      21.517   6.321  49.015  1.00  0.00     0.070 C 
HETATM   28  C2  UNL     1      20.835   7.153  49.801  1.00  0.00    -0.026 C 
HETATM   29  C1  UNL     1      19.728   7.977  49.276  1.00  0.00     0.036 C 
ENDBRANCH  24  27
ENDBRANCH   1  23
BRANCH  12  30
HETATM   30  O2  UNL     1      26.003   5.592  48.668  1.00  0.00    -0.349 OA
BRANCH  30  31
HETATM   31  C21 UNL     1      26.987   6.605  48.713  1.00  0.00     0.171 C 
HETATM   32  C22 UNL     1      28.314   6.203  48.158  1.00  0.00     0.034 C 
ENDBRANCH  30  31
ENDBRANCH  12  30
TORSDOF 6
ENDMDL
MODEL 9
REMARK VINA RESULT:      -7.0      4.278      8.127
REMARK  6 active torsions:
REMARK  status: ('A' for Active; 'I' for Inactive)
REMARK    1  A    between atoms: C3_3  and  C4_4 
REMARK       I    between atoms: C4_4  and  N1_6 
REMARK    2  A    between atoms: N1_6  and  C5_7 
REMARK    3  A    between atoms: C8_10  and  N2_11 
REMARK    4  A    between atoms: N2_11  and  C9_12 
REMARK    5  A    between atoms: C20_27  and  O2_28 
REMARK    6  A    between atoms: O2_28  and  C21_29 
ROOT
HETATM    1  C5  UNL     1      22.090   2.932  52.166  1.00  0.00     0.069 A 
HETATM    2  C6  UNL     1      22.679   3.908  51.391  1.00  0.00     0.048 A 
HETATM    3  C7  UNL     1      23.976   3.768  50.943  1.00  0.00     0.023 A 
HETATM    4  C8  UNL     1      24.649   4.691  50.163  1.00  0.00     0.067 A 
HETATM    5  C15 UNL     1      25.953   4.459  49.762  1.00  0.00     0.089 A 
HETATM    6  C16 UNL     1      26.652   5.415  48.953  1.00  0.00     0.103 C 
HETATM    7  N3  UNL     1      27.222   6.214  48.302  1.00  0.00    -0.191 NA
HETATM    8  C17 UNL     1      26.568   3.270  50.168  1.00  0.00     0.142 A 
HETATM    9  N4  UNL     1      25.931   2.341  50.937  1.00  0.00    -0.259 NA
HETATM   10  C18 UNL     1      24.661   2.623  51.295  1.00  0.00     0.071 A 
HETATM   11  C19 UNL     1      24.077   1.641  52.072  1.00  0.00     0.071 A 
HETATM   12  C20 UNL     1      22.780   1.767  52.527  1.00  0.00     0.097 A 
ENDROOT
BRANCH   4  13
HETATM   13  N2  UNL     1      23.950   5.875  49.795  1.00  0.00    -0.354 N 
HETATM   14  H8  UNL     1      23.761   6.693  50.436  1.00  0.00     0.166 HD
BRANCH  13  15
HETATM   15  C9  UNL     1      23.455   5.996  48.468  1.00  0.00     0.034 A 
HETATM   16  C10 UNL     1      23.631   7.122  47.679  1.00  0.00     0.032 A 
HETATM   17  C11 UNL     1      23.121   7.175  46.391  1.00  0.00     0.046 A 
HETATM   18  C12 UNL     1      22.426   6.108  45.862  1.00  0.00     0.138 A 
HETATM   19  F1  UNL     1      21.907   6.114  44.604  1.00  0.00    -0.204 F 
HETATM   20  C13 UNL     1      22.212   4.946  46.603  1.00  0.00     0.074 A 
HETATM   21 CL1  UNL     1      21.343   3.544  46.015  1.00  0.00    -0.081 Cl
HETATM   22  C14 UNL     1      22.749   4.968  47.875  1.00  0.00     0.056 A 
ENDBRANCH  13  15
ENDBRANCH   4  13
BRANCH   1  23
HETATM   23  N1  UNL     1      20.736   3.235  52.548  1.00  0.00    -0.321 N 
HETATM   24  C4  UNL     1      19.861   2.835  51.509  1.00  0.00     0.245 C 
HETATM   25  O1  UNL     1      20.459   2.328  50.536  1.00  0.00    -0.268 OA
HETATM   26  H6  UNL     1      20.339   3.680  53.427  1.00  0.00     0.169 HD
BRANCH  24  27
HETATM   27  C3  UNL     1      18.398   3.012  51.597  1.00  0.00     0.070 C 
HETATM   28  C2  UNL     1      17.667   4.060  51.220  1.00  0.00    -0.026 C 
HETATM   29  C1  UNL     1      16.199   4.075  51.380  1.00  0.00     0.036 C 
ENDBRANCH  24  27
ENDBRANCH   1  23
BRANCH  12  30
HETATM   30  O2  UNL     1      22.020   0.929  53.296  1.00  0.00    -0.349 OA
BRANCH  30  31
HETATM   31  C21 UNL     1      22.050  -0.483  53.256  1.00  0.00     0.171 C 
HETATM   32  C22 UNL     1      21.595  -1.146  54.515  1.00  0.00     0.034 C 
ENDBRANCH  30  31
ENDBRANCH  12  30
TORSDOF 6
ENDMDL
