MODEL 1
REMARK VINA RESULT:      -8.0      0.000      0.000
REMARK  6 active torsions:
REMARK  status: ('A' for Active; 'I' for Inactive)
REMARK    1  A    between atoms: C4_5  and  C5_6 
REMARK    2  A    between atoms: C5_6  and  C6_7 
REMARK    3  A    between atoms: N2_9  and  C7_10 
REMARK    4  A    between atoms: C8_12  and  O1_13 
REMARK    5  A    between atoms: C10_16  and  C11_17 
REMARK    6  A    between atoms: C14_20  and  O2_21 
ROOT
HETATM    1  C1  UNL     1      26.722   6.730  48.451  1.00  0.00     0.020 C 
HETATM    2  C2  UNL     1      25.628   6.258  48.540  1.00  0.00    -0.048 C 
HETATM    3  C3  UNL     1      24.308   5.679  48.670  1.00  0.00     0.165 C 
HETATM    4  F1  UNL     1      23.439   5.765  47.644  1.00  0.00    -0.197 F 
HETATM    5  C4  UNL     1      23.940   5.061  49.795  1.00  0.00     0.031 C 
ENDROOT
BRANCH   5   6
HETATM    6  C5  UNL     1      22.725   4.383  50.265  1.00  0.00     0.087 C 
BRANCH   6   7
HETATM    7  C6  UNL     1      23.114   3.377  51.282  1.00  0.00     0.038 C 
HETATM    8  N1  UNL     1      22.367   2.692  52.054  1.00  0.00    -0.178 NA
HETATM    9  N2  UNL     1      23.122   1.836  52.888  1.00  0.00    -0.237 N 
HETATM   10  C10 UNL     1      24.433   2.411  52.918  1.00  0.00     0.151 C 
HETATM   11  C18 UNL     1      24.536   3.026  51.538  1.00  0.00     0.089 C 
BRANCH   9  12
HETATM   12  C7  UNL     1      22.471   0.696  53.459  1.00  0.00     0.192 A 
HETATM   13  N3  UNL     1      22.627  -0.162  54.162  1.00  0.00    -0.198 NA
HETATM   14  C8  UNL     1      21.874  -1.147  54.573  1.00  0.00     0.171 A 
HETATM   15  C9  UNL     1      20.656  -1.116  54.030  1.00  0.00     0.111 A 
HETATM   16  S1  UNL     1      20.674   0.411  52.904  1.00  0.00    -0.058 SA
BRANCH  14  17
HETATM   17  O1  UNL     1      22.346  -2.091  55.476  1.00  0.00    -0.344 OA
HETATM   18  H5  UNL     1      22.073  -3.061  55.364  1.00  0.00     0.219 HD
ENDBRANCH  14  17
ENDBRANCH   9  12
BRANCH  10  19
HETATM   19  C11 UNL     1      25.513   1.431  53.106  1.00  0.00    -0.033 A 
HETATM   20  C12 UNL     1      26.240   1.228  54.260  1.00  0.00     0.012 A 
HETATM   21  C13 UNL     1      27.247   0.278  54.358  1.00  0.00     0.037 A 
HETATM   22  C14 UNL     1      27.558  -0.522  53.255  1.00  0.00     0.068 A 
HETATM   23  C16 UNL     1      26.839  -0.324  52.104  1.00  0.00     0.037 A 
HETATM   24  C17 UNL     1      25.856   0.615  52.037  1.00  0.00     0.012 A 
BRANCH  22  25
HETATM   25  O2  UNL     1      28.587  -1.403  53.554  1.00  0.00    -0.356 OA
HETATM   26  C15 UNL     1      29.885  -0.896  53.756  1.00  0.00     0.210 C 
ENDBRANCH  22  25
ENDBRANCH  10  19
ENDBRANCH   6   7
ENDBRANCH   5   6
TORSDOF 6
ENDMDL
MODEL 2
REMARK VINA RESULT:      -7.6      1.473      2.293
REMARK  6 active torsions:
REMARK  status: ('A' for Active; 'I' for Inactive)
REMARK    1  A    between atoms: C4_5  and  C5_6 
REMARK    2  A    between atoms: C5_6  and  C6_7 
REMARK    3  A    between atoms: N2_9  and  C7_10 
REMARK    4  A    between atoms: C8_12  and  O1_13 
REMARK    5  A    between atoms: C10_16  and  C11_17 
REMARK    6  A    between atoms: C14_20  and  O2_21 
ROOT
HETATM    1  C1  UNL     1      19.510   2.946  47.410  1.00  0.00     0.020 C 
HETATM    2  C2  UNL     1      20.567   3.104  47.945  1.00  0.00    -0.048 C 
HETATM    3  C3  UNL     1      21.835   3.313  48.608  1.00  0.00     0.165 C 
HETATM    4  F1  UNL     1      22.918   2.616  48.210  1.00  0.00    -0.197 F 
HETATM    5  C4  UNL     1      21.948   4.187  49.611  1.00  0.00     0.031 C 
ENDROOT
BRANCH   5   6
HETATM    6  C5  UNL     1      23.038   4.641  50.485  1.00  0.00     0.087 C 
BRANCH   6   7
HETATM    7  C6  UNL     1      23.355   3.554  51.442  1.00  0.00     0.038 C 
HETATM    8  N1  UNL     1      22.558   2.856  52.149  1.00  0.00    -0.178 NA
HETATM    9  N2  UNL     1      23.252   1.914  52.942  1.00  0.00    -0.237 N 
HETATM   10  C10 UNL     1      24.586   2.424  53.040  1.00  0.00     0.151 C 
HETATM   11  C18 UNL     1      24.753   3.122  51.707  1.00  0.00     0.089 C 
BRANCH   9  12
HETATM   12  C7  UNL     1      22.536   0.771  53.421  1.00  0.00     0.192 A 
HETATM   13  N3  UNL     1      22.625  -0.122  54.092  1.00  0.00    -0.198 NA
HETATM   14  C8  UNL     1      21.822  -1.101  54.413  1.00  0.00     0.171 A 
HETATM   15  C9  UNL     1      20.639  -1.008  53.802  1.00  0.00     0.111 A 
HETATM   16  S1  UNL     1      20.769   0.566  52.749  1.00  0.00    -0.058 SA
BRANCH  14  17
HETATM   17  O1  UNL     1      22.212  -2.098  55.298  1.00  0.00    -0.344 OA
HETATM   18  H5  UNL     1      22.900  -2.780  54.999  1.00  0.00     0.219 HD
ENDBRANCH  14  17
ENDBRANCH   9  12
BRANCH  10  19
HETATM   19  C11 UNL     1      25.617   1.385  53.188  1.00  0.00    -0.033 A 
HETATM   20  C12 UNL     1      26.429   1.191  54.286  1.00  0.00     0.012 A 
HETATM   21  C13 UNL     1      27.380   0.182  54.348  1.00  0.00     0.037 A 
HETATM   22  C14 UNL     1      27.542  -0.689  53.268  1.00  0.00     0.068 A 
HETATM   23  C16 UNL     1      26.738  -0.500  52.173  1.00  0.00     0.037 A 
HETATM   24  C17 UNL     1      25.813   0.498  52.139  1.00  0.00     0.012 A 
BRANCH  22  25
HETATM   25  O2  UNL     1      28.537  -1.621  53.524  1.00  0.00    -0.356 OA
HETATM   26  C15 UNL     1      29.823  -1.169  53.877  1.00  0.00     0.210 C 
ENDBRANCH  22  25
ENDBRANCH  10  19
ENDBRANCH   6   7
ENDBRANCH   5   6
TORSDOF 6
ENDMDL
MODEL 3
REMARK VINA RESULT:      -7.3      3.769      6.848
REMARK  6 active torsions:
REMARK  status: ('A' for Active; 'I' for Inactive)
REMARK    1  A    between atoms: C4_5  and  C5_6 
REMARK    2  A    between atoms: C5_6  and  C6_7 
REMARK    3  A    between atoms: N2_9  and  C7_10 
REMARK    4  A    between atoms: C8_12  and  O1_13 
REMARK    5  A    between atoms: C10_16  and  C11_17 
REMARK    6  A    between atoms: C14_20  and  O2_21 
ROOT
HETATM    1  C1  UNL     1      29.175  -2.542  53.130  1.00  0.00     0.020 C 
HETATM    2  C2  UNL     1      28.940  -1.415  53.448  1.00  0.00    -0.048 C 
HETATM    3  C3  UNL     1      28.642  -0.047  53.812  1.00  0.00     0.165 C 
HETATM    4  F1  UNL     1      29.050   0.430  55.005  1.00  0.00    -0.197 F 
HETATM    5  C4  UNL     1      27.967   0.752  52.981  1.00  0.00     0.031 C 
ENDROOT
BRANCH   5   6
HETATM    6  C5  UNL     1      27.503   2.145  53.016  1.00  0.00     0.087 C 
BRANCH   6   7
HETATM    7  C6  UNL     1      26.074   2.173  52.620  1.00  0.00     0.038 C 
HETATM    8  N1  UNL     1      25.540   2.717  51.600  1.00  0.00    -0.178 NA
HETATM    9  N2  UNL     1      24.140   2.522  51.577  1.00  0.00    -0.237 N 
HETATM   10  C10 UNL     1      23.784   2.235  52.934  1.00  0.00     0.151 C 
HETATM   11  C18 UNL     1      25.019   1.516  53.435  1.00  0.00     0.089 C 
BRANCH   9  12
HETATM   12  C7  UNL     1      23.458   2.642  50.325  1.00  0.00     0.192 A 
HETATM   13  N3  UNL     1      22.968   2.043  49.514  1.00  0.00    -0.198 NA
HETATM   14  C8  UNL     1      22.374   2.349  48.391  1.00  0.00     0.171 A 
HETATM   15  C9  UNL     1      22.351   3.665  48.172  1.00  0.00     0.111 A 
HETATM   16  S1  UNL     1      23.233   4.415  49.676  1.00  0.00    -0.058 SA
BRANCH  14  17
HETATM   17  O1  UNL     1      21.845   1.369  47.561  1.00  0.00    -0.344 OA
HETATM   18  H5  UNL     1      21.785   0.416  47.900  1.00  0.00     0.219 HD
ENDBRANCH  14  17
ENDBRANCH   9  12
BRANCH  10  19
HETATM   19  C11 UNL     1      22.610   1.360  53.074  1.00  0.00    -0.033 A 
HETATM   20  C12 UNL     1      21.302   1.701  52.802  1.00  0.00     0.012 A 
HETATM   21  C13 UNL     1      20.245   0.814  52.959  1.00  0.00     0.037 A 
HETATM   22  C14 UNL     1      20.490  -0.486  53.410  1.00  0.00     0.068 A 
HETATM   23  C16 UNL     1      21.789  -0.830  53.683  1.00  0.00     0.037 A 
HETATM   24  C17 UNL     1      22.806   0.061  53.519  1.00  0.00     0.012 A 
BRANCH  22  25
HETATM   25  O2  UNL     1      19.311  -1.211  53.500  1.00  0.00    -0.356 OA
HETATM   26  C15 UNL     1      18.194  -0.798  52.750  1.00  0.00     0.210 C 
ENDBRANCH  22  25
ENDBRANCH  10  19
ENDBRANCH   6   7
ENDBRANCH   5   6
TORSDOF 6
ENDMDL
MODEL 4
REMARK VINA RESULT:      -7.3      3.375      5.552
REMARK  6 active torsions:
REMARK  status: ('A' for Active; 'I' for Inactive)
REMARK    1  A    between atoms: C4_5  and  C5_6 
REMARK    2  A    between atoms: C5_6  and  C6_7 
REMARK    3  A    between atoms: N2_9  and  C7_10 
REMARK    4  A    between atoms: C8_12  and  O1_13 
REMARK    5  A    between atoms: C10_16  and  C11_17 
REMARK    6  A    between atoms: C14_20  and  O2_21 
ROOT
HETATM    1  C1  UNL     1      16.909   0.681  49.412  1.00  0.00     0.020 C 
HETATM    2  C2  UNL     1      17.561   0.846  50.400  1.00  0.00    -0.048 C 
HETATM    3  C3  UNL     1      18.358   1.023  51.593  1.00  0.00     0.165 C 
HETATM    4  F1  UNL     1      18.369   2.218  52.217  1.00  0.00    -0.197 F 
HETATM    5  C4  UNL     1      19.085   0.017  52.087  1.00  0.00     0.031 C 
ENDROOT
BRANCH   5   6
HETATM    6  C5  UNL     1      19.982  -0.159  53.237  1.00  0.00     0.087 C 
BRANCH   6   7
HETATM    7  C6  UNL     1      21.315   0.382  52.879  1.00  0.00     0.038 C 
HETATM    8  N1  UNL     1      21.599   1.447  52.241  1.00  0.00    -0.178 NA
HETATM    9  N2  UNL     1      22.995   1.614  52.100  1.00  0.00    -0.237 N 
HETATM   10  C10 UNL     1      23.545   0.303  52.272  1.00  0.00     0.151 C 
HETATM   11  C18 UNL     1      22.573  -0.316  53.254  1.00  0.00     0.089 C 
BRANCH   9  12
HETATM   12  C7  UNL     1      23.498   2.930  51.843  1.00  0.00     0.192 A 
HETATM   13  N3  UNL     1      23.631   3.941  52.307  1.00  0.00    -0.198 NA
HETATM   14  C8  UNL     1      24.136   5.072  51.891  1.00  0.00     0.171 A 
HETATM   15  C9  UNL     1      24.591   4.994  50.639  1.00  0.00     0.111 A 
HETATM   16  S1  UNL     1      24.244   3.204  50.116  1.00  0.00    -0.058 SA
BRANCH  14  17
HETATM   17  O1  UNL     1      24.167   6.195  52.708  1.00  0.00    -0.344 OA
HETATM   18  H5  UNL     1      24.537   6.111  53.648  1.00  0.00     0.219 HD
ENDBRANCH  14  17
ENDBRANCH   9  12
BRANCH  10  19
HETATM   19  C11 UNL     1      24.901   0.291  52.841  1.00  0.00    -0.033 A 
HETATM   20  C12 UNL     1      26.080   0.454  52.145  1.00  0.00     0.012 A 
HETATM   21  C13 UNL     1      27.325   0.431  52.758  1.00  0.00     0.037 A 
HETATM   22  C14 UNL     1      27.416   0.238  54.139  1.00  0.00     0.068 A 
HETATM   23  C16 UNL     1      26.247   0.075  54.837  1.00  0.00     0.037 A 
HETATM   24  C17 UNL     1      25.039   0.102  54.209  1.00  0.00     0.012 A 
BRANCH  22  25
HETATM   25  O2  UNL     1      28.739   0.247  54.556  1.00  0.00    -0.356 OA
HETATM   26  C15 UNL     1      29.704  -0.432  53.788  1.00  0.00     0.210 C 
ENDBRANCH  22  25
ENDBRANCH  10  19
ENDBRANCH   6   7
ENDBRANCH   5   6
TORSDOF 6
ENDMDL
MODEL 5
REMARK VINA RESULT:      -7.1      4.376      8.047
REMARK  6 active torsions:
REMARK  status: ('A' for Active; 'I' for Inactive)
REMARK    1  A    between atoms: C4_5  and  C5_6 
REMARK    2  A    between atoms: C5_6  and  C6_7 
REMARK    3  A    between atoms: N2_9  and  C7_10 
REMARK    4  A    between atoms: C8_12  and  O1_13 
REMARK    5  A    between atoms: C10_16  and  C11_17 
REMARK    6  A    between atoms: C14_20  and  O2_21 
ROOT
HETATM    1  C1  UNL     1      29.338  -0.845  53.422  1.00  0.00     0.020 C 
HETATM    2  C2  UNL     1      28.248  -0.419  53.662  1.00  0.00    -0.048 C 
HETATM    3  C3  UNL     1      26.920   0.087  53.931  1.00  0.00     0.165 C 
HETATM    4  F1  UNL     1      26.665   0.699  55.105  1.00  0.00    -0.197 F 
HETATM    5  C4  UNL     1      25.942  -0.042  53.030  1.00  0.00     0.031 C 
ENDROOT
BRANCH   5   6
HETATM    6  C5  UNL     1      24.524   0.336  52.964  1.00  0.00     0.087 C 
BRANCH   6   7
HETATM    7  C6  UNL     1      24.383   1.460  52.007  1.00  0.00     0.038 C 
HETATM    8  N1  UNL     1      25.199   2.408  51.765  1.00  0.00    -0.178 NA
HETATM    9  N2  UNL     1      24.696   3.289  50.780  1.00  0.00    -0.237 N 
HETATM   10  C10 UNL     1      23.279   3.086  50.789  1.00  0.00     0.151 C 
HETATM   11  C18 UNL     1      23.177   1.620  51.154  1.00  0.00     0.089 C 
BRANCH   9  12
HETATM   12  C7  UNL     1      25.627   4.106  50.062  1.00  0.00     0.192 A 
HETATM   13  N3  UNL     1      26.608   4.078  49.522  1.00  0.00    -0.198 NA
HETATM   14  C8  UNL     1      27.331   4.975  48.904  1.00  0.00     0.171 A 
HETATM   15  C9  UNL     1      26.768   6.184  48.928  1.00  0.00     0.111 A 
HETATM   16  S1  UNL     1      25.150   5.939  49.889  1.00  0.00    -0.058 SA
BRANCH  14  17
HETATM   17  O1  UNL     1      28.541   4.644  48.308  1.00  0.00    -0.344 OA
HETATM   18  H5  UNL     1      28.607   4.638  47.297  1.00  0.00     0.219 HD
ENDBRANCH  14  17
ENDBRANCH   9  12
BRANCH  10  19
HETATM   19  C11 UNL     1      22.631   3.319  49.490  1.00  0.00    -0.033 A 
HETATM   20  C12 UNL     1      21.816   4.383  49.164  1.00  0.00     0.012 A 
HETATM   21  C13 UNL     1      21.242   4.534  47.909  1.00  0.00     0.037 A 
HETATM   22  C14 UNL     1      21.483   3.582  46.915  1.00  0.00     0.068 A 
HETATM   23  C16 UNL     1      22.292   2.521  47.234  1.00  0.00     0.037 A 
HETATM   24  C17 UNL     1      22.843   2.399  48.473  1.00  0.00     0.012 A 
BRANCH  22  25
HETATM   25  O2  UNL     1      20.822   3.910  45.741  1.00  0.00    -0.356 OA
HETATM   26  C15 UNL     1      20.046   5.084  45.697  1.00  0.00     0.210 C 
ENDBRANCH  22  25
ENDBRANCH  10  19
ENDBRANCH   6   7
ENDBRANCH   5   6
TORSDOF 6
ENDMDL
MODEL 6
REMARK VINA RESULT:      -7.1      4.255      7.533
REMARK  6 active torsions:
REMARK  status: ('A' for Active; 'I' for Inactive)
REMARK    1  A    between atoms: C4_5  and  C5_6 
REMARK    2  A    between atoms: C5_6  and  C6_7 
REMARK    3  A    between atoms: N2_9  and  C7_10 
REMARK    4  A    between atoms: C8_12  and  O1_13 
REMARK    5  A    between atoms: C10_16  and  C11_17 
REMARK    6  A    between atoms: C14_20  and  O2_21 
ROOT
HETATM    1  C1  UNL     1      29.762   0.201  53.318  1.00  0.00     0.020 C 
HETATM    2  C2  UNL     1      28.673   0.055  53.789  1.00  0.00    -0.048 C 
HETATM    3  C3  UNL     1      27.347  -0.131  54.337  1.00  0.00     0.165 C 
HETATM    4  F1  UNL     1      27.115   0.158  55.633  1.00  0.00    -0.197 F 
HETATM    5  C4  UNL     1      26.349  -0.585  53.575  1.00  0.00     0.031 C 
ENDROOT
BRANCH   5   6
HETATM    6  C5  UNL     1      24.927  -0.885  53.785  1.00  0.00     0.087 C 
BRANCH   6   7
HETATM    7  C6  UNL     1      24.126   0.254  53.275  1.00  0.00     0.038 C 
HETATM    8  N1  UNL     1      24.466   1.475  53.151  1.00  0.00    -0.178 NA
HETATM    9  N2  UNL     1      23.414   2.258  52.624  1.00  0.00    -0.237 N 
HETATM   10  C10 UNL     1      22.223   1.512  52.900  1.00  0.00     0.151 C 
HETATM   11  C18 UNL     1      22.723   0.085  52.815  1.00  0.00     0.089 C 
BRANCH   9  12
HETATM   12  C7  UNL     1      23.742   3.501  51.994  1.00  0.00     0.192 A 
HETATM   13  N3  UNL     1      23.870   4.596  52.193  1.00  0.00    -0.198 NA
HETATM   14  C8  UNL     1      24.187   5.623  51.450  1.00  0.00     0.171 A 
HETATM   15  C9  UNL     1      24.404   5.282  50.179  1.00  0.00     0.111 A 
HETATM   16  S1  UNL     1      24.123   3.406  50.134  1.00  0.00    -0.058 SA
BRANCH  14  17
HETATM   17  O1  UNL     1      24.272   6.903  51.983  1.00  0.00    -0.344 OA
HETATM   18  H5  UNL     1      23.497   7.544  51.852  1.00  0.00     0.219 HD
ENDBRANCH  14  17
ENDBRANCH   9  12
BRANCH  10  19
HETATM   19  C11 UNL     1      21.146   1.719  51.920  1.00  0.00    -0.033 A 
HETATM   20  C12 UNL     1      20.086   2.593  52.045  1.00  0.00     0.012 A 
HETATM   21  C13 UNL     1      19.107   2.731  51.071  1.00  0.00     0.037 A 
HETATM   22  C14 UNL     1      19.174   1.966  49.904  1.00  0.00     0.068 A 
HETATM   23  C16 UNL     1      20.225   1.095  49.775  1.00  0.00     0.037 A 
HETATM   24  C17 UNL     1      21.172   0.980  50.746  1.00  0.00     0.012 A 
BRANCH  22  25
HETATM   25  O2  UNL     1      18.109   2.248  49.061  1.00  0.00    -0.356 OA
HETATM   26  C15 UNL     1      16.877   1.601  49.274  1.00  0.00     0.210 C 
ENDBRANCH  22  25
ENDBRANCH  10  19
ENDBRANCH   6   7
ENDBRANCH   5   6
TORSDOF 6
ENDMDL
MODEL 7
REMARK VINA RESULT:      -7.0      3.736      6.641
REMARK  6 active torsions:
REMARK  status: ('A' for Active; 'I' for Inactive)
REMARK    1  A    between atoms: C4_5  and  C5_6 
REMARK    2  A    between atoms: C5_6  and  C6_7 
REMARK    3  A    between atoms: N2_9  and  C7_10 
REMARK    4  A    between atoms: C8_12  and  O1_13 
REMARK    5  A    between atoms: C10_16  and  C11_17 
REMARK    6  A    between atoms: C14_20  and  O2_21 
ROOT
HETATM    1  C1  UNL     1      29.716  -1.159  53.457  1.00  0.00     0.020 C 
HETATM    2  C2  UNL     1      28.780  -0.512  53.824  1.00  0.00    -0.048 C 
HETATM    3  C3  UNL     1      27.651   0.286  54.248  1.00  0.00     0.165 C 
HETATM    4  F1  UNL     1      26.948  -0.079  55.339  1.00  0.00    -0.197 F 
HETATM    5  C4  UNL     1      27.294   1.382  53.573  1.00  0.00     0.031 C 
ENDROOT
BRANCH   5   6
HETATM    6  C5  UNL     1      26.241   2.397  53.708  1.00  0.00     0.087 C 
BRANCH   6   7
HETATM    7  C6  UNL     1      25.016   1.892  53.044  1.00  0.00     0.038 C 
HETATM    8  N1  UNL     1      24.250   0.939  53.401  1.00  0.00    -0.178 NA
HETATM    9  N2  UNL     1      23.178   0.764  52.496  1.00  0.00    -0.237 N 
HETATM   10  C10 UNL     1      23.622   1.366  51.275  1.00  0.00     0.151 C 
HETATM   11  C18 UNL     1      24.501   2.490  51.783  1.00  0.00     0.089 C 
BRANCH   9  12
HETATM   12  C7  UNL     1      22.003   0.090  52.958  1.00  0.00     0.192 A 
HETATM   13  N3  UNL     1      20.893   0.031  52.815  1.00  0.00    -0.198 NA
HETATM   14  C8  UNL     1      19.944  -0.682  53.361  1.00  0.00     0.171 A 
HETATM   15  C9  UNL     1      20.409  -1.520  54.289  1.00  0.00     0.111 A 
HETATM   16  S1  UNL     1      22.281  -1.210  54.318  1.00  0.00    -0.058 SA
BRANCH  14  17
HETATM   17  O1  UNL     1      18.617  -0.539  52.974  1.00  0.00    -0.344 OA
HETATM   18  H5  UNL     1      17.957  -1.276  53.195  1.00  0.00     0.219 HD
ENDBRANCH  14  17
ENDBRANCH   9  12
BRANCH  10  19
HETATM   19  C11 UNL     1      22.537   1.920  50.451  1.00  0.00    -0.033 A 
HETATM   20  C12 UNL     1      21.886   1.276  49.420  1.00  0.00     0.012 A 
HETATM   21  C13 UNL     1      20.867   1.870  48.687  1.00  0.00     0.037 A 
HETATM   22  C14 UNL     1      20.463   3.173  48.987  1.00  0.00     0.068 A 
HETATM   23  C16 UNL     1      21.108   3.819  50.011  1.00  0.00     0.037 A 
HETATM   24  C17 UNL     1      22.104   3.212  50.713  1.00  0.00     0.012 A 
BRANCH  22  25
HETATM   25  O2  UNL     1      19.438   3.583  48.147  1.00  0.00    -0.356 OA
HETATM   26  C15 UNL     1      18.137   3.092  48.364  1.00  0.00     0.210 C 
ENDBRANCH  22  25
ENDBRANCH  10  19
ENDBRANCH   6   7
ENDBRANCH   5   6
TORSDOF 6
ENDMDL
MODEL 8
REMARK VINA RESULT:      -7.0      4.294      7.457
REMARK  6 active torsions:
REMARK  status: ('A' for Active; 'I' for Inactive)
REMARK    1  A    between atoms: C4_5  and  C5_6 
REMARK    2  A    between atoms: C5_6  and  C6_7 
REMARK    3  A    between atoms: N2_9  and  C7_10 
REMARK    4  A    between atoms: C8_12  and  O1_13 
REMARK    5  A    between atoms: C10_16  and  C11_17 
REMARK    6  A    between atoms: C14_20  and  O2_21 
ROOT
HETATM    1  C1  UNL     1      21.629  -1.033  54.503  1.00  0.00     0.020 C 
HETATM    2  C2  UNL     1      22.787  -0.809  54.307  1.00  0.00    -0.048 C 
HETATM    3  C3  UNL     1      24.181  -0.520  54.053  1.00  0.00     0.165 C 
HETATM    4  F1  UNL     1      25.134  -1.156  54.764  1.00  0.00    -0.197 F 
HETATM    5  C4  UNL     1      24.538   0.369  53.122  1.00  0.00     0.031 C 
ENDROOT
BRANCH   5   6
HETATM    6  C5  UNL     1      25.811   0.894  52.613  1.00  0.00     0.087 C 
BRANCH   6   7
HETATM    7  C6  UNL     1      25.517   1.904  51.568  1.00  0.00     0.038 C 
HETATM    8  N1  UNL     1      24.426   2.112  50.944  1.00  0.00    -0.178 NA
HETATM    9  N2  UNL     1      24.548   3.172  50.017  1.00  0.00    -0.237 N 
HETATM   10  C10 UNL     1      25.953   3.279  49.761  1.00  0.00     0.151 C 
HETATM   11  C18 UNL     1      26.545   2.866  51.092  1.00  0.00     0.089 C 
BRANCH   9  12
HETATM   12  C7  UNL     1      23.356   3.836  49.585  1.00  0.00     0.192 A 
HETATM   13  N3  UNL     1      22.784   4.137  48.669  1.00  0.00    -0.198 NA
HETATM   14  C8  UNL     1      21.659   4.772  48.470  1.00  0.00     0.171 A 
HETATM   15  C9  UNL     1      21.073   5.137  49.612  1.00  0.00     0.111 A 
HETATM   16  S1  UNL     1      22.241   4.510  50.969  1.00  0.00    -0.058 SA
BRANCH  14  17
HETATM   17  O1  UNL     1      21.180   5.010  47.188  1.00  0.00    -0.344 OA
HETATM   18  H5  UNL     1      21.563   4.482  46.412  1.00  0.00     0.219 HD
ENDBRANCH  14  17
ENDBRANCH   9  12
BRANCH  10  19
HETATM   19  C11 UNL     1      26.398   4.640  49.421  1.00  0.00    -0.033 A 
HETATM   20  C12 UNL     1      25.776   5.816  49.784  1.00  0.00     0.012 A 
HETATM   21  C13 UNL     1      26.262   7.065  49.423  1.00  0.00     0.037 A 
HETATM   22  C14 UNL     1      27.429   7.164  48.661  1.00  0.00     0.068 A 
HETATM   23  C16 UNL     1      28.051   5.997  48.297  1.00  0.00     0.037 A 
HETATM   24  C17 UNL     1      27.552   4.786  48.665  1.00  0.00     0.012 A 
BRANCH  22  25
HETATM   25  O2  UNL     1      27.747   8.490  48.407  1.00  0.00    -0.356 OA
HETATM   26  C15 UNL     1      29.084   8.910  48.532  1.00  0.00     0.210 C 
ENDBRANCH  22  25
ENDBRANCH  10  19
ENDBRANCH   6   7
ENDBRANCH   5   6
TORSDOF 6
ENDMDL
MODEL 9
REMARK VINA RESULT:      -6.7      6.989     10.262
REMARK  6 active torsions:
REMARK  status: ('A' for Active; 'I' for Inactive)
REMARK    1  A    between atoms: C4_5  and  C5_6 
REMARK    2  A    between atoms: C5_6  and  C6_7 
REMARK    3  A    between atoms: N2_9  and  C7_10 
REMARK    4  A    between atoms: C8_12  and  O1_13 
REMARK    5  A    between atoms: C10_16  and  C11_17 
REMARK    6  A    between atoms: C14_20  and  O2_21 
ROOT
HETATM    1  C1  UNL     1      26.577   2.051  51.624  1.00  0.00     0.020 C 
HETATM    2  C2  UNL     1      26.149   2.769  50.771  1.00  0.00    -0.048 C 
HETATM    3  C3  UNL     1      25.649   3.656  49.743  1.00  0.00     0.165 C 
HETATM    4  F1  UNL     1      24.612   3.267  48.974  1.00  0.00    -0.197 F 
HETATM    5  C4  UNL     1      26.201   4.856  49.545  1.00  0.00     0.031 C 
ENDROOT
BRANCH   5   6
HETATM    6  C5  UNL     1      25.963   5.978  48.628  1.00  0.00     0.087 C 
BRANCH   6   7
HETATM    7  C6  UNL     1      27.269   6.595  48.293  1.00  0.00     0.038 C 
HETATM    8  N1  UNL     1      27.535   7.815  48.042  1.00  0.00    -0.178 NA
HETATM    9  N2  UNL     1      28.908   8.005  47.767  1.00  0.00    -0.237 N 
HETATM   10  C10 UNL     1      29.389   6.714  47.377  1.00  0.00     0.151 C 
HETATM   11  C18 UNL     1      28.519   5.793  48.206  1.00  0.00     0.089 C 
BRANCH   9  12
HETATM   12  C7  UNL     1      29.457   9.317  47.924  1.00  0.00     0.192 A 
HETATM   13  N3  UNL     1      29.464  10.206  48.607  1.00  0.00    -0.198 NA
HETATM   14  C8  UNL     1      30.056  11.370  48.576  1.00  0.00     0.171 A 
HETATM   15  C9  UNL     1      30.815  11.525  47.489  1.00  0.00     0.111 A 
HETATM   16  S1  UNL     1      30.616   9.898  46.533  1.00  0.00    -0.058 SA
BRANCH  14  17
HETATM   17  O1  UNL     1      29.877  12.301  49.591  1.00  0.00    -0.344 OA
HETATM   18  H5  UNL     1      29.219  12.099  50.335  1.00  0.00     0.219 HD
ENDBRANCH  14  17
ENDBRANCH   9  12
BRANCH  10  19
HETATM   19  C11 UNL     1      30.805   6.479  47.699  1.00  0.00    -0.033 A 
HETATM   20  C12 UNL     1      31.858   6.497  46.808  1.00  0.00     0.012 A 
HETATM   21  C13 UNL     1      33.172   6.267  47.192  1.00  0.00     0.037 A 
HETATM   22  C14 UNL     1      33.469   6.004  48.532  1.00  0.00     0.068 A 
HETATM   23  C16 UNL     1      32.426   5.985  49.422  1.00  0.00     0.037 A 
HETATM   24  C17 UNL     1      31.146   6.215  49.017  1.00  0.00     0.012 A 
BRANCH  22  25
HETATM   25  O2  UNL     1      34.829   5.802  48.710  1.00  0.00    -0.356 OA
HETATM   26  C15 UNL     1      35.704   6.899  48.603  1.00  0.00     0.210 C 
ENDBRANCH  22  25
ENDBRANCH  10  19
ENDBRANCH   6   7
ENDBRANCH   5   6
TORSDOF 6
ENDMDL
