MODEL 1
REMARK VINA RESULT:      -8.6      0.000      0.000
REMARK  7 active torsions:
REMARK  status: ('A' for Active; 'I' for Inactive)
REMARK    1  A    between atoms: C5_6  and  N1_7 
REMARK    2  A    between atoms: N1_7  and  C6_8 
REMARK    3  A    between atoms: C8_12  and  C9_13 
REMARK    4  A    between atoms: C9_13  and  O1_14 
REMARK    5  A    between atoms: O1_14  and  C10_15 
REMARK    6  A    between atoms: C10_15  and  C11_16 
REMARK    7  A    between atoms: C11_16  and  C12_17 
ROOT
HETATM    1  C9  UNL     1      22.888   1.560  51.843  1.00  0.00     0.102 C 
HETATM    2  C16 UNL     1      22.392   0.566  52.600  1.00  0.00     0.101 C 
HETATM    3  C17 UNL     1      22.920  -0.691  53.200  1.00  0.00     0.234 C 
HETATM    4  O3  UNL     1      22.479  -0.700  54.545  1.00  0.00    -0.383 OA
HETATM    5  C18 UNL     1      21.138  -1.096  54.548  1.00  0.00     0.194 C 
HETATM    6  C19 UNL     1      20.387  -0.467  53.388  1.00  0.00     0.201 C 
HETATM    7  O4  UNL     1      21.055   0.703  52.928  1.00  0.00    -0.348 OA
ENDROOT
BRANCH   1   8
HETATM    8  C8  UNL     1      22.032   2.727  51.396  1.00  0.00     0.175 A 
HETATM    9  N3  UNL     1      22.100   3.704  52.405  1.00  0.00    -0.270 NA
HETATM   10  C7  UNL     1      22.502   4.896  52.440  1.00  0.00     0.229 A 
HETATM   11  N2  UNL     1      23.019   5.430  51.203  1.00  0.00    -0.229 NA
HETATM   12  C6  UNL     1      23.010   4.600  50.182  1.00  0.00     0.108 A 
HETATM   13  C20 UNL     1      22.571   3.194  50.078  1.00  0.00     0.112 A 
BRANCH  12  14
HETATM   14  N1  UNL     1      23.544   5.237  49.011  1.00  0.00    -0.344 N 
HETATM   15  H4  UNL     1      22.891   5.566  48.236  1.00  0.00     0.167 HD
BRANCH  14  16
HETATM   16  C5  UNL     1      24.953   5.468  48.829  1.00  0.00     0.034 A 
HETATM   17  C4  UNL     1      25.717   4.368  49.183  1.00  0.00     0.029 A 
HETATM   18  C3  UNL     1      27.094   4.360  49.086  1.00  0.00     0.004 A 
HETATM   19  C2  UNL     1      27.728   5.513  48.609  1.00  0.00     0.019 A 
HETATM   20  C1  UNL     1      26.962   6.618  48.254  1.00  0.00     0.013 A 
HETATM   21 BR1  UNL     1      27.691   8.245  47.593  1.00  0.00    -0.051 Br
HETATM   22  C21 UNL     1      25.601   6.594  48.362  1.00  0.00     0.048 A 
ENDBRANCH  14  16
ENDBRANCH  12  14
ENDBRANCH   1   8
BRANCH   1  23
HETATM   23  O1  UNL     1      24.116   1.864  51.278  1.00  0.00    -0.350 OA
BRANCH  23  24
HETATM   24  C10 UNL     1      25.266   2.067  52.107  1.00  0.00     0.177 C 
BRANCH  24  25
HETATM   25  C11 UNL     1      26.128   0.845  51.995  1.00  0.00     0.062 C 
BRANCH  25  26
HETATM   26  C12 UNL     1      27.477   1.006  52.656  1.00  0.00     0.227 C 
HETATM   27  C13 UNL     1      27.694   0.004  53.737  1.00  0.00     0.062 C 
HETATM   28  C14 UNL     1      28.836   0.334  54.651  1.00  0.00     0.172 C 
HETATM   29  O2  UNL     1      28.996   1.686  54.904  1.00  0.00    -0.363 OA
HETATM   30  C15 UNL     1      28.933   2.457  53.755  1.00  0.00     0.437 C 
HETATM   31  N4  UNL     1      27.587   2.344  53.245  1.00  0.00     0.111 N 
HETATM   32  H18 UNL     1      27.297   3.078  52.588  1.00  0.00     0.319 HD
ENDBRANCH  25  26
ENDBRANCH  24  25
ENDBRANCH  23  24
ENDBRANCH   1  23
TORSDOF 7
ENDMDL
MODEL 2
REMARK VINA RESULT:      -8.5      2.979      6.698
REMARK  7 active torsions:
REMARK  status: ('A' for Active; 'I' for Inactive)
REMARK    1  A    between atoms: C5_6  and  N1_7 
REMARK    2  A    between atoms: N1_7  and  C6_8 
REMARK    3  A    between atoms: C8_12  and  C9_13 
REMARK    4  A    between atoms: C9_13  and  O1_14 
REMARK    5  A    between atoms: O1_14  and  C10_15 
REMARK    6  A    between atoms: C10_15  and  C11_16 
REMARK    7  A    between atoms: C11_16  and  C12_17 
ROOT
HETATM    1  C9  UNL     1      25.981   0.175  53.764  1.00  0.00     0.102 C 
HETATM    2  C16 UNL     1      27.319   0.097  53.656  1.00  0.00     0.101 C 
HETATM    3  C17 UNL     1      28.443   1.067  53.528  1.00  0.00     0.234 C 
HETATM    4  O3  UNL     1      29.425   0.654  54.459  1.00  0.00    -0.383 OA
HETATM    5  C18 UNL     1      30.110  -0.429  53.901  1.00  0.00     0.194 C 
HETATM    6  C19 UNL     1      29.153  -1.358  53.176  1.00  0.00     0.201 C 
HETATM    7  O4  UNL     1      27.824  -1.191  53.659  1.00  0.00    -0.348 OA
ENDROOT
BRANCH   1   8
HETATM    8  C8  UNL     1      25.116  -1.062  53.879  1.00  0.00     0.175 A 
HETATM    9  N3  UNL     1      24.867  -1.272  55.247  1.00  0.00    -0.270 NA
HETATM   10  C7  UNL     1      23.825  -1.310  55.949  1.00  0.00     0.229 A 
HETATM   11  N2  UNL     1      22.580  -1.097  55.252  1.00  0.00    -0.229 NA
HETATM   12  C6  UNL     1      22.687  -0.884  53.957  1.00  0.00     0.108 A 
HETATM   13  C20 UNL     1      23.873  -0.810  53.081  1.00  0.00     0.112 A 
BRANCH  12  14
HETATM   14  N1  UNL     1      21.390  -0.687  53.372  1.00  0.00    -0.344 N 
HETATM   15  H4  UNL     1      20.584  -1.335  53.625  1.00  0.00     0.167 HD
BRANCH  14  16
HETATM   16  C5  UNL     1      21.115   0.375  52.439  1.00  0.00     0.034 A 
HETATM   17  C4  UNL     1      20.456   1.440  53.033  1.00  0.00     0.029 A 
HETATM   18  C3  UNL     1      20.096   2.572  52.330  1.00  0.00     0.004 A 
HETATM   19  C2  UNL     1      20.414   2.633  50.969  1.00  0.00     0.019 A 
HETATM   20  C1  UNL     1      21.076   1.565  50.372  1.00  0.00     0.013 A 
HETATM   21 BR1  UNL     1      21.569   1.515  48.537  1.00  0.00    -0.051 Br
HETATM   22  C21 UNL     1      21.418   0.458  51.096  1.00  0.00     0.048 A 
ENDBRANCH  14  16
ENDBRANCH  12  14
ENDBRANCH   1   8
BRANCH   1  23
HETATM   23  O1  UNL     1      25.043   1.194  53.805  1.00  0.00    -0.350 OA
BRANCH  23  24
HETATM   24  C10 UNL     1      25.207   2.365  52.996  1.00  0.00     0.177 C 
BRANCH  24  25
HETATM   25  C11 UNL     1      23.843   2.923  52.723  1.00  0.00     0.062 C 
BRANCH  25  26
HETATM   26  C12 UNL     1      23.840   3.992  51.656  1.00  0.00     0.227 C 
HETATM   27  C13 UNL     1      24.818   3.703  50.570  1.00  0.00     0.062 C 
HETATM   28  C14 UNL     1      25.114   4.880  49.689  1.00  0.00     0.172 C 
HETATM   29  O2  UNL     1      25.135   6.097  50.347  1.00  0.00    -0.363 OA
HETATM   30  C15 UNL     1      24.052   6.267  51.195  1.00  0.00     0.437 C 
HETATM   31  N4  UNL     1      24.185   5.288  52.248  1.00  0.00     0.111 N 
HETATM   32  H18 UNL     1      23.645   5.476  53.101  1.00  0.00     0.319 HD
ENDBRANCH  25  26
ENDBRANCH  24  25
ENDBRANCH  23  24
ENDBRANCH   1  23
TORSDOF 7
ENDMDL
MODEL 3
REMARK VINA RESULT:      -8.4      3.124      7.209
REMARK  7 active torsions:
REMARK  status: ('A' for Active; 'I' for Inactive)
REMARK    1  A    between atoms: C5_6  and  N1_7 
REMARK    2  A    between atoms: N1_7  and  C6_8 
REMARK    3  A    between atoms: C8_12  and  C9_13 
REMARK    4  A    between atoms: C9_13  and  O1_14 
REMARK    5  A    between atoms: O1_14  and  C10_15 
REMARK    6  A    between atoms: C10_15  and  C11_16 
REMARK    7  A    between atoms: C11_16  and  C12_17 
ROOT
HETATM    1  C9  UNL     1      25.189   0.617  53.226  1.00  0.00     0.102 C 
HETATM    2  C16 UNL     1      26.503   0.867  53.362  1.00  0.00     0.101 C 
HETATM    3  C17 UNL     1      27.394   2.046  53.177  1.00  0.00     0.234 C 
HETATM    4  O3  UNL     1      28.213   2.104  54.331  1.00  0.00    -0.383 OA
HETATM    5  C18 UNL     1      29.218   1.144  54.185  1.00  0.00     0.194 C 
HETATM    6  C19 UNL     1      28.664  -0.130  53.573  1.00  0.00     0.201 C 
HETATM    7  O4  UNL     1      27.257  -0.217  53.774  1.00  0.00    -0.348 OA
ENDROOT
BRANCH   1   8
HETATM    8  C8  UNL     1      24.604  -0.751  53.508  1.00  0.00     0.175 A 
HETATM    9  N3  UNL     1      24.957  -1.093  54.825  1.00  0.00    -0.270 NA
HETATM   10  C7  UNL     1      24.301  -1.351  55.866  1.00  0.00     0.229 A 
HETATM   11  N2  UNL     1      22.864  -1.298  55.743  1.00  0.00    -0.229 NA
HETATM   12  C6  UNL     1      22.412  -0.981  54.548  1.00  0.00     0.108 A 
HETATM   13  C20 UNL     1      23.123  -0.653  53.296  1.00  0.00     0.112 A 
BRANCH  12  14
HETATM   14  N1  UNL     1      20.976  -0.960  54.544  1.00  0.00    -0.344 N 
HETATM   15  H4  UNL     1      20.430  -1.515  55.272  1.00  0.00     0.167 HD
BRANCH  14  16
HETATM   16  C5  UNL     1      20.215  -0.203  53.584  1.00  0.00     0.034 A 
HETATM   17  C4  UNL     1      19.134  -0.915  53.089  1.00  0.00     0.029 A 
HETATM   18  C3  UNL     1      18.261  -0.384  52.160  1.00  0.00     0.004 A 
HETATM   19  C2  UNL     1      18.489   0.922  51.712  1.00  0.00     0.019 A 
HETATM   20  C1  UNL     1      19.573   1.637  52.208  1.00  0.00     0.013 A 
HETATM   21 BR1  UNL     1      19.998   3.415  51.687  1.00  0.00    -0.051 Br
HETATM   22  C21 UNL     1      20.419   1.083  53.127  1.00  0.00     0.048 A 
ENDBRANCH  14  16
ENDBRANCH  12  14
ENDBRANCH   1   8
BRANCH   1  23
HETATM   23  O1  UNL     1      24.070   1.343  52.853  1.00  0.00    -0.350 OA
BRANCH  23  24
HETATM   24  C10 UNL     1      24.153   2.320  51.809  1.00  0.00     0.177 C 
BRANCH  24  25
HETATM   25  C11 UNL     1      23.784   3.648  52.399  1.00  0.00     0.062 C 
BRANCH  25  26
HETATM   26  C12 UNL     1      23.907   4.790  51.417  1.00  0.00     0.227 C 
HETATM   27  C13 UNL     1      25.006   4.569  50.436  1.00  0.00     0.062 C 
HETATM   28  C14 UNL     1      25.403   5.803  49.682  1.00  0.00     0.172 C 
HETATM   29  O2  UNL     1      25.347   6.971  50.422  1.00  0.00    -0.363 OA
HETATM   30  C15 UNL     1      24.172   7.089  51.147  1.00  0.00     0.437 C 
HETATM   31  N4  UNL     1      24.180   6.038  52.136  1.00  0.00     0.111 N 
HETATM   32  H18 UNL     1      23.544   6.170  52.931  1.00  0.00     0.319 HD
ENDBRANCH  25  26
ENDBRANCH  24  25
ENDBRANCH  23  24
ENDBRANCH   1  23
TORSDOF 7
ENDMDL
MODEL 4
REMARK VINA RESULT:      -7.9      2.131      3.074
REMARK  7 active torsions:
REMARK  status: ('A' for Active; 'I' for Inactive)
REMARK    1  A    between atoms: C5_6  and  N1_7 
REMARK    2  A    between atoms: N1_7  and  C6_8 
REMARK    3  A    between atoms: C8_12  and  C9_13 
REMARK    4  A    between atoms: C9_13  and  O1_14 
REMARK    5  A    between atoms: O1_14  and  C10_15 
REMARK    6  A    between atoms: C10_15  and  C11_16 
REMARK    7  A    between atoms: C11_16  and  C12_17 
ROOT
HETATM    1  C9  UNL     1      22.878   3.867  50.988  1.00  0.00     0.102 C 
HETATM    2  C16 UNL     1      21.597   3.497  51.161  1.00  0.00     0.101 C 
HETATM    3  C17 UNL     1      20.876   2.475  51.971  1.00  0.00     0.234 C 
HETATM    4  O3  UNL     1      19.790   3.150  52.578  1.00  0.00    -0.383 OA
HETATM    5  C18 UNL     1      18.789   3.297  51.614  1.00  0.00     0.194 C 
HETATM    6  C19 UNL     1      19.388   3.648  50.263  1.00  0.00     0.201 C 
HETATM    7  O4  UNL     1      20.682   4.221  50.418  1.00  0.00    -0.348 OA
ENDROOT
BRANCH   1   8
HETATM    8  C8  UNL     1      23.264   4.990  50.049  1.00  0.00     0.175 A 
HETATM    9  N3  UNL     1      23.211   6.187  50.785  1.00  0.00    -0.270 NA
HETATM   10  C7  UNL     1      24.060   7.065  51.087  1.00  0.00     0.229 A 
HETATM   11  N2  UNL     1      25.400   6.849  50.599  1.00  0.00    -0.229 NA
HETATM   12  C6  UNL     1      25.575   5.750  49.895  1.00  0.00     0.108 A 
HETATM   13  C20 UNL     1      24.632   4.678  49.522  1.00  0.00     0.112 A 
BRANCH  12  14
HETATM   14  N1  UNL     1      26.940   5.641  49.465  1.00  0.00    -0.344 N 
HETATM   15  H4  UNL     1      27.589   4.927  49.917  1.00  0.00     0.167 HD
BRANCH  14  16
HETATM   16  C5  UNL     1      27.491   6.465  48.420  1.00  0.00     0.034 A 
HETATM   17  C4  UNL     1      28.834   6.203  48.196  1.00  0.00     0.029 A 
HETATM   18  C3  UNL     1      29.568   6.870  47.235  1.00  0.00     0.004 A 
HETATM   19  C2  UNL     1      28.919   7.843  46.468  1.00  0.00     0.019 A 
HETATM   20  C1  UNL     1      27.572   8.107  46.692  1.00  0.00     0.013 A 
HETATM   21 BR1  UNL     1      26.569   9.399  45.724  1.00  0.00    -0.051 Br
HETATM   22  C21 UNL     1      26.874   7.429  47.650  1.00  0.00     0.048 A 
ENDBRANCH  14  16
ENDBRANCH  12  14
ENDBRANCH   1   8
BRANCH   1  23
HETATM   23  O1  UNL     1      24.106   3.465  51.485  1.00  0.00    -0.350 OA
BRANCH  23  24
HETATM   24  C10 UNL     1      24.314   3.342  52.897  1.00  0.00     0.177 C 
BRANCH  24  25
HETATM   25  C11 UNL     1      24.542   1.891  53.198  1.00  0.00     0.062 C 
BRANCH  25  26
HETATM   26  C12 UNL     1      26.005   1.522  53.272  1.00  0.00     0.227 C 
HETATM   27  C13 UNL     1      26.249   0.386  54.204  1.00  0.00     0.062 C 
HETATM   28  C14 UNL     1      27.689   0.213  54.588  1.00  0.00     0.172 C 
HETATM   29  O2  UNL     1      28.391   1.398  54.725  1.00  0.00    -0.363 OA
HETATM   30  C15 UNL     1      28.173   2.275  53.675  1.00  0.00     0.437 C 
HETATM   31  N4  UNL     1      26.786   2.671  53.738  1.00  0.00     0.111 N 
HETATM   32  H18 UNL     1      26.546   3.530  53.230  1.00  0.00     0.319 HD
ENDBRANCH  25  26
ENDBRANCH  24  25
ENDBRANCH  23  24
ENDBRANCH   1  23
TORSDOF 7
ENDMDL
MODEL 5
REMARK VINA RESULT:      -7.9      3.286      6.957
REMARK  7 active torsions:
REMARK  status: ('A' for Active; 'I' for Inactive)
REMARK    1  A    between atoms: C5_6  and  N1_7 
REMARK    2  A    between atoms: N1_7  and  C6_8 
REMARK    3  A    between atoms: C8_12  and  C9_13 
REMARK    4  A    between atoms: C9_13  and  O1_14 
REMARK    5  A    between atoms: O1_14  and  C10_15 
REMARK    6  A    between atoms: C10_15  and  C11_16 
REMARK    7  A    between atoms: C11_16  and  C12_17 
ROOT
HETATM    1  C9  UNL     1      25.791   2.432  52.609  1.00  0.00     0.102 C 
HETATM    2  C16 UNL     1      26.801   1.788  53.218  1.00  0.00     0.101 C 
HETATM    3  C17 UNL     1      28.272   1.668  53.018  1.00  0.00     0.234 C 
HETATM    4  O3  UNL     1      28.858   1.859  54.292  1.00  0.00    -0.383 OA
HETATM    5  C18 UNL     1      28.716   0.666  55.007  1.00  0.00     0.194 C 
HETATM    6  C19 UNL     1      27.352   0.047  54.759  1.00  0.00     0.201 C 
HETATM    7  O4  UNL     1      26.424   1.031  54.313  1.00  0.00    -0.348 OA
ENDROOT
BRANCH   1   8
HETATM    8  C8  UNL     1      24.362   2.323  53.099  1.00  0.00     0.175 A 
HETATM    9  N3  UNL     1      23.766   3.586  52.935  1.00  0.00    -0.270 NA
HETATM   10  C7  UNL     1      22.785   4.009  52.271  1.00  0.00     0.229 A 
HETATM   11  N2  UNL     1      22.076   3.026  51.487  1.00  0.00    -0.229 NA
HETATM   12  C6  UNL     1      22.548   1.800  51.559  1.00  0.00     0.108 A 
HETATM   13  C20 UNL     1      23.698   1.244  52.299  1.00  0.00     0.112 A 
BRANCH  12  14
HETATM   14  N1  UNL     1      21.768   0.913  50.742  1.00  0.00    -0.344 N 
HETATM   15  H4  UNL     1      22.191   0.484  49.863  1.00  0.00     0.167 HD
BRANCH  14  16
HETATM   16  C5  UNL     1      20.410   0.558  51.062  1.00  0.00     0.034 A 
HETATM   17  C4  UNL     1      20.301  -0.041  52.307  1.00  0.00     0.029 A 
HETATM   18  C3  UNL     1      19.092  -0.459  52.825  1.00  0.00     0.004 A 
HETATM   19  C2  UNL     1      17.941  -0.264  52.052  1.00  0.00     0.019 A 
HETATM   20  C1  UNL     1      18.049   0.337  50.802  1.00  0.00     0.013 A 
HETATM   21 BR1  UNL     1      16.572   0.662  49.651  1.00  0.00    -0.051 Br
HETATM   22  C21 UNL     1      19.262   0.739  50.319  1.00  0.00     0.048 A 
ENDBRANCH  14  16
ENDBRANCH  12  14
ENDBRANCH   1   8
BRANCH   1  23
HETATM   23  O1  UNL     1      25.662   3.277  51.518  1.00  0.00    -0.350 OA
BRANCH  23  24
HETATM   24  C10 UNL     1      26.356   2.996  50.297  1.00  0.00     0.177 C 
BRANCH  24  25
HETATM   25  C11 UNL     1      26.260   4.215  49.429  1.00  0.00     0.062 C 
BRANCH  25  26
HETATM   26  C12 UNL     1      25.114   5.125  49.807  1.00  0.00     0.227 C 
HETATM   27  C13 UNL     1      24.364   5.606  48.614  1.00  0.00     0.062 C 
HETATM   28  C14 UNL     1      23.463   6.772  48.892  1.00  0.00     0.172 C 
HETATM   29  O2  UNL     1      23.960   7.672  49.819  1.00  0.00    -0.363 OA
HETATM   30  C15 UNL     1      24.469   7.051  50.949  1.00  0.00     0.437 C 
HETATM   31  N4  UNL     1      25.624   6.295  50.529  1.00  0.00     0.111 N 
HETATM   32  H18 UNL     1      26.278   6.030  51.275  1.00  0.00     0.319 HD
ENDBRANCH  25  26
ENDBRANCH  24  25
ENDBRANCH  23  24
ENDBRANCH   1  23
TORSDOF 7
ENDMDL
MODEL 6
REMARK VINA RESULT:      -7.6      3.306      6.537
REMARK  7 active torsions:
REMARK  status: ('A' for Active; 'I' for Inactive)
REMARK    1  A    between atoms: C5_6  and  N1_7 
REMARK    2  A    between atoms: N1_7  and  C6_8 
REMARK    3  A    between atoms: C8_12  and  C9_13 
REMARK    4  A    between atoms: C9_13  and  O1_14 
REMARK    5  A    between atoms: O1_14  and  C10_15 
REMARK    6  A    between atoms: C10_15  and  C11_16 
REMARK    7  A    between atoms: C11_16  and  C12_17 
ROOT
HETATM    1  C9  UNL     1      23.098   4.463  50.080  1.00  0.00     0.102 C 
HETATM    2  C16 UNL     1      23.390   5.762  50.268  1.00  0.00     0.101 C 
HETATM    3  C17 UNL     1      24.321   6.537  51.136  1.00  0.00     0.234 C 
HETATM    4  O3  UNL     1      24.958   7.475  50.289  1.00  0.00    -0.383 OA
HETATM    5  C18 UNL     1      24.061   8.525  50.071  1.00  0.00     0.194 C 
HETATM    6  C19 UNL     1      22.649   8.000  49.884  1.00  0.00     0.201 C 
HETATM    7  O4  UNL     1      22.667   6.636  49.477  1.00  0.00    -0.348 OA
ENDROOT
BRANCH   1   8
HETATM    8  C8  UNL     1      22.056   4.016  49.077  1.00  0.00     0.175 A 
HETATM    9  N3  UNL     1      22.712   3.228  48.115  1.00  0.00    -0.270 NA
HETATM   10  C7  UNL     1      22.597   2.033  47.740  1.00  0.00     0.229 A 
HETATM   11  N2  UNL     1      21.586   1.250  48.408  1.00  0.00    -0.229 NA
HETATM   12  C6  UNL     1      20.903   1.885  49.337  1.00  0.00     0.108 A 
HETATM   13  C20 UNL     1      20.999   3.271  49.835  1.00  0.00     0.112 A 
BRANCH  12  14
HETATM   14  N1  UNL     1      19.930   1.011  49.930  1.00  0.00    -0.344 N 
HETATM   15  H4  UNL     1      19.026   0.787  49.412  1.00  0.00     0.167 HD
BRANCH  14  16
HETATM   16  C5  UNL     1      20.119   0.402  51.221  1.00  0.00     0.034 A 
HETATM   17  C4  UNL     1      18.924  -0.006  51.791  1.00  0.00     0.029 A 
HETATM   18  C3  UNL     1      18.864  -0.621  53.026  1.00  0.00     0.004 A 
HETATM   19  C2  UNL     1      20.064  -0.834  53.715  1.00  0.00     0.019 A 
HETATM   20  C1  UNL     1      21.264  -0.425  53.143  1.00  0.00     0.013 A 
HETATM   21 BR1  UNL     1      22.962  -0.653  53.966  1.00  0.00    -0.051 Br
HETATM   22  C21 UNL     1      21.288   0.181  51.919  1.00  0.00     0.048 A 
ENDBRANCH  14  16
ENDBRANCH  12  14
ENDBRANCH   1   8
BRANCH   1  23
HETATM   23  O1  UNL     1      23.530   3.258  50.610  1.00  0.00    -0.350 OA
BRANCH  23  24
HETATM   24  C10 UNL     1      24.895   3.088  51.009  1.00  0.00     0.177 C 
BRANCH  24  25
HETATM   25  C11 UNL     1      25.045   1.691  51.531  1.00  0.00     0.062 C 
BRANCH  25  26
HETATM   26  C12 UNL     1      26.403   1.426  52.138  1.00  0.00     0.227 C 
HETATM   27  C13 UNL     1      26.428   0.161  52.925  1.00  0.00     0.062 C 
HETATM   28  C14 UNL     1      27.617   0.031  53.829  1.00  0.00     0.172 C 
HETATM   29  O2  UNL     1      28.037   1.221  54.399  1.00  0.00    -0.363 OA
HETATM   30  C15 UNL     1      28.118   2.255  53.481  1.00  0.00     0.437 C 
HETATM   31  N4  UNL     1      26.773   2.528  53.032  1.00  0.00     0.111 N 
HETATM   32  H18 UNL     1      26.628   3.444  52.593  1.00  0.00     0.319 HD
ENDBRANCH  25  26
ENDBRANCH  24  25
ENDBRANCH  23  24
ENDBRANCH   1  23
TORSDOF 7
ENDMDL
MODEL 7
REMARK VINA RESULT:      -7.4      4.196      7.348
REMARK  7 active torsions:
REMARK  status: ('A' for Active; 'I' for Inactive)
REMARK    1  A    between atoms: C5_6  and  N1_7 
REMARK    2  A    between atoms: N1_7  and  C6_8 
REMARK    3  A    between atoms: C8_12  and  C9_13 
REMARK    4  A    between atoms: C9_13  and  O1_14 
REMARK    5  A    between atoms: O1_14  and  C10_15 
REMARK    6  A    between atoms: C10_15  and  C11_16 
REMARK    7  A    between atoms: C11_16  and  C12_17 
ROOT
HETATM    1  C9  UNL     1      23.482   6.898  49.927  1.00  0.00     0.102 C 
HETATM    2  C16 UNL     1      22.645   7.803  49.390  1.00  0.00     0.101 C 
HETATM    3  C17 UNL     1      22.759   9.198  48.878  1.00  0.00     0.234 C 
HETATM    4  O3  UNL     1      22.088   9.214  47.632  1.00  0.00    -0.383 OA
HETATM    5  C18 UNL     1      20.716   9.272  47.891  1.00  0.00     0.194 C 
HETATM    6  C19 UNL     1      20.350   8.382  49.066  1.00  0.00     0.201 C 
HETATM    7  O4  UNL     1      21.336   7.374  49.263  1.00  0.00    -0.348 OA
ENDROOT
BRANCH   1   8
HETATM    8  C8  UNL     1      23.007   5.524  50.351  1.00  0.00     0.175 A 
HETATM    9  N3  UNL     1      23.061   4.695  49.217  1.00  0.00    -0.270 NA
HETATM   10  C7  UNL     1      23.687   3.641  48.935  1.00  0.00     0.229 A 
HETATM   11  N2  UNL     1      24.558   3.124  49.963  1.00  0.00    -0.229 NA
HETATM   12  C6  UNL     1      24.593   3.823  51.077  1.00  0.00     0.108 A 
HETATM   13  C20 UNL     1      23.901   5.069  51.464  1.00  0.00     0.112 A 
BRANCH  12  14
HETATM   14  N1  UNL     1      25.487   3.216  52.023  1.00  0.00    -0.344 N 
HETATM   15  H4  UNL     1      26.268   3.790  52.466  1.00  0.00     0.167 HD
BRANCH  14  16
HETATM   16  C5  UNL     1      25.377   1.836  52.419  1.00  0.00     0.034 A 
HETATM   17  C4  UNL     1      26.503   1.101  52.086  1.00  0.00     0.029 A 
HETATM   18  C3  UNL     1      26.621  -0.244  52.375  1.00  0.00     0.004 A 
HETATM   19  C2  UNL     1      25.556  -0.874  53.028  1.00  0.00     0.019 A 
HETATM   20  C1  UNL     1      24.425  -0.137  53.362  1.00  0.00     0.013 A 
HETATM   21 BR1  UNL     1      22.910  -0.865  54.250  1.00  0.00    -0.051 Br
HETATM   22  C21 UNL     1      24.340   1.193  53.063  1.00  0.00     0.048 A 
ENDBRANCH  14  16
ENDBRANCH  12  14
ENDBRANCH   1   8
BRANCH   1  23
HETATM   23  O1  UNL     1      24.829   6.854  50.247  1.00  0.00    -0.350 OA
BRANCH  23  24
HETATM   24  C10 UNL     1      25.808   7.387  49.347  1.00  0.00     0.177 C 
BRANCH  24  25
HETATM   25  C11 UNL     1      26.502   6.231  48.694  1.00  0.00     0.062 C 
BRANCH  25  26
HETATM   26  C12 UNL     1      27.902   6.562  48.232  1.00  0.00     0.227 C 
HETATM   27  C13 UNL     1      28.790   5.365  48.232  1.00  0.00     0.062 C 
HETATM   28  C14 UNL     1      30.250   5.692  48.133  1.00  0.00     0.172 C 
HETATM   29  O2  UNL     1      30.626   6.845  48.800  1.00  0.00    -0.363 OA
HETATM   30  C15 UNL     1      29.776   7.911  48.548  1.00  0.00     0.437 C 
HETATM   31  N4  UNL     1      28.494   7.570  49.117  1.00  0.00     0.111 N 
HETATM   32  H18 UNL     1      27.856   8.358  49.281  1.00  0.00     0.319 HD
ENDBRANCH  25  26
ENDBRANCH  24  25
ENDBRANCH  23  24
ENDBRANCH   1  23
TORSDOF 7
ENDMDL
MODEL 8
REMARK VINA RESULT:      -7.3      3.359      6.895
REMARK  7 active torsions:
REMARK  status: ('A' for Active; 'I' for Inactive)
REMARK    1  A    between atoms: C5_6  and  N1_7 
REMARK    2  A    between atoms: N1_7  and  C6_8 
REMARK    3  A    between atoms: C8_12  and  C9_13 
REMARK    4  A    between atoms: C9_13  and  O1_14 
REMARK    5  A    between atoms: O1_14  and  C10_15 
REMARK    6  A    between atoms: C10_15  and  C11_16 
REMARK    7  A    between atoms: C11_16  and  C12_17 
ROOT
HETATM    1  C9  UNL     1      26.374   6.210  49.058  1.00  0.00     0.102 C 
HETATM    2  C16 UNL     1      27.555   6.733  48.684  1.00  0.00     0.101 C 
HETATM    3  C17 UNL     1      28.859   6.199  48.200  1.00  0.00     0.234 C 
HETATM    4  O3  UNL     1      29.211   6.983  47.076  1.00  0.00    -0.383 OA
HETATM    5  C18 UNL     1      29.722   8.196  47.548  1.00  0.00     0.194 C 
HETATM    6  C19 UNL     1      28.923   8.691  48.740  1.00  0.00     0.201 C 
HETATM    7  O4  UNL     1      27.622   8.113  48.751  1.00  0.00    -0.348 OA
ENDROOT
BRANCH   1   8
HETATM    8  C8  UNL     1      25.223   7.082  49.512  1.00  0.00     0.175 A 
HETATM    9  N3  UNL     1      24.245   7.043  48.502  1.00  0.00    -0.270 NA
HETATM   10  C7  UNL     1      23.047   6.664  48.461  1.00  0.00     0.229 A 
HETATM   11  N2  UNL     1      22.501   6.144  49.691  1.00  0.00    -0.229 NA
HETATM   12  C6  UNL     1      23.330   6.127  50.714  1.00  0.00     0.108 A 
HETATM   13  C20 UNL     1      24.744   6.538  50.824  1.00  0.00     0.112 A 
BRANCH  12  14
HETATM   14  N1  UNL     1      22.681   5.592  51.878  1.00  0.00    -0.344 N 
HETATM   15  H4  UNL     1      22.306   6.248  52.629  1.00  0.00     0.167 HD
BRANCH  14  16
HETATM   16  C5  UNL     1      22.502   4.179  52.085  1.00  0.00     0.034 A 
HETATM   17  C4  UNL     1      23.558   3.610  52.778  1.00  0.00     0.029 A 
HETATM   18  C3  UNL     1      23.598   2.266  53.095  1.00  0.00     0.004 A 
HETATM   19  C2  UNL     1      22.524   1.462  52.695  1.00  0.00     0.019 A 
HETATM   20  C1  UNL     1      21.464   2.033  51.999  1.00  0.00     0.013 A 
HETATM   21 BR1  UNL     1      19.945   1.060  51.397  1.00  0.00    -0.051 Br
HETATM   22  C21 UNL     1      21.455   3.366  51.701  1.00  0.00     0.048 A 
ENDBRANCH  14  16
ENDBRANCH  12  14
ENDBRANCH   1   8
BRANCH   1  23
HETATM   23  O1  UNL     1      25.837   4.938  49.162  1.00  0.00    -0.350 OA
BRANCH  23  24
HETATM   24  C10 UNL     1      26.685   3.808  49.396  1.00  0.00     0.177 C 
BRANCH  24  25
HETATM   25  C11 UNL     1      25.964   2.883  50.329  1.00  0.00     0.062 C 
BRANCH  25  26
HETATM   26  C12 UNL     1      26.893   2.096  51.223  1.00  0.00     0.227 C 
HETATM   27  C13 UNL     1      26.327   0.766  51.587  1.00  0.00     0.062 C 
HETATM   28  C14 UNL     1      27.025   0.104  52.738  1.00  0.00     0.172 C 
HETATM   29  O2  UNL     1      27.461   0.975  53.721  1.00  0.00    -0.363 OA
HETATM   30  C15 UNL     1      28.119   2.080  53.205  1.00  0.00     0.437 C 
HETATM   31  N4  UNL     1      27.143   2.840  52.460  1.00  0.00     0.111 N 
HETATM   32  H18 UNL     1      27.389   3.820  52.276  1.00  0.00     0.319 HD
ENDBRANCH  25  26
ENDBRANCH  24  25
ENDBRANCH  23  24
ENDBRANCH   1  23
TORSDOF 7
ENDMDL
MODEL 9
REMARK VINA RESULT:      -7.1      2.142      5.470
REMARK  7 active torsions:
REMARK  status: ('A' for Active; 'I' for Inactive)
REMARK    1  A    between atoms: C5_6  and  N1_7 
REMARK    2  A    between atoms: N1_7  and  C6_8 
REMARK    3  A    between atoms: C8_12  and  C9_13 
REMARK    4  A    between atoms: C9_13  and  O1_14 
REMARK    5  A    between atoms: O1_14  and  C10_15 
REMARK    6  A    between atoms: C10_15  and  C11_16 
REMARK    7  A    between atoms: C11_16  and  C12_17 
ROOT
HETATM    1  C9  UNL     1      25.790   1.129  52.663  1.00  0.00     0.102 C 
HETATM    2  C16 UNL     1      26.812   0.444  53.205  1.00  0.00     0.101 C 
HETATM    3  C17 UNL     1      27.008  -0.920  53.773  1.00  0.00     0.234 C 
HETATM    4  O3  UNL     1      28.199  -1.419  53.195  1.00  0.00    -0.383 OA
HETATM    5  C18 UNL     1      29.275  -0.831  53.868  1.00  0.00     0.194 C 
HETATM    6  C19 UNL     1      28.994   0.632  54.161  1.00  0.00     0.201 C 
HETATM    7  O4  UNL     1      28.003   1.144  53.275  1.00  0.00    -0.348 OA
ENDROOT
BRANCH   1   8
HETATM    8  C8  UNL     1      25.954   2.552  52.174  1.00  0.00     0.175 A 
HETATM    9  N3  UNL     1      26.743   2.506  51.011  1.00  0.00    -0.270 NA
HETATM   10  C7  UNL     1      26.554   2.841  49.813  1.00  0.00     0.229 A 
HETATM   11  N2  UNL     1      25.259   3.399  49.505  1.00  0.00    -0.229 NA
HETATM   12  C6  UNL     1      24.427   3.488  50.521  1.00  0.00     0.108 A 
HETATM   13  C20 UNL     1      24.580   3.102  51.938  1.00  0.00     0.112 A 
BRANCH  12  14
HETATM   14  N1  UNL     1      23.178   4.056  50.098  1.00  0.00    -0.344 N 
HETATM   15  H4  UNL     1      22.294   3.460  50.091  1.00  0.00     0.167 HD
BRANCH  14  16
HETATM   16  C5  UNL     1      23.052   5.427  49.678  1.00  0.00     0.034 A 
HETATM   17  C4  UNL     1      22.732   6.273  50.728  1.00  0.00     0.029 A 
HETATM   18  C3  UNL     1      22.567   7.633  50.559  1.00  0.00     0.004 A 
HETATM   19  C2  UNL     1      22.732   8.163  49.275  1.00  0.00     0.019 A 
HETATM   20  C1  UNL     1      23.053   7.315  48.220  1.00  0.00     0.013 A 
HETATM   21 BR1  UNL     1      23.305   7.900  46.429  1.00  0.00    -0.051 Br
HETATM   22  C21 UNL     1      23.209   5.973  48.420  1.00  0.00     0.048 A 
ENDBRANCH  14  16
ENDBRANCH  12  14
ENDBRANCH   1   8
BRANCH   1  23
HETATM   23  O1  UNL     1      24.457   0.876  52.387  1.00  0.00    -0.350 OA
BRANCH  23  24
HETATM   24  C10 UNL     1      23.607   0.293  53.383  1.00  0.00     0.177 C 
BRANCH  24  25
HETATM   25  C11 UNL     1      22.525  -0.462  52.671  1.00  0.00     0.062 C 
BRANCH  25  26
HETATM   26  C12 UNL     1      21.398   0.423  52.193  1.00  0.00     0.227 C 
HETATM   27  C13 UNL     1      21.346   0.510  50.707  1.00  0.00     0.062 C 
HETATM   28  C14 UNL     1      20.496   1.633  50.193  1.00  0.00     0.172 C 
HETATM   29  O2  UNL     1      20.540   2.783  50.962  1.00  0.00    -0.363 OA
HETATM   30  C15 UNL     1      20.403   2.527  52.317  1.00  0.00     0.437 C 
HETATM   31  N4  UNL     1      21.569   1.779  52.724  1.00  0.00     0.111 N 
HETATM   32  H18 UNL     1      21.765   1.774  53.732  1.00  0.00     0.319 HD
ENDBRANCH  25  26
ENDBRANCH  24  25
ENDBRANCH  23  24
ENDBRANCH   1  23
TORSDOF 7
ENDMDL
