MODEL 1
REMARK VINA RESULT:      -8.7      0.000      0.000
REMARK  6 active torsions:
REMARK  status: ('A' for Active; 'I' for Inactive)
REMARK    1  A    between atoms: C3_4  and  C4_5 
REMARK    2  A    between atoms: C4_5  and  N2_6 
REMARK    3  A    between atoms: C7_9  and  C8_10 
REMARK    4  A    between atoms: C15_20  and  N5_21 
REMARK    5  A    between atoms: N5_21  and  N6_22 
REMARK    6  A    between atoms: N6_22  and  C16_23 
ROOT
HETATM    1  N2  UNL     1      23.864   2.401  50.696  1.00  0.00    -0.285 NA
HETATM    2  C5  UNL     1      22.865   1.815  51.190  1.00  0.00     0.079 C 
HETATM    3  C6  UNL     1      21.775   1.786  50.157  1.00  0.00     0.074 C 
HETATM    4  C7  UNL     1      20.633   2.754  50.455  1.00  0.00     0.047 C 
HETATM    5  C9  UNL     1      19.507   2.350  49.456  1.00  0.00    -0.023 C 
HETATM    6  C10 UNL     1      18.859   1.349  50.044  1.00  0.00    -0.024 C 
HETATM    7  C11 UNL     1      19.063   0.614  51.341  1.00  0.00     0.046 C 
HETATM    8  C12 UNL     1      18.324  -0.382  51.889  1.00  0.00     0.001 C 
HETATM    9  C13 UNL     1      18.974  -0.799  53.179  1.00  0.00     0.151 C 
HETATM   10  N3  UNL     1      20.233  -0.207  53.276  1.00  0.00    -0.283 NA
HETATM   11  C14 UNL     1      21.198  -0.002  53.967  1.00  0.00     0.229 C 
HETATM   12  N4  UNL     1      21.515   0.639  52.769  1.00  0.00    -0.220 NA
HETATM   13  C15 UNL     1      22.622   1.159  52.477  1.00  0.00     0.197 C 
ENDROOT
BRANCH   1  14
HETATM   14  C4  UNL     1      24.014   2.970  49.398  1.00  0.00     0.190 C 
BRANCH  14  15
HETATM   15  C3  UNL     1      25.329   3.712  49.328  1.00  0.00    -0.002 A 
HETATM   16  C2  UNL     1      25.281   5.067  49.019  1.00  0.00     0.122 A 
HETATM   17  N1  UNL     1      26.608   5.397  48.999  1.00  0.00    -0.285 N 
HETATM   18  C1  UNL     1      27.123   6.734  48.732  1.00  0.00     0.179 C 
HETATM   19  N7  UNL     1      27.304   4.361  49.265  1.00  0.00    -0.185 NA
HETATM   20  C22 UNL     1      26.657   3.253  49.487  1.00  0.00     0.149 A 
ENDBRANCH  14  15
ENDBRANCH   1  14
BRANCH  13  21
HETATM   21  N5  UNL     1      23.811   1.123  53.324  1.00  0.00    -0.127 NA
BRANCH  21  22
HETATM   22  N6  UNL     1      24.366  -0.037  53.242  1.00  0.00    -0.148 NA
BRANCH  22  23
HETATM   23  C16 UNL     1      25.732  -0.279  53.364  1.00  0.00     0.079 A 
HETATM   24  C17 UNL     1      26.275   0.426  54.410  1.00  0.00     0.033 A 
HETATM   25  C18 UNL     1      27.627   0.390  54.755  1.00  0.00     0.002 A 
HETATM   26  C19 UNL     1      28.494  -0.398  54.012  1.00  0.00     0.000 A 
HETATM   27  C20 UNL     1      27.960  -1.128  52.935  1.00  0.00     0.002 A 
HETATM   28  C21 UNL     1      26.606  -1.045  52.649  1.00  0.00     0.033 A 
ENDBRANCH  22  23
ENDBRANCH  21  22
ENDBRANCH  13  21
BRANCH   4  29
HETATM   29  C8  UNL     1      20.149   2.406  51.781  1.00  0.00     0.399 C 
HETATM   30  O1  UNL     1      19.801   3.127  52.822  1.00  0.00    -0.429 OA
ENDBRANCH   4  29
TORSDOF 6
ENDMDL
MODEL 2
REMARK VINA RESULT:      -8.7      1.938      5.595
REMARK  6 active torsions:
REMARK  status: ('A' for Active; 'I' for Inactive)
REMARK    1  A    between atoms: C3_4  and  C4_5 
REMARK    2  A    between atoms: C4_5  and  N2_6 
REMARK    3  A    between atoms: C7_9  and  C8_10 
REMARK    4  A    between atoms: C15_20  and  N5_21 
REMARK    5  A    between atoms: N5_21  and  N6_22 
REMARK    6  A    between atoms: N6_22  and  C16_23 
ROOT
HETATM    1  N2  UNL     1      24.669   1.234  52.575  1.00  0.00    -0.285 NA
HETATM    2  C5  UNL     1      23.602   1.816  52.247  1.00  0.00     0.079 C 
HETATM    3  C6  UNL     1      22.446   0.946  52.648  1.00  0.00     0.074 C 
HETATM    4  C7  UNL     1      21.761   0.266  51.465  1.00  0.00     0.047 C 
HETATM    5  C9  UNL     1      20.445  -0.321  52.057  1.00  0.00    -0.023 C 
HETATM    6  C10 UNL     1      19.571   0.680  52.033  1.00  0.00    -0.024 C 
HETATM    7  C11 UNL     1      19.674   2.123  51.616  1.00  0.00     0.046 C 
HETATM    8  C12 UNL     1      18.713   3.078  51.587  1.00  0.00     0.001 C 
HETATM    9  C13 UNL     1      19.339   4.366  51.128  1.00  0.00     0.151 C 
HETATM   10  N3  UNL     1      20.726   4.227  51.113  1.00  0.00    -0.283 NA
HETATM   11  C14 UNL     1      21.783   4.718  50.809  1.00  0.00     0.229 C 
HETATM   12  N4  UNL     1      22.144   3.499  51.384  1.00  0.00    -0.220 NA
HETATM   13  C15 UNL     1      23.316   3.120  51.642  1.00  0.00     0.197 C 
ENDROOT
BRANCH   1  14
HETATM   14  C4  UNL     1      24.837  -0.031  53.209  1.00  0.00     0.190 C 
BRANCH  14  15
HETATM   15  C3  UNL     1      26.231  -0.116  53.790  1.00  0.00    -0.002 A 
HETATM   16  C2  UNL     1      27.231  -0.630  52.973  1.00  0.00     0.122 A 
HETATM   17  N1  UNL     1      28.315  -0.602  53.808  1.00  0.00    -0.285 N 
HETATM   18  C1  UNL     1      29.657  -1.030  53.433  1.00  0.00     0.179 C 
HETATM   19  N7  UNL     1      27.963  -0.131  54.940  1.00  0.00    -0.185 NA
HETATM   20  C22 UNL     1      26.714   0.209  55.079  1.00  0.00     0.149 A 
ENDBRANCH  14  15
ENDBRANCH   1  14
BRANCH  13  21
HETATM   21  N5  UNL     1      24.517   3.927  51.448  1.00  0.00    -0.127 NA
BRANCH  21  22
HETATM   22  N6  UNL     1      24.955   3.770  50.246  1.00  0.00    -0.148 NA
BRANCH  22  23
HETATM   23  C16 UNL     1      25.731   4.693  49.552  1.00  0.00     0.079 A 
HETATM   24  C17 UNL     1      26.962   4.173  49.230  1.00  0.00     0.033 A 
HETATM   25  C18 UNL     1      27.954   4.882  48.550  1.00  0.00     0.002 A 
HETATM   26  C19 UNL     1      27.704   6.192  48.165  1.00  0.00     0.000 A 
HETATM   27  C20 UNL     1      26.453   6.745  48.485  1.00  0.00     0.002 A 
HETATM   28  C21 UNL     1      25.514   5.982  49.163  1.00  0.00     0.033 A 
ENDBRANCH  22  23
ENDBRANCH  21  22
ENDBRANCH  13  21
BRANCH   4  29
HETATM   29  C8  UNL     1      21.364   1.336  50.563  1.00  0.00     0.399 C 
HETATM   30  O1  UNL     1      21.383   1.455  49.256  1.00  0.00    -0.429 OA
ENDBRANCH   4  29
TORSDOF 6
ENDMDL
MODEL 3
REMARK VINA RESULT:      -8.7      2.350      3.766
REMARK  6 active torsions:
REMARK  status: ('A' for Active; 'I' for Inactive)
REMARK    1  A    between atoms: C3_4  and  C4_5 
REMARK    2  A    between atoms: C4_5  and  N2_6 
REMARK    3  A    between atoms: C7_9  and  C8_10 
REMARK    4  A    between atoms: C15_20  and  N5_21 
REMARK    5  A    between atoms: N5_21  and  N6_22 
REMARK    6  A    between atoms: N6_22  and  C16_23 
ROOT
HETATM    1  N2  UNL     1      26.185   4.749  49.486  1.00  0.00    -0.285 NA
HETATM    2  C5  UNL     1      25.221   4.239  50.116  1.00  0.00     0.079 C 
HETATM    3  C6  UNL     1      24.016   5.113  49.925  1.00  0.00     0.074 C 
HETATM    4  C7  UNL     1      23.651   5.922  51.167  1.00  0.00     0.047 C 
HETATM    5  C9  UNL     1      22.239   6.503  50.857  1.00  0.00    -0.023 C 
HETATM    6  C10 UNL     1      21.383   5.541  51.188  1.00  0.00    -0.024 C 
HETATM    7  C11 UNL     1      21.562   4.138  51.704  1.00  0.00     0.046 C 
HETATM    8  C12 UNL     1      20.623   3.226  52.055  1.00  0.00     0.001 C 
HETATM    9  C13 UNL     1      21.323   1.962  52.470  1.00  0.00     0.151 C 
HETATM   10  N3  UNL     1      22.674   2.050  52.137  1.00  0.00    -0.283 NA
HETATM   11  C14 UNL     1      23.766   1.548  52.221  1.00  0.00     0.229 C 
HETATM   12  N4  UNL     1      23.994   2.696  51.462  1.00  0.00    -0.220 NA
HETATM   13  C15 UNL     1      25.073   3.007  50.894  1.00  0.00     0.197 C 
ENDROOT
BRANCH   1  14
HETATM   14  C4  UNL     1      26.212   5.945  48.711  1.00  0.00     0.190 C 
BRANCH  14  15
HETATM   15  C3  UNL     1      27.648   6.361  48.487  1.00  0.00    -0.002 A 
HETATM   16  C2  UNL     1      28.586   5.350  48.311  1.00  0.00     0.122 A 
HETATM   17  N1  UNL     1      29.745   6.063  48.181  1.00  0.00    -0.285 N 
HETATM   18  C1  UNL     1      31.058   5.471  47.957  1.00  0.00     0.179 C 
HETATM   19  N7  UNL     1      29.487   7.309  48.271  1.00  0.00    -0.185 NA
HETATM   20  C22 UNL     1      28.243   7.644  48.462  1.00  0.00     0.149 A 
ENDBRANCH  14  15
ENDBRANCH   1  14
BRANCH  13  21
HETATM   21  N5  UNL     1      26.272   2.175  50.869  1.00  0.00    -0.127 NA
BRANCH  21  22
HETATM   22  N6  UNL     1      27.131   2.627  51.717  1.00  0.00    -0.148 NA
BRANCH  22  23
HETATM   23  C16 UNL     1      27.759   1.867  52.700  1.00  0.00     0.079 A 
HETATM   24  C17 UNL     1      27.324   0.563  52.680  1.00  0.00     0.033 A 
HETATM   25  C18 UNL     1      27.769  -0.420  53.565  1.00  0.00     0.002 A 
HETATM   26  C19 UNL     1      28.708  -0.085  54.531  1.00  0.00     0.000 A 
HETATM   27  C20 UNL     1      29.165   1.243  54.571  1.00  0.00     0.002 A 
HETATM   28  C21 UNL     1      28.680   2.169  53.660  1.00  0.00     0.033 A 
ENDBRANCH  22  23
ENDBRANCH  21  22
ENDBRANCH  13  21
BRANCH   4  29
HETATM   29  C8  UNL     1      23.469   4.952  52.237  1.00  0.00     0.399 C 
HETATM   30  O1  UNL     1      23.797   4.954  53.508  1.00  0.00    -0.429 OA
ENDBRANCH   4  29
TORSDOF 6
ENDMDL
MODEL 4
REMARK VINA RESULT:      -8.4      2.623      5.985
REMARK  6 active torsions:
REMARK  status: ('A' for Active; 'I' for Inactive)
REMARK    1  A    between atoms: C3_4  and  C4_5 
REMARK    2  A    between atoms: C4_5  and  N2_6 
REMARK    3  A    between atoms: C7_9  and  C8_10 
REMARK    4  A    between atoms: C15_20  and  N5_21 
REMARK    5  A    between atoms: N5_21  and  N6_22 
REMARK    6  A    between atoms: N6_22  and  C16_23 
ROOT
HETATM    1  N2  UNL     1      25.116   2.951  51.518  1.00  0.00    -0.285 NA
HETATM    2  C5  UNL     1      24.353   3.784  50.962  1.00  0.00     0.079 C 
HETATM    3  C6  UNL     1      25.062   4.350  49.765  1.00  0.00     0.074 C 
HETATM    4  C7  UNL     1      25.537   5.786  49.966  1.00  0.00     0.047 C 
HETATM    5  C9  UNL     1      25.957   6.264  48.544  1.00  0.00    -0.023 C 
HETATM    6  C10 UNL     1      24.833   6.678  47.967  1.00  0.00    -0.024 C 
HETATM    7  C11 UNL     1      23.396   6.702  48.414  1.00  0.00     0.046 C 
HETATM    8  C12 UNL     1      22.305   7.183  47.770  1.00  0.00     0.001 C 
HETATM    9  C13 UNL     1      21.099   6.931  48.632  1.00  0.00     0.151 C 
HETATM   10  N3  UNL     1      21.449   6.086  49.684  1.00  0.00    -0.283 NA
HETATM   11  C14 UNL     1      21.105   5.569  50.716  1.00  0.00     0.229 C 
HETATM   12  N4  UNL     1      22.405   5.096  50.533  1.00  0.00    -0.220 NA
HETATM   13  C15 UNL     1      22.979   4.219  51.228  1.00  0.00     0.197 C 
ENDROOT
BRANCH   1  14
HETATM   14  C4  UNL     1      26.436   2.563  51.147  1.00  0.00     0.190 C 
BRANCH  14  15
HETATM   15  C3  UNL     1      26.879   1.408  52.017  1.00  0.00    -0.002 A 
HETATM   16  C2  UNL     1      27.681   1.707  53.113  1.00  0.00     0.122 A 
HETATM   17  N1  UNL     1      27.920   0.464  53.631  1.00  0.00    -0.285 N 
HETATM   18  C1  UNL     1      28.716   0.206  54.824  1.00  0.00     0.179 C 
HETATM   19  N7  UNL     1      27.326  -0.412  52.918  1.00  0.00    -0.185 NA
HETATM   20  C22 UNL     1      26.650   0.019  51.891  1.00  0.00     0.149 A 
ENDBRANCH  14  15
ENDBRANCH   1  14
BRANCH  13  21
HETATM   21  N5  UNL     1      22.355   3.478  52.320  1.00  0.00    -0.127 NA
BRANCH  21  22
HETATM   22  N6  UNL     1      22.108   2.272  51.940  1.00  0.00    -0.148 NA
BRANCH  22  23
HETATM   23  C16 UNL     1      22.157   1.150  52.762  1.00  0.00     0.079 A 
HETATM   24  C17 UNL     1      20.969   0.962  53.427  1.00  0.00     0.033 A 
HETATM   25  C18 UNL     1      20.738  -0.075  54.333  1.00  0.00     0.002 A 
HETATM   26  C19 UNL     1      21.754  -0.984  54.593  1.00  0.00     0.000 A 
HETATM   27  C20 UNL     1      22.979  -0.810  53.926  1.00  0.00     0.002 A 
HETATM   28  C21 UNL     1      23.138   0.243  53.038  1.00  0.00     0.033 A 
ENDBRANCH  22  23
ENDBRANCH  21  22
ENDBRANCH  13  21
BRANCH   4  29
HETATM   29  C8  UNL     1      24.354   6.553  50.324  1.00  0.00     0.399 C 
HETATM   30  O1  UNL     1      24.145   7.527  51.180  1.00  0.00    -0.429 OA
ENDBRANCH   4  29
TORSDOF 6
ENDMDL
MODEL 5
REMARK VINA RESULT:      -8.3      2.406      6.550
REMARK  6 active torsions:
REMARK  status: ('A' for Active; 'I' for Inactive)
REMARK    1  A    between atoms: C3_4  and  C4_5 
REMARK    2  A    between atoms: C4_5  and  N2_6 
REMARK    3  A    between atoms: C7_9  and  C8_10 
REMARK    4  A    between atoms: C15_20  and  N5_21 
REMARK    5  A    between atoms: N5_21  and  N6_22 
REMARK    6  A    between atoms: N6_22  and  C16_23 
ROOT
HETATM    1  N2  UNL     1      23.665   2.783  51.606  1.00  0.00    -0.285 NA
HETATM    2  C5  UNL     1      24.131   3.832  51.090  1.00  0.00     0.079 C 
HETATM    3  C6  UNL     1      23.226   4.976  51.443  1.00  0.00     0.074 C 
HETATM    4  C7  UNL     1      22.379   5.463  50.270  1.00  0.00     0.047 C 
HETATM    5  C9  UNL     1      21.762   6.806  50.762  1.00  0.00    -0.023 C 
HETATM    6  C10 UNL     1      22.690   7.728  50.520  1.00  0.00    -0.024 C 
HETATM    7  C11 UNL     1      24.085   7.659  49.960  1.00  0.00     0.046 C 
HETATM    8  C12 UNL     1      24.960   8.663  49.710  1.00  0.00     0.001 C 
HETATM    9  C13 UNL     1      26.235   8.060  49.188  1.00  0.00     0.151 C 
HETATM   10  N3  UNL     1      26.196   6.677  49.355  1.00  0.00    -0.283 NA
HETATM   11  C14 UNL     1      26.728   5.621  49.128  1.00  0.00     0.229 C 
HETATM   12  N4  UNL     1      25.606   5.264  49.875  1.00  0.00    -0.220 NA
HETATM   13  C15 UNL     1      25.341   4.115  50.312  1.00  0.00     0.197 C 
ENDROOT
BRANCH   1  14
HETATM   14  C4  UNL     1      22.489   2.622  52.394  1.00  0.00     0.190 C 
BRANCH  14  15
HETATM   15  C3  UNL     1      22.454   1.220  52.959  1.00  0.00    -0.002 A 
HETATM   16  C2  UNL     1      21.205   0.675  53.237  1.00  0.00     0.122 A 
HETATM   17  N1  UNL     1      21.542  -0.544  53.757  1.00  0.00    -0.285 N 
HETATM   18  C1  UNL     1      20.581  -1.543  54.207  1.00  0.00     0.179 C 
HETATM   19  N7  UNL     1      22.813  -0.663  53.766  1.00  0.00    -0.185 NA
HETATM   20  C22 UNL     1      23.505   0.341  53.309  1.00  0.00     0.149 A 
ENDBRANCH  14  15
ENDBRANCH   1  14
BRANCH  13  21
HETATM   21  N5  UNL     1      26.208   2.949  50.175  1.00  0.00    -0.127 NA
BRANCH  21  22
HETATM   22  N6  UNL     1      27.045   2.913  51.155  1.00  0.00    -0.148 NA
BRANCH  22  23
HETATM   23  C16 UNL     1      27.121   1.897  52.103  1.00  0.00     0.079 A 
HETATM   24  C17 UNL     1      26.785   0.679  51.562  1.00  0.00     0.033 A 
HETATM   25  C18 UNL     1      26.756  -0.513  52.287  1.00  0.00     0.002 A 
HETATM   26  C19 UNL     1      27.084  -0.493  53.635  1.00  0.00     0.000 A 
HETATM   27  C20 UNL     1      27.430   0.741  54.210  1.00  0.00     0.002 A 
HETATM   28  C21 UNL     1      27.438   1.888  53.430  1.00  0.00     0.033 A 
ENDBRANCH  22  23
ENDBRANCH  21  22
ENDBRANCH  13  21
BRANCH   4  29
HETATM   29  C8  UNL     1      23.318   5.805  49.213  1.00  0.00     0.399 C 
HETATM   30  O1  UNL     1      23.307   5.617  47.914  1.00  0.00    -0.429 OA
ENDBRANCH   4  29
TORSDOF 6
ENDMDL
MODEL 6
REMARK VINA RESULT:      -8.3      6.697     11.498
REMARK  6 active torsions:
REMARK  status: ('A' for Active; 'I' for Inactive)
REMARK    1  A    between atoms: C3_4  and  C4_5 
REMARK    2  A    between atoms: C4_5  and  N2_6 
REMARK    3  A    between atoms: C7_9  and  C8_10 
REMARK    4  A    between atoms: C15_20  and  N5_21 
REMARK    5  A    between atoms: N5_21  and  N6_22 
REMARK    6  A    between atoms: N6_22  and  C16_23 
ROOT
HETATM    1  N2  UNL     1      30.522   8.133  48.909  1.00  0.00    -0.285 NA
HETATM    2  C5  UNL     1      31.201   7.131  48.563  1.00  0.00     0.079 C 
HETATM    3  C6  UNL     1      32.618   7.342  49.010  1.00  0.00     0.074 C 
HETATM    4  C7  UNL     1      33.573   7.664  47.863  1.00  0.00     0.047 C 
HETATM    5  C9  UNL     1      34.994   7.544  48.491  1.00  0.00    -0.023 C 
HETATM    6  C10 UNL     1      35.298   6.251  48.427  1.00  0.00    -0.024 C 
HETATM    7  C11 UNL     1      34.544   5.041  47.946  1.00  0.00     0.046 C 
HETATM    8  C12 UNL     1      34.946   3.748  47.882  1.00  0.00     0.001 C 
HETATM    9  C13 UNL     1      33.803   2.922  47.362  1.00  0.00     0.151 C 
HETATM   10  N3  UNL     1      32.643   3.696  47.343  1.00  0.00    -0.283 NA
HETATM   11  C14 UNL     1      31.488   3.769  47.010  1.00  0.00     0.229 C 
HETATM   12  N4  UNL     1      31.723   4.993  47.636  1.00  0.00    -0.220 NA
HETATM   13  C15 UNL     1      30.859   5.868  47.902  1.00  0.00     0.197 C 
ENDROOT
BRANCH   1  14
HETATM   14  C4  UNL     1      30.948   9.305  49.597  1.00  0.00     0.190 C 
BRANCH  14  15
HETATM   15  C3  UNL     1      30.131  10.486  49.125  1.00  0.00    -0.002 A 
HETATM   16  C2  UNL     1      28.765  10.290  48.955  1.00  0.00     0.122 A 
HETATM   17  N1  UNL     1      28.362  11.513  48.494  1.00  0.00    -0.285 N 
HETATM   18  C1  UNL     1      26.985  11.859  48.165  1.00  0.00     0.179 C 
HETATM   19  N7  UNL     1      29.372  12.290  48.420  1.00  0.00    -0.185 NA
HETATM   20  C22 UNL     1      30.525  11.798  48.772  1.00  0.00     0.149 A 
ENDBRANCH  14  15
ENDBRANCH   1  14
BRANCH  13  21
HETATM   21  N5  UNL     1      29.426   5.726  47.664  1.00  0.00    -0.127 NA
BRANCH  21  22
HETATM   22  N6  UNL     1      28.876   5.136  48.669  1.00  0.00    -0.148 NA
BRANCH  22  23
HETATM   23  C16 UNL     1      27.505   4.977  48.849  1.00  0.00     0.079 A 
HETATM   24  C17 UNL     1      26.820   6.122  48.522  1.00  0.00     0.033 A 
HETATM   25  C18 UNL     1      25.434   6.256  48.624  1.00  0.00     0.002 A 
HETATM   26  C19 UNL     1      24.682   5.182  49.078  1.00  0.00     0.000 A 
HETATM   27  C20 UNL     1      25.362   4.001  49.419  1.00  0.00     0.002 A 
HETATM   28  C21 UNL     1      26.742   3.937  49.293  1.00  0.00     0.033 A 
ENDBRANCH  22  23
ENDBRANCH  21  22
ENDBRANCH  13  21
BRANCH   4  29
HETATM   29  C8  UNL     1      33.448   6.566  46.918  1.00  0.00     0.399 C 
HETATM   30  O1  UNL     1      33.420   6.516  45.606  1.00  0.00    -0.429 OA
ENDBRANCH   4  29
TORSDOF 6
ENDMDL
MODEL 7
REMARK VINA RESULT:      -8.1      2.343      5.933
REMARK  6 active torsions:
REMARK  status: ('A' for Active; 'I' for Inactive)
REMARK    1  A    between atoms: C3_4  and  C4_5 
REMARK    2  A    between atoms: C4_5  and  N2_6 
REMARK    3  A    between atoms: C7_9  and  C8_10 
REMARK    4  A    between atoms: C15_20  and  N5_21 
REMARK    5  A    between atoms: N5_21  and  N6_22 
REMARK    6  A    between atoms: N6_22  and  C16_23 
ROOT
HETATM    1  N2  UNL     1      23.219   1.635  51.414  1.00  0.00    -0.285 NA
HETATM    2  C5  UNL     1      23.503   2.822  51.105  1.00  0.00     0.079 C 
HETATM    3  C6  UNL     1      22.304   3.683  51.379  1.00  0.00     0.074 C 
HETATM    4  C7  UNL     1      21.580   4.135  50.114  1.00  0.00     0.047 C 
HETATM    5  C9  UNL     1      20.586   5.232  50.600  1.00  0.00    -0.023 C 
HETATM    6  C10 UNL     1      21.295   6.356  50.639  1.00  0.00    -0.024 C 
HETATM    7  C11 UNL     1      22.742   6.669  50.364  1.00  0.00     0.046 C 
HETATM    8  C12 UNL     1      23.382   7.863  50.392  1.00  0.00     0.001 C 
HETATM    9  C13 UNL     1      24.834   7.629  50.079  1.00  0.00     0.151 C 
HETATM   10  N3  UNL     1      25.098   6.260  50.101  1.00  0.00    -0.283 NA
HETATM   11  C14 UNL     1      25.897   5.386  49.883  1.00  0.00     0.229 C 
HETATM   12  N4  UNL     1      24.780   4.694  50.353  1.00  0.00    -0.220 NA
HETATM   13  C15 UNL     1      24.726   3.465  50.615  1.00  0.00     0.197 C 
ENDROOT
BRANCH   1  14
HETATM   14  C4  UNL     1      21.997   1.116  51.931  1.00  0.00     0.190 C 
BRANCH  14  15
HETATM   15  C3  UNL     1      22.296   0.218  53.110  1.00  0.00    -0.002 A 
HETATM   16  C2  UNL     1      23.621   0.128  53.523  1.00  0.00     0.122 A 
HETATM   17  N1  UNL     1      23.533  -0.772  54.549  1.00  0.00    -0.285 N 
HETATM   18  C1  UNL     1      24.663  -1.219  55.354  1.00  0.00     0.179 C 
HETATM   19  N7  UNL     1      22.318  -1.135  54.690  1.00  0.00    -0.185 NA
HETATM   20  C22 UNL     1      21.445  -0.613  53.876  1.00  0.00     0.149 A 
ENDBRANCH  14  15
ENDBRANCH   1  14
BRANCH  13  21
HETATM   21  N5  UNL     1      25.856   2.545  50.541  1.00  0.00    -0.127 NA
BRANCH  21  22
HETATM   22  N6  UNL     1      26.604   2.692  51.581  1.00  0.00    -0.148 NA
BRANCH  22  23
HETATM   23  C16 UNL     1      27.215   1.655  52.278  1.00  0.00     0.079 A 
HETATM   24  C17 UNL     1      26.689   0.434  51.926  1.00  0.00     0.033 A 
HETATM   25  C18 UNL     1      27.099  -0.779  52.480  1.00  0.00     0.002 A 
HETATM   26  C19 UNL     1      28.097  -0.780  53.444  1.00  0.00     0.000 A 
HETATM   27  C20 UNL     1      28.649   0.456  53.821  1.00  0.00     0.002 A 
HETATM   28  C21 UNL     1      28.193   1.625  53.228  1.00  0.00     0.033 A 
ENDBRANCH  22  23
ENDBRANCH  21  22
ENDBRANCH  13  21
BRANCH   4  29
HETATM   29  C8  UNL     1      22.578   4.816  49.303  1.00  0.00     0.399 C 
HETATM   30  O1  UNL     1      22.839   4.810  48.016  1.00  0.00    -0.429 OA
ENDBRANCH   4  29
TORSDOF 6
ENDMDL
MODEL 8
REMARK VINA RESULT:      -7.6      2.682      6.125
REMARK  6 active torsions:
REMARK  status: ('A' for Active; 'I' for Inactive)
REMARK    1  A    between atoms: C3_4  and  C4_5 
REMARK    2  A    between atoms: C4_5  and  N2_6 
REMARK    3  A    between atoms: C7_9  and  C8_10 
REMARK    4  A    between atoms: C15_20  and  N5_21 
REMARK    5  A    between atoms: N5_21  and  N6_22 
REMARK    6  A    between atoms: N6_22  and  C16_23 
ROOT
HETATM    1  N2  UNL     1      24.245   3.609  51.452  1.00  0.00    -0.285 NA
HETATM    2  C5  UNL     1      23.352   3.715  50.571  1.00  0.00     0.079 C 
HETATM    3  C6  UNL     1      22.272   2.715  50.868  1.00  0.00     0.074 C 
HETATM    4  C7  UNL     1      22.268   1.527  49.909  1.00  0.00     0.047 C 
HETATM    5  C9  UNL     1      20.923   0.795  50.198  1.00  0.00    -0.023 C 
HETATM    6  C10 UNL     1      20.013   1.432  49.468  1.00  0.00    -0.024 C 
HETATM    7  C11 UNL     1      20.079   2.632  48.562  1.00  0.00     0.046 C 
HETATM    8  C12 UNL     1      19.099   3.201  47.818  1.00  0.00     0.001 C 
HETATM    9  C13 UNL     1      19.672   4.403  47.120  1.00  0.00     0.151 C 
HETATM   10  N3  UNL     1      20.934   4.682  47.640  1.00  0.00    -0.283 NA
HETATM   11  C14 UNL     1      21.938   5.342  47.546  1.00  0.00     0.229 C 
HETATM   12  N4  UNL     1      22.185   4.531  48.654  1.00  0.00    -0.220 NA
HETATM   13  C15 UNL     1      23.173   4.616  49.429  1.00  0.00     0.197 C 
ENDROOT
BRANCH   1  14
HETATM   14  C4  UNL     1      24.302   2.718  52.562  1.00  0.00     0.190 C 
BRANCH  14  15
HETATM   15  C3  UNL     1      25.367   1.675  52.312  1.00  0.00    -0.002 A 
HETATM   16  C2  UNL     1      25.144   0.401  52.822  1.00  0.00     0.122 A 
HETATM   17  N1  UNL     1      26.290  -0.251  52.457  1.00  0.00    -0.285 N 
HETATM   18  C1  UNL     1      26.569  -1.653  52.742  1.00  0.00     0.179 C 
HETATM   19  N7  UNL     1      27.050   0.555  51.824  1.00  0.00    -0.185 NA
HETATM   20  C22 UNL     1      26.617   1.772  51.659  1.00  0.00     0.149 A 
ENDBRANCH  14  15
ENDBRANCH   1  14
BRANCH  13  21
HETATM   21  N5  UNL     1      24.212   5.637  49.348  1.00  0.00    -0.127 NA
BRANCH  21  22
HETATM   22  N6  UNL     1      25.333   5.090  49.025  1.00  0.00    -0.148 NA
BRANCH  22  23
HETATM   23  C16 UNL     1      26.448   5.775  48.547  1.00  0.00     0.079 A 
HETATM   24  C17 UNL     1      27.585   5.009  48.641  1.00  0.00     0.033 A 
HETATM   25  C18 UNL     1      28.853   5.446  48.254  1.00  0.00     0.002 A 
HETATM   26  C19 UNL     1      28.998   6.727  47.738  1.00  0.00     0.000 A 
HETATM   27  C20 UNL     1      27.848   7.528  47.635  1.00  0.00     0.002 A 
HETATM   28  C21 UNL     1      26.619   7.029  48.039  1.00  0.00     0.033 A 
ENDBRANCH  22  23
ENDBRANCH  21  22
ENDBRANCH  13  21
BRANCH   4  29
HETATM   29  C8  UNL     1      22.150   2.090  48.573  1.00  0.00     0.399 C 
HETATM   30  O1  UNL     1      22.705   1.785  47.423  1.00  0.00    -0.429 OA
ENDBRANCH   4  29
TORSDOF 6
ENDMDL
MODEL 9
REMARK VINA RESULT:      -7.5      2.709      6.329
REMARK  6 active torsions:
REMARK  status: ('A' for Active; 'I' for Inactive)
REMARK    1  A    between atoms: C3_4  and  C4_5 
REMARK    2  A    between atoms: C4_5  and  N2_6 
REMARK    3  A    between atoms: C7_9  and  C8_10 
REMARK    4  A    between atoms: C15_20  and  N5_21 
REMARK    5  A    between atoms: N5_21  and  N6_22 
REMARK    6  A    between atoms: N6_22  and  C16_23 
ROOT
HETATM    1  N2  UNL     1      21.346   3.066  52.117  1.00  0.00    -0.285 NA
HETATM    2  C5  UNL     1      21.845   4.106  51.612  1.00  0.00     0.079 C 
HETATM    3  C6  UNL     1      20.734   4.928  51.026  1.00  0.00     0.074 C 
HETATM    4  C7  UNL     1      20.699   4.898  49.500  1.00  0.00     0.047 C 
HETATM    5  C9  UNL     1      19.697   6.024  49.108  1.00  0.00    -0.023 C 
HETATM    6  C10 UNL     1      20.412   7.146  49.105  1.00  0.00    -0.024 C 
HETATM    7  C11 UNL     1      21.849   7.448  49.432  1.00  0.00     0.046 C 
HETATM    8  C12 UNL     1      22.515   8.627  49.366  1.00  0.00     0.001 C 
HETATM    9  C13 UNL     1      23.924   8.402  49.837  1.00  0.00     0.151 C 
HETATM   10  N3  UNL     1      24.025   7.134  50.408  1.00  0.00    -0.283 NA
HETATM   11  C14 UNL     1      24.754   6.291  50.865  1.00  0.00     0.229 C 
HETATM   12  N4  UNL     1      23.488   5.716  50.970  1.00  0.00    -0.220 NA
HETATM   13  C15 UNL     1      23.210   4.636  51.554  1.00  0.00     0.197 C 
ENDROOT
BRANCH   1  14
HETATM   14  C4  UNL     1      19.981   2.662  52.160  1.00  0.00     0.190 C 
BRANCH  14  15
HETATM   15  C3  UNL     1      19.900   1.224  52.621  1.00  0.00    -0.002 A 
HETATM   16  C2  UNL     1      20.896   0.774  53.481  1.00  0.00     0.122 A 
HETATM   17  N1  UNL     1      20.545  -0.536  53.653  1.00  0.00    -0.285 N 
HETATM   18  C1  UNL     1      21.268  -1.481  54.496  1.00  0.00     0.179 C 
HETATM   19  N7  UNL     1      19.489  -0.783  52.980  1.00  0.00    -0.185 NA
HETATM   20  C22 UNL     1      18.980   0.201  52.295  1.00  0.00     0.149 A 
ENDBRANCH  14  15
ENDBRANCH   1  14
BRANCH  13  21
HETATM   21  N5  UNL     1      24.165   3.818  52.295  1.00  0.00    -0.127 NA
BRANCH  21  22
HETATM   22  N6  UNL     1      24.710   2.962  51.502  1.00  0.00    -0.148 NA
BRANCH  22  23
HETATM   23  C16 UNL     1      25.247   1.739  51.894  1.00  0.00     0.079 A 
HETATM   24  C17 UNL     1      24.370   1.037  52.687  1.00  0.00     0.033 A 
HETATM   25  C18 UNL     1      24.650  -0.213  53.240  1.00  0.00     0.002 A 
HETATM   26  C19 UNL     1      25.879  -0.805  52.986  1.00  0.00     0.000 A 
HETATM   27  C20 UNL     1      26.792  -0.106  52.179  1.00  0.00     0.002 A 
HETATM   28  C21 UNL     1      26.447   1.134  51.662  1.00  0.00     0.033 A 
ENDBRANCH  22  23
ENDBRANCH  21  22
ENDBRANCH  13  21
BRANCH   4  29
HETATM   29  C8  UNL     1      22.011   5.346  49.060  1.00  0.00     0.399 C 
HETATM   30  O1  UNL     1      22.818   4.946  48.104  1.00  0.00    -0.429 OA
ENDBRANCH   4  29
TORSDOF 6
ENDMDL
