MODEL 1
REMARK VINA RESULT:      -7.6      0.000      0.000
REMARK  8 active torsions:
REMARK  status: ('A' for Active; 'I' for Inactive)
REMARK    1  A    between atoms: C2_2  and  C3_3 
REMARK    2  A    between atoms: C3_3  and  C4_4 
REMARK    3  A    between atoms: C4_4  and  C5_5 
REMARK    4  A    between atoms: C5_5  and  O1_6 
REMARK    5  A    between atoms: O1_6  and  C6_7 
REMARK    6  A    between atoms: C14_19  and  O2_20 
REMARK    7  A    between atoms: O2_20  and  C15_21 
REMARK    8  A    between atoms: C18_24  and  O3_25 
ROOT
HETATM    1  C6  UNL     1      24.602   0.141  52.708  1.00  0.00     0.098 C 
HETATM    2  C7  UNL     1      25.579  -0.774  52.841  1.00  0.00     0.161 C 
HETATM    3  C8  UNL     1      26.978  -0.879  52.423  1.00  0.00     0.100 C 
HETATM    4  N1  UNL     1      27.123  -2.040  53.017  1.00  0.00    -0.258 NA
HETATM    5  C9  UNL     1      28.369  -2.704  52.966  1.00  0.00     0.233 C 
HETATM    6  N2  UNL     1      29.238  -1.927  53.552  1.00  0.00    -0.235 NA
HETATM    7  C10 UNL     1      28.876  -0.651  54.107  1.00  0.00     0.233 C 
HETATM    8  N3  UNL     1      29.669   0.315  53.806  1.00  0.00    -0.253 NA
HETATM    9  C11 UNL     1      29.480   1.627  54.250  1.00  0.00     0.137 C 
HETATM   10  C12 UNL     1      28.652   2.501  53.644  1.00  0.00     0.135 C 
HETATM   11  N4  UNL     1      27.863   2.249  52.498  1.00  0.00    -0.273 NA
HETATM   12  C13 UNL     1      26.700   2.787  52.379  1.00  0.00     0.125 C 
HETATM   13  C14 UNL     1      25.798   2.565  51.190  1.00  0.00     0.187 C 
HETATM   14  C17 UNL     1      24.416   2.382  51.696  1.00  0.00     0.044 C 
HETATM   15  C18 UNL     1      23.865   1.385  52.340  1.00  0.00     0.072 C 
ENDROOT
BRANCH   1  16
HETATM   16  O1  UNL     1      23.917  -0.863  53.435  1.00  0.00    -0.378 OA
BRANCH  16  17
HETATM   17  C5  UNL     1      23.880  -0.933  54.826  1.00  0.00     0.168 C 
BRANCH  17  18
HETATM   18  C4  UNL     1      22.482  -1.351  55.240  1.00  0.00     0.027 C 
BRANCH  18  19
HETATM   19  C3  UNL     1      21.762  -1.833  54.006  1.00  0.00     0.007 C 
BRANCH  19  20
HETATM   20  C2  UNL     1      20.344  -1.415  54.140  1.00  0.00    -0.010 C 
HETATM   21  C1  UNL     1      19.697  -0.514  53.438  1.00  0.00     0.005 C 
ENDBRANCH  19  20
ENDBRANCH  18  19
ENDBRANCH  17  18
ENDBRANCH  16  17
ENDBRANCH   1  16
BRANCH  15  22
HETATM   22  O3  UNL     1      22.546   1.388  52.740  1.00  0.00    -0.362 OA
HETATM   23  H24 UNL     1      22.154   0.909  53.528  1.00  0.00     0.217 HD
ENDBRANCH  15  22
BRANCH  13  24
HETATM   24  O2  UNL     1      25.877   3.748  50.447  1.00  0.00    -0.377 OA
BRANCH  24  25
HETATM   25  C15 UNL     1      26.642   3.490  49.304  1.00  0.00     0.164 C 
HETATM   26  C16 UNL     1      27.153   4.865  48.868  1.00  0.00     0.033 C 
ENDBRANCH  24  25
ENDBRANCH  13  24
TORSDOF 8
ENDMDL
MODEL 2
REMARK VINA RESULT:      -7.5      2.440      6.498
REMARK  8 active torsions:
REMARK  status: ('A' for Active; 'I' for Inactive)
REMARK    1  A    between atoms: C2_2  and  C3_3 
REMARK    2  A    between atoms: C3_3  and  C4_4 
REMARK    3  A    between atoms: C4_4  and  C5_5 
REMARK    4  A    between atoms: C5_5  and  O1_6 
REMARK    5  A    between atoms: O1_6  and  C6_7 
REMARK    6  A    between atoms: C14_19  and  O2_20 
REMARK    7  A    between atoms: O2_20  and  C15_21 
REMARK    8  A    between atoms: C18_24  and  O3_25 
ROOT
HETATM    1  C6  UNL     1      26.285   1.045  53.534  1.00  0.00     0.098 C 
HETATM    2  C7  UNL     1      26.549   1.843  52.484  1.00  0.00     0.161 C 
HETATM    3  C8  UNL     1      25.899   2.141  51.207  1.00  0.00     0.100 C 
HETATM    4  N1  UNL     1      26.814   3.027  50.888  1.00  0.00    -0.258 NA
HETATM    5  C9  UNL     1      26.722   3.721  49.661  1.00  0.00     0.233 C 
HETATM    6  N2  UNL     1      25.608   4.398  49.691  1.00  0.00    -0.235 NA
HETATM    7  C10 UNL     1      24.717   4.364  50.818  1.00  0.00     0.233 C 
HETATM    8  N3  UNL     1      23.477   4.201  50.524  1.00  0.00    -0.253 NA
HETATM    9  C11 UNL     1      22.464   4.140  51.486  1.00  0.00     0.137 C 
HETATM   10  C12 UNL     1      22.152   3.016  52.161  1.00  0.00     0.135 C 
HETATM   11  N4  UNL     1      22.774   1.755  52.019  1.00  0.00    -0.273 NA
HETATM   12  C13 UNL     1      22.929   0.987  53.040  1.00  0.00     0.125 C 
HETATM   13  C14 UNL     1      23.584  -0.370  52.971  1.00  0.00     0.187 C 
HETATM   14  C17 UNL     1      24.471  -0.507  54.152  1.00  0.00     0.044 C 
HETATM   15  C18 UNL     1      25.613   0.065  54.436  1.00  0.00     0.072 C 
ENDROOT
BRANCH   1  16
HETATM   16  O1  UNL     1      27.503   1.630  53.957  1.00  0.00    -0.378 OA
BRANCH  16  17
HETATM   17  C5  UNL     1      28.755   1.279  53.455  1.00  0.00     0.168 C 
BRANCH  17  18
HETATM   18  C4  UNL     1      29.282   0.116  54.273  1.00  0.00     0.027 C 
BRANCH  18  19
HETATM   19  C3  UNL     1      29.976  -0.833  53.329  1.00  0.00     0.007 C 
BRANCH  19  20
HETATM   20  C2  UNL     1      29.157  -2.071  53.279  1.00  0.00    -0.010 C 
HETATM   21  C1  UNL     1      27.925  -2.207  52.848  1.00  0.00     0.005 C 
ENDBRANCH  19  20
ENDBRANCH  18  19
ENDBRANCH  17  18
ENDBRANCH  16  17
ENDBRANCH   1  16
BRANCH  15  22
HETATM   22  O3  UNL     1      26.307  -0.185  55.601  1.00  0.00    -0.362 OA
HETATM   23  H24 UNL     1      27.122  -0.759  55.706  1.00  0.00     0.217 HD
ENDBRANCH  15  22
BRANCH  13  24
HETATM   24  O2  UNL     1      22.532  -1.287  53.060  1.00  0.00    -0.377 OA
BRANCH  24  25
HETATM   25  C15 UNL     1      21.965  -1.172  54.334  1.00  0.00     0.164 C 
HETATM   26  C16 UNL     1      20.500  -1.572  54.137  1.00  0.00     0.033 C 
ENDBRANCH  24  25
ENDBRANCH  13  24
TORSDOF 8
ENDMDL
MODEL 3
REMARK VINA RESULT:      -7.3      2.920      7.242
REMARK  8 active torsions:
REMARK  status: ('A' for Active; 'I' for Inactive)
REMARK    1  A    between atoms: C2_2  and  C3_3 
REMARK    2  A    between atoms: C3_3  and  C4_4 
REMARK    3  A    between atoms: C4_4  and  C5_5 
REMARK    4  A    between atoms: C5_5  and  O1_6 
REMARK    5  A    between atoms: O1_6  and  C6_7 
REMARK    6  A    between atoms: C14_19  and  O2_20 
REMARK    7  A    between atoms: O2_20  and  C15_21 
REMARK    8  A    between atoms: C18_24  and  O3_25 
ROOT
HETATM    1  C6  UNL     1      25.172   2.150  51.534  1.00  0.00     0.098 C 
HETATM    2  C7  UNL     1      23.888   2.053  51.148  1.00  0.00     0.161 C 
HETATM    3  C8  UNL     1      22.887   0.986  51.103  1.00  0.00     0.100 C 
HETATM    4  N1  UNL     1      21.962   1.801  50.651  1.00  0.00    -0.258 NA
HETATM    5  C9  UNL     1      20.662   1.313  50.392  1.00  0.00     0.233 C 
HETATM    6  N2  UNL     1      20.187   0.878  51.526  1.00  0.00    -0.235 NA
HETATM    7  C10 UNL     1      20.942   0.934  52.748  1.00  0.00     0.233 C 
HETATM    8  N3  UNL     1      20.931  -0.148  53.441  1.00  0.00    -0.253 NA
HETATM    9  C11 UNL     1      21.609  -0.284  54.657  1.00  0.00     0.137 C 
HETATM   10  C12 UNL     1      22.920  -0.585  54.742  1.00  0.00     0.135 C 
HETATM   11  N4  UNL     1      23.801  -0.804  53.659  1.00  0.00    -0.273 NA
HETATM   12  C13 UNL     1      25.030  -0.428  53.734  1.00  0.00     0.125 C 
HETATM   13  C14 UNL     1      26.030  -0.624  52.621  1.00  0.00     0.187 C 
HETATM   14  C17 UNL     1      26.837   0.616  52.512  1.00  0.00     0.044 C 
HETATM   15  C18 UNL     1      26.523   1.805  52.065  1.00  0.00     0.072 C 
ENDROOT
BRANCH   1  16
HETATM   16  O1  UNL     1      24.932   3.479  51.107  1.00  0.00    -0.378 OA
BRANCH  16  17
HETATM   17  C5  UNL     1      24.843   3.867  49.771  1.00  0.00     0.168 C 
BRANCH  17  18
HETATM   18  C4  UNL     1      25.815   5.009  49.547  1.00  0.00     0.027 C 
BRANCH  18  19
HETATM   19  C3  UNL     1      27.098   4.423  49.015  1.00  0.00     0.007 C 
BRANCH  19  20
HETATM   20  C2  UNL     1      27.906   5.553  48.489  1.00  0.00    -0.010 C 
HETATM   21  C1  UNL     1      29.165   5.542  48.118  1.00  0.00     0.005 C 
ENDBRANCH  19  20
ENDBRANCH  18  19
ENDBRANCH  17  18
ENDBRANCH  16  17
ENDBRANCH   1  16
BRANCH  15  22
HETATM   22  O3  UNL     1      27.415   2.856  52.041  1.00  0.00    -0.362 OA
HETATM   23  H24 UNL     1      28.045   3.096  51.299  1.00  0.00     0.217 HD
ENDBRANCH  15  22
BRANCH  13  24
HETATM   24  O2  UNL     1      26.842  -1.682  53.042  1.00  0.00    -0.377 OA
BRANCH  24  25
HETATM   25  C15 UNL     1      28.152  -1.202  53.156  1.00  0.00     0.164 C 
HETATM   26  C16 UNL     1      29.018  -2.464  53.194  1.00  0.00     0.033 C 
ENDBRANCH  24  25
ENDBRANCH  13  24
TORSDOF 8
ENDMDL
MODEL 4
REMARK VINA RESULT:      -7.1      2.749      6.565
REMARK  8 active torsions:
REMARK  status: ('A' for Active; 'I' for Inactive)
REMARK    1  A    between atoms: C2_2  and  C3_3 
REMARK    2  A    between atoms: C3_3  and  C4_4 
REMARK    3  A    between atoms: C4_4  and  C5_5 
REMARK    4  A    between atoms: C5_5  and  O1_6 
REMARK    5  A    between atoms: O1_6  and  C6_7 
REMARK    6  A    between atoms: C14_19  and  O2_20 
REMARK    7  A    between atoms: O2_20  and  C15_21 
REMARK    8  A    between atoms: C18_24  and  O3_25 
ROOT
HETATM    1  C6  UNL     1      25.798   1.234  52.329  1.00  0.00     0.098 C 
HETATM    2  C7  UNL     1      26.260   2.106  51.416  1.00  0.00     0.161 C 
HETATM    3  C8  UNL     1      25.679   2.868  50.309  1.00  0.00     0.100 C 
HETATM    4  N1  UNL     1      26.825   3.450  50.040  1.00  0.00    -0.258 NA
HETATM    5  C9  UNL     1      26.907   4.382  48.981  1.00  0.00     0.233 C 
HETATM    6  N2  UNL     1      26.103   5.365  49.278  1.00  0.00    -0.235 NA
HETATM    7  C10 UNL     1      25.326   5.385  50.487  1.00  0.00     0.233 C 
HETATM    8  N3  UNL     1      24.091   5.706  50.331  1.00  0.00    -0.253 NA
HETATM    9  C11 UNL     1      23.180   5.777  51.390  1.00  0.00     0.137 C 
HETATM   10  C12 UNL     1      22.538   4.701  51.886  1.00  0.00     0.135 C 
HETATM   11  N4  UNL     1      22.671   3.368  51.438  1.00  0.00    -0.273 NA
HETATM   12  C13 UNL     1      22.609   2.392  52.275  1.00  0.00     0.125 C 
HETATM   13  C14 UNL     1      22.745   0.943  51.876  1.00  0.00     0.187 C 
HETATM   14  C17 UNL     1      23.598   0.271  52.887  1.00  0.00     0.044 C 
HETATM   15  C18 UNL     1      24.882   0.360  53.119  1.00  0.00     0.072 C 
ENDROOT
BRANCH   1  16
HETATM   16  O1  UNL     1      27.167   1.280  52.689  1.00  0.00    -0.378 OA
BRANCH  16  17
HETATM   17  C5  UNL     1      27.732   2.268  53.492  1.00  0.00     0.168 C 
BRANCH  17  18
HETATM   18  C4  UNL     1      29.095   1.783  53.947  1.00  0.00     0.027 C 
BRANCH  18  19
HETATM   19  C3  UNL     1      28.907   0.445  54.616  1.00  0.00     0.007 C 
BRANCH  19  20
HETATM   20  C2  UNL     1      29.721  -0.537  53.857  1.00  0.00    -0.010 C 
HETATM   21  C1  UNL     1      29.333  -1.679  53.338  1.00  0.00     0.005 C 
ENDBRANCH  19  20
ENDBRANCH  18  19
ENDBRANCH  17  18
ENDBRANCH  16  17
ENDBRANCH   1  16
BRANCH  15  22
HETATM   22  O3  UNL     1      25.514  -0.348  54.118  1.00  0.00    -0.362 OA
HETATM   23  H24 UNL     1      25.116  -0.651  54.987  1.00  0.00     0.217 HD
ENDBRANCH  15  22
BRANCH  13  24
HETATM   24  O2  UNL     1      21.446   0.426  51.933  1.00  0.00    -0.377 OA
BRANCH  24  25
HETATM   25  C15 UNL     1      21.005   0.511  53.259  1.00  0.00     0.164 C 
HETATM   26  C16 UNL     1      19.822  -0.457  53.331  1.00  0.00     0.033 C 
ENDBRANCH  24  25
ENDBRANCH  13  24
TORSDOF 8
ENDMDL
MODEL 5
REMARK VINA RESULT:      -6.9      2.717      6.760
REMARK  8 active torsions:
REMARK  status: ('A' for Active; 'I' for Inactive)
REMARK    1  A    between atoms: C2_2  and  C3_3 
REMARK    2  A    between atoms: C3_3  and  C4_4 
REMARK    3  A    between atoms: C4_4  and  C5_5 
REMARK    4  A    between atoms: C5_5  and  O1_6 
REMARK    5  A    between atoms: O1_6  and  C6_7 
REMARK    6  A    between atoms: C14_19  and  O2_20 
REMARK    7  A    between atoms: O2_20  and  C15_21 
REMARK    8  A    between atoms: C18_24  and  O3_25 
ROOT
HETATM    1  C6  UNL     1      23.936   0.403  53.315  1.00  0.00     0.098 C 
HETATM    2  C7  UNL     1      24.645   1.230  52.526  1.00  0.00     0.161 C 
HETATM    3  C8  UNL     1      24.382   1.989  51.303  1.00  0.00     0.100 C 
HETATM    4  N1  UNL     1      25.586   2.513  51.306  1.00  0.00    -0.258 NA
HETATM    5  C9  UNL     1      25.963   3.413  50.285  1.00  0.00     0.233 C 
HETATM    6  N2  UNL     1      25.161   4.438  50.367  1.00  0.00    -0.235 NA
HETATM    7  C10 UNL     1      24.121   4.523  51.355  1.00  0.00     0.233 C 
HETATM    8  N3  UNL     1      22.976   4.895  50.905  1.00  0.00    -0.253 NA
HETATM    9  C11 UNL     1      21.844   5.033  51.715  1.00  0.00     0.137 C 
HETATM   10  C12 UNL     1      21.050   4.000  52.058  1.00  0.00     0.135 C 
HETATM   11  N4  UNL     1      21.220   2.651  51.674  1.00  0.00    -0.273 NA
HETATM   12  C13 UNL     1      20.913   1.700  52.485  1.00  0.00     0.125 C 
HETATM   13  C14 UNL     1      21.068   0.237  52.150  1.00  0.00     0.187 C 
HETATM   14  C17 UNL     1      21.621  -0.447  53.345  1.00  0.00     0.044 C 
HETATM   15  C18 UNL     1      22.816  -0.409  53.875  1.00  0.00     0.072 C 
ENDROOT
BRANCH   1  16
HETATM   16  O1  UNL     1      25.181   0.397  53.990  1.00  0.00    -0.378 OA
BRANCH  16  17
HETATM   17  C5  UNL     1      26.299  -0.316  53.562  1.00  0.00     0.168 C 
BRANCH  17  18
HETATM   18  C4  UNL     1      27.424  -0.064  54.547  1.00  0.00     0.027 C 
BRANCH  18  19
HETATM   19  C3  UNL     1      28.355   0.950  53.933  1.00  0.00     0.007 C 
BRANCH  19  20
HETATM   20  C2  UNL     1      29.588   0.223  53.540  1.00  0.00    -0.010 C 
HETATM   21  C1  UNL     1      29.861  -1.051  53.699  1.00  0.00     0.005 C 
ENDBRANCH  19  20
ENDBRANCH  18  19
ENDBRANCH  17  18
ENDBRANCH  16  17
ENDBRANCH   1  16
BRANCH  15  22
HETATM   22  O3  UNL     1      23.157  -1.119  55.007  1.00  0.00    -0.362 OA
HETATM   23  H24 UNL     1      23.873  -1.815  55.089  1.00  0.00     0.217 HD
ENDBRANCH  15  22
BRANCH  13  24
HETATM   24  O2  UNL     1      19.769  -0.220  51.903  1.00  0.00    -0.377 OA
BRANCH  24  25
HETATM   25  C15 UNL     1      19.193  -0.570  53.130  1.00  0.00     0.164 C 
HETATM   26  C16 UNL     1      17.817  -1.130  52.759  1.00  0.00     0.033 C 
ENDBRANCH  24  25
ENDBRANCH  13  24
TORSDOF 8
ENDMDL
MODEL 6
REMARK VINA RESULT:      -6.7      3.460      6.263
REMARK  8 active torsions:
REMARK  status: ('A' for Active; 'I' for Inactive)
REMARK    1  A    between atoms: C2_2  and  C3_3 
REMARK    2  A    between atoms: C3_3  and  C4_4 
REMARK    3  A    between atoms: C4_4  and  C5_5 
REMARK    4  A    between atoms: C5_5  and  O1_6 
REMARK    5  A    between atoms: O1_6  and  C6_7 
REMARK    6  A    between atoms: C14_19  and  O2_20 
REMARK    7  A    between atoms: O2_20  and  C15_21 
REMARK    8  A    between atoms: C18_24  and  O3_25 
ROOT
HETATM    1  C6  UNL     1      25.239   2.296  52.043  1.00  0.00     0.098 C 
HETATM    2  C7  UNL     1      24.121   1.744  52.547  1.00  0.00     0.161 C 
HETATM    3  C8  UNL     1      22.683   1.971  52.396  1.00  0.00     0.100 C 
HETATM    4  N1  UNL     1      22.388   0.970  53.193  1.00  0.00    -0.258 NA
HETATM    5  C9  UNL     1      21.036   0.659  53.459  1.00  0.00     0.233 C 
HETATM    6  N2  UNL     1      20.488   0.341  52.319  1.00  0.00    -0.235 NA
HETATM    7  C10 UNL     1      21.224   0.346  51.084  1.00  0.00     0.233 C 
HETATM    8  N3  UNL     1      20.630   0.923  50.102  1.00  0.00    -0.253 NA
HETATM    9  C11 UNL     1      21.189   1.028  48.825  1.00  0.00     0.137 C 
HETATM   10  C12 UNL     1      22.069   1.988  48.480  1.00  0.00     0.135 C 
HETATM   11  N4  UNL     1      22.559   3.014  49.319  1.00  0.00    -0.273 NA
HETATM   12  C13 UNL     1      23.773   3.427  49.201  1.00  0.00     0.125 C 
HETATM   13  C14 UNL     1      24.370   4.514  50.060  1.00  0.00     0.187 C 
HETATM   14  C17 UNL     1      25.743   4.095  50.434  1.00  0.00     0.044 C 
HETATM   15  C18 UNL     1      26.160   3.170  51.259  1.00  0.00     0.072 C 
ENDROOT
BRANCH   1  16
HETATM   16  O1  UNL     1      25.800   1.303  52.883  1.00  0.00    -0.378 OA
BRANCH  16  17
HETATM   17  C5  UNL     1      25.874  -0.049  52.554  1.00  0.00     0.168 C 
BRANCH  17  18
HETATM   18  C4  UNL     1      27.302  -0.509  52.770  1.00  0.00     0.027 C 
BRANCH  18  19
HETATM   19  C3  UNL     1      27.899   0.342  53.862  1.00  0.00     0.007 C 
BRANCH  19  20
HETATM   20  C2  UNL     1      29.353   0.042  53.900  1.00  0.00    -0.010 C 
HETATM   21  C1  UNL     1      29.951  -1.092  53.618  1.00  0.00     0.005 C 
ENDBRANCH  19  20
ENDBRANCH  18  19
ENDBRANCH  17  18
ENDBRANCH  16  17
ENDBRANCH   1  16
BRANCH  15  22
HETATM   22  O3  UNL     1      27.496   2.914  51.485  1.00  0.00    -0.362 OA
HETATM   23  H24 UNL     1      27.884   2.151  52.006  1.00  0.00     0.217 HD
ENDBRANCH  15  22
BRANCH  13  24
HETATM   24  O2  UNL     1      24.428   5.641  49.233  1.00  0.00    -0.377 OA
BRANCH  24  25
HETATM   25  C15 UNL     1      25.230   6.599  49.864  1.00  0.00     0.164 C 
HETATM   26  C16 UNL     1      24.233   7.594  50.464  1.00  0.00     0.033 C 
ENDBRANCH  24  25
ENDBRANCH  13  24
TORSDOF 8
ENDMDL
MODEL 7
REMARK VINA RESULT:      -6.7      2.611      5.394
REMARK  8 active torsions:
REMARK  status: ('A' for Active; 'I' for Inactive)
REMARK    1  A    between atoms: C2_2  and  C3_3 
REMARK    2  A    between atoms: C3_3  and  C4_4 
REMARK    3  A    between atoms: C4_4  and  C5_5 
REMARK    4  A    between atoms: C5_5  and  O1_6 
REMARK    5  A    between atoms: O1_6  and  C6_7 
REMARK    6  A    between atoms: C14_19  and  O2_20 
REMARK    7  A    between atoms: O2_20  and  C15_21 
REMARK    8  A    between atoms: C18_24  and  O3_25 
ROOT
HETATM    1  C6  UNL     1      22.949   1.075  52.897  1.00  0.00     0.098 C 
HETATM    2  C7  UNL     1      22.653   2.338  52.542  1.00  0.00     0.161 C 
HETATM    3  C8  UNL     1      23.393   3.598  52.447  1.00  0.00     0.100 C 
HETATM    4  N1  UNL     1      22.342   4.240  51.991  1.00  0.00    -0.258 NA
HETATM    5  C9  UNL     1      22.441   5.615  51.679  1.00  0.00     0.233 C 
HETATM    6  N2  UNL     1      23.329   5.726  50.731  1.00  0.00    -0.235 NA
HETATM    7  C10 UNL     1      24.017   4.589  50.184  1.00  0.00     0.233 C 
HETATM    8  N3  UNL     1      25.288   4.733  50.060  1.00  0.00    -0.253 NA
HETATM    9  C11 UNL     1      26.125   3.736  49.550  1.00  0.00     0.137 C 
HETATM   10  C12 UNL     1      26.605   2.721  50.296  1.00  0.00     0.135 C 
HETATM   11  N4  UNL     1      26.353   2.499  51.668  1.00  0.00    -0.273 NA
HETATM   12  C13 UNL     1      26.244   1.300  52.124  1.00  0.00     0.125 C 
HETATM   13  C14 UNL     1      25.973   0.981  53.573  1.00  0.00     0.187 C 
HETATM   14  C17 UNL     1      24.981  -0.121  53.618  1.00  0.00     0.044 C 
HETATM   15  C18 UNL     1      23.702  -0.134  53.342  1.00  0.00     0.072 C 
ENDROOT
BRANCH   1  16
HETATM   16  O1  UNL     1      21.572   0.940  52.593  1.00  0.00    -0.378 OA
BRANCH  16  17
HETATM   17  C5  UNL     1      21.060   0.874  51.299  1.00  0.00     0.168 C 
BRANCH  17  18
HETATM   18  C4  UNL     1      19.656   0.306  51.376  1.00  0.00     0.027 C 
BRANCH  18  19
HETATM   19  C3  UNL     1      19.440  -0.195  52.781  1.00  0.00     0.007 C 
BRANCH  19  20
HETATM   20  C2  UNL     1      18.149  -0.929  52.786  1.00  0.00    -0.010 C 
HETATM   21  C1  UNL     1      17.844  -2.025  53.441  1.00  0.00     0.005 C 
ENDBRANCH  19  20
ENDBRANCH  18  19
ENDBRANCH  17  18
ENDBRANCH  16  17
ENDBRANCH   1  16
BRANCH  15  22
HETATM   22  O3  UNL     1      22.926  -1.269  53.439  1.00  0.00    -0.362 OA
HETATM   23  H24 UNL     1      23.191  -2.203  53.193  1.00  0.00     0.217 HD
ENDBRANCH  15  22
BRANCH  13  24
HETATM   24  O2  UNL     1      27.197   0.537  54.084  1.00  0.00    -0.377 OA
BRANCH  24  25
HETATM   25  C15 UNL     1      27.651  -0.508  53.271  1.00  0.00     0.164 C 
HETATM   26  C16 UNL     1      29.157  -0.572  53.537  1.00  0.00     0.033 C 
ENDBRANCH  24  25
ENDBRANCH  13  24
TORSDOF 8
ENDMDL
MODEL 8
REMARK VINA RESULT:      -6.5      2.853      6.906
REMARK  8 active torsions:
REMARK  status: ('A' for Active; 'I' for Inactive)
REMARK    1  A    between atoms: C2_2  and  C3_3 
REMARK    2  A    between atoms: C3_3  and  C4_4 
REMARK    3  A    between atoms: C4_4  and  C5_5 
REMARK    4  A    between atoms: C5_5  and  O1_6 
REMARK    5  A    between atoms: O1_6  and  C6_7 
REMARK    6  A    between atoms: C14_19  and  O2_20 
REMARK    7  A    between atoms: O2_20  and  C15_21 
REMARK    8  A    between atoms: C18_24  and  O3_25 
ROOT
HETATM    1  C6  UNL     1      23.984   2.979  50.807  1.00  0.00     0.098 C 
HETATM    2  C7  UNL     1      24.805   2.411  51.708  1.00  0.00     0.161 C 
HETATM    3  C8  UNL     1      24.684   1.960  53.096  1.00  0.00     0.100 C 
HETATM    4  N1  UNL     1      25.920   1.520  53.116  1.00  0.00    -0.258 NA
HETATM    5  C9  UNL     1      26.433   0.919  54.287  1.00  0.00     0.233 C 
HETATM    6  N2  UNL     1      25.706  -0.139  54.520  1.00  0.00    -0.235 NA
HETATM    7  C10 UNL     1      24.609  -0.521  53.672  1.00  0.00     0.233 C 
HETATM    8  N3  UNL     1      23.529  -0.835  54.293  1.00  0.00    -0.253 NA
HETATM    9  C11 UNL     1      22.358  -1.230  53.638  1.00  0.00     0.137 C 
HETATM   10  C12 UNL     1      21.468  -0.358  53.126  1.00  0.00     0.135 C 
HETATM   11  N4  UNL     1      21.562   1.052  53.161  1.00  0.00    -0.273 NA
HETATM   12  C13 UNL     1      21.130   1.757  52.175  1.00  0.00     0.125 C 
HETATM   13  C14 UNL     1      21.197   3.264  52.136  1.00  0.00     0.187 C 
HETATM   14  C17 UNL     1      21.616   3.665  50.771  1.00  0.00     0.044 C 
HETATM   15  C18 UNL     1      22.772   3.566  50.166  1.00  0.00     0.072 C 
ENDROOT
BRANCH   1  16
HETATM   16  O1  UNL     1      25.176   2.890  50.048  1.00  0.00    -0.378 OA
BRANCH  16  17
HETATM   17  C5  UNL     1      26.315   3.657  50.287  1.00  0.00     0.168 C 
BRANCH  17  18
HETATM   18  C4  UNL     1      26.314   4.818  49.312  1.00  0.00     0.027 C 
BRANCH  18  19
HETATM   19  C3  UNL     1      27.652   4.835  48.617  1.00  0.00     0.007 C 
BRANCH  19  20
HETATM   20  C2  UNL     1      27.924   6.244  48.234  1.00  0.00    -0.010 C 
HETATM   21  C1  UNL     1      29.066   6.775  47.865  1.00  0.00     0.005 C 
ENDBRANCH  19  20
ENDBRANCH  18  19
ENDBRANCH  17  18
ENDBRANCH  16  17
ENDBRANCH   1  16
BRANCH  15  22
HETATM   22  O3  UNL     1      22.980   3.997  48.873  1.00  0.00    -0.362 OA
HETATM   23  H24 UNL     1      22.586   3.609  48.037  1.00  0.00     0.217 HD
ENDBRANCH  15  22
BRANCH  13  24
HETATM   24  O2  UNL     1      19.888   3.693  52.376  1.00  0.00    -0.377 OA
BRANCH  24  25
HETATM   25  C15 UNL     1      19.224   3.763  51.145  1.00  0.00     0.164 C 
HETATM   26  C16 UNL     1      17.766   3.439  51.479  1.00  0.00     0.033 C 
ENDBRANCH  24  25
ENDBRANCH  13  24
TORSDOF 8
ENDMDL
MODEL 9
REMARK VINA RESULT:      -6.3      3.221      6.461
REMARK  8 active torsions:
REMARK  status: ('A' for Active; 'I' for Inactive)
REMARK    1  A    between atoms: C2_2  and  C3_3 
REMARK    2  A    between atoms: C3_3  and  C4_4 
REMARK    3  A    between atoms: C4_4  and  C5_5 
REMARK    4  A    between atoms: C5_5  and  O1_6 
REMARK    5  A    between atoms: O1_6  and  C6_7 
REMARK    6  A    between atoms: C14_19  and  O2_20 
REMARK    7  A    between atoms: O2_20  and  C15_21 
REMARK    8  A    between atoms: C18_24  and  O3_25 
ROOT
HETATM    1  C6  UNL     1      24.610   1.802  51.829  1.00  0.00     0.098 C 
HETATM    2  C7  UNL     1      25.409   2.561  51.058  1.00  0.00     0.161 C 
HETATM    3  C8  UNL     1      25.215   3.467  49.925  1.00  0.00     0.100 C 
HETATM    4  N1  UNL     1      26.492   3.766  49.878  1.00  0.00    -0.258 NA
HETATM    5  C9  UNL     1      26.965   4.678  48.907  1.00  0.00     0.233 C 
HETATM    6  N2  UNL     1      26.371   5.817  49.136  1.00  0.00    -0.235 NA
HETATM    7  C10 UNL     1      25.426   5.990  50.206  1.00  0.00     0.233 C 
HETATM    8  N3  UNL     1      24.344   6.600  49.878  1.00  0.00    -0.253 NA
HETATM    9  C11 UNL     1      23.308   6.859  50.782  1.00  0.00     0.137 C 
HETATM   10  C12 UNL     1      22.361   5.955  51.099  1.00  0.00     0.135 C 
HETATM   11  N4  UNL     1      22.256   4.640  50.594  1.00  0.00    -0.273 NA
HETATM   12  C13 UNL     1      21.831   3.686  51.345  1.00  0.00     0.125 C 
HETATM   13  C14 UNL     1      21.694   2.257  50.881  1.00  0.00     0.187 C 
HETATM   14  C17 UNL     1      22.186   1.376  51.968  1.00  0.00     0.044 C 
HETATM   15  C18 UNL     1      23.398   1.151  52.406  1.00  0.00     0.072 C 
ENDROOT
BRANCH   1  16
HETATM   16  O1  UNL     1      25.872   1.511  52.402  1.00  0.00    -0.378 OA
BRANCH  16  17
HETATM   17  C5  UNL     1      26.812   0.655  51.831  1.00  0.00     0.168 C 
BRANCH  17  18
HETATM   18  C4  UNL     1      27.117  -0.444  52.831  1.00  0.00     0.027 C 
BRANCH  18  19
HETATM   19  C3  UNL     1      27.551   0.213  54.117  1.00  0.00     0.007 C 
BRANCH  19  20
HETATM   20  C2  UNL     1      28.950  -0.214  54.372  1.00  0.00    -0.010 C 
HETATM   21  C1  UNL     1      29.757  -0.862  53.564  1.00  0.00     0.005 C 
ENDBRANCH  19  20
ENDBRANCH  18  19
ENDBRANCH  17  18
ENDBRANCH  16  17
ENDBRANCH   1  16
BRANCH  15  22
HETATM   22  O3  UNL     1      23.671   0.288  53.445  1.00  0.00    -0.362 OA
HETATM   23  H24 UNL     1      24.549   0.167  53.913  1.00  0.00     0.217 HD
ENDBRANCH  15  22
BRANCH  13  24
HETATM   24  O2  UNL     1      20.321   2.063  50.698  1.00  0.00    -0.377 OA
BRANCH  24  25
HETATM   25  C15 UNL     1      20.141   1.329  49.520  1.00  0.00     0.164 C 
HETATM   26  C16 UNL     1      20.088   2.387  48.416  1.00  0.00     0.033 C 
ENDBRANCH  24  25
ENDBRANCH  13  24
TORSDOF 8
ENDMDL
