MODEL 1
REMARK VINA RESULT:      -7.1      0.000      0.000
REMARK  6 active torsions:
REMARK  status: ('A' for Active; 'I' for Inactive)
REMARK    1  A    between atoms: C3_3  and  C5_5 
REMARK    2  A    between atoms: C6_6  and  C7_7 
REMARK    3  A    between atoms: C7_7  and  C8_8 
REMARK    4  A    between atoms: C9_11  and  S1_12 
REMARK    5  A    between atoms: S1_12  and  C10_13 
REMARK    6  A    between atoms: C10_13  and  C11_14 
ROOT
HETATM    1  C8  UNL     1      24.195  -1.073  54.983  1.00  0.00     0.173 A 
HETATM    2  N1  UNL     1      25.300  -1.020  55.748  1.00  0.00    -0.126 NA
HETATM    3  N2  UNL     1      26.343  -0.662  55.016  1.00  0.00    -0.114 NA
HETATM    4  C9  UNL     1      25.887  -0.484  53.755  1.00  0.00     0.231 A 
HETATM    5  O1  UNL     1      24.604  -0.740  53.782  1.00  0.00    -0.268 OA
ENDROOT
BRANCH   4   6
HETATM    6  S1  UNL     1      26.634  -0.009  52.191  1.00  0.00    -0.078 SA
BRANCH   6   7
HETATM    7  C10 UNL     1      26.999   1.768  52.169  1.00  0.00     0.121 C 
BRANCH   7   8
HETATM    8  C11 UNL     1      26.054   2.413  51.222  1.00  0.00    -0.049 A 
HETATM    9  C12 UNL     1      24.717   2.114  51.322  1.00  0.00     0.008 A 
HETATM   10  C13 UNL     1      23.865   2.728  50.431  1.00  0.00     0.001 A 
HETATM   11  C14 UNL     1      24.364   3.597  49.493  1.00  0.00     0.000 A 
HETATM   12  C15 UNL     1      25.718   3.903  49.388  1.00  0.00     0.001 A 
HETATM   13  C16 UNL     1      26.553   3.275  50.293  1.00  0.00     0.008 A 
ENDBRANCH   7   8
ENDBRANCH   6   7
ENDBRANCH   4   6
BRANCH   1  14
HETATM   14  C7  UNL     1      22.769  -1.416  55.292  1.00  0.00     0.115 C 
BRANCH  14  15
HETATM   15  C6  UNL     1      21.845  -0.509  54.610  1.00  0.00    -0.018 C 
HETATM   16  C5  UNL     1      21.162  -0.838  53.522  1.00  0.00     0.003 C 
BRANCH  16  17
HETATM   17  C3  UNL     1      20.204  -0.037  52.732  1.00  0.00    -0.066 C 
HETATM   18  C2  UNL     1      18.911  -0.310  52.651  1.00  0.00    -0.024 C 
HETATM   19  C1  UNL     1      18.440  -1.497  53.411  1.00  0.00     0.036 C 
HETATM   20  C4  UNL     1      20.917   1.101  52.060  1.00  0.00     0.048 C 
ENDBRANCH  16  17
ENDBRANCH  14  15
ENDBRANCH   1  14
TORSDOF 6
ENDMDL
MODEL 2
REMARK VINA RESULT:      -7.1      2.713      5.380
REMARK  6 active torsions:
REMARK  status: ('A' for Active; 'I' for Inactive)
REMARK    1  A    between atoms: C3_3  and  C5_5 
REMARK    2  A    between atoms: C6_6  and  C7_7 
REMARK    3  A    between atoms: C7_7  and  C8_8 
REMARK    4  A    between atoms: C9_11  and  S1_12 
REMARK    5  A    between atoms: S1_12  and  C10_13 
REMARK    6  A    between atoms: C10_13  and  C11_14 
ROOT
HETATM    1  C8  UNL     1      23.898  -0.237  53.528  1.00  0.00     0.173 A 
HETATM    2  N1  UNL     1      22.740  -0.843  53.210  1.00  0.00    -0.126 NA
HETATM    3  N2  UNL     1      22.054  -0.097  52.360  1.00  0.00    -0.114 NA
HETATM    4  C9  UNL     1      22.798   1.010  52.132  1.00  0.00     0.231 A 
HETATM    5  O1  UNL     1      23.886   0.884  52.848  1.00  0.00    -0.268 OA
ENDROOT
BRANCH   4   6
HETATM    6  S1  UNL     1      22.598   2.488  51.128  1.00  0.00    -0.078 SA
BRANCH   6   7
HETATM    7  C10 UNL     1      23.616   3.843  51.773  1.00  0.00     0.121 C 
BRANCH   7   8
HETATM    8  C11 UNL     1      24.742   4.056  50.827  1.00  0.00    -0.049 A 
HETATM    9  C12 UNL     1      24.914   5.305  50.281  1.00  0.00     0.008 A 
HETATM   10  C13 UNL     1      25.966   5.472  49.408  1.00  0.00     0.001 A 
HETATM   11  C14 UNL     1      26.789   4.413  49.115  1.00  0.00     0.000 A 
HETATM   12  C15 UNL     1      26.617   3.145  49.666  1.00  0.00     0.001 A 
HETATM   13  C16 UNL     1      25.556   3.003  50.539  1.00  0.00     0.008 A 
ENDBRANCH   7   8
ENDBRANCH   6   7
ENDBRANCH   4   6
BRANCH   1  14
HETATM   14  C7  UNL     1      25.030  -0.631  54.428  1.00  0.00     0.115 C 
BRANCH  14  15
HETATM   15  C6  UNL     1      26.157   0.295  54.302  1.00  0.00    -0.018 C 
HETATM   16  C5  UNL     1      27.326  -0.038  53.773  1.00  0.00     0.003 C 
BRANCH  16  17
HETATM   17  C3  UNL     1      28.542   0.779  53.581  1.00  0.00    -0.066 C 
HETATM   18  C2  UNL     1      29.763   0.273  53.518  1.00  0.00    -0.024 C 
HETATM   19  C1  UNL     1      29.872  -1.203  53.652  1.00  0.00     0.036 C 
HETATM   20  C4  UNL     1      28.172   2.230  53.474  1.00  0.00     0.048 C 
ENDBRANCH  16  17
ENDBRANCH  14  15
ENDBRANCH   1  14
TORSDOF 6
ENDMDL
MODEL 3
REMARK VINA RESULT:      -7.0      2.441      4.945
REMARK  6 active torsions:
REMARK  status: ('A' for Active; 'I' for Inactive)
REMARK    1  A    between atoms: C3_3  and  C5_5 
REMARK    2  A    between atoms: C6_6  and  C7_7 
REMARK    3  A    between atoms: C7_7  and  C8_8 
REMARK    4  A    between atoms: C9_11  and  S1_12 
REMARK    5  A    between atoms: S1_12  and  C10_13 
REMARK    6  A    between atoms: C10_13  and  C11_14 
ROOT
HETATM    1  C8  UNL     1      21.297  -0.473  53.321  1.00  0.00     0.173 A 
HETATM    2  N1  UNL     1      21.012  -1.174  54.433  1.00  0.00    -0.126 NA
HETATM    3  N2  UNL     1      22.122  -1.434  55.105  1.00  0.00    -0.114 NA
HETATM    4  C9  UNL     1      23.137  -0.883  54.400  1.00  0.00     0.231 A 
HETATM    5  O1  UNL     1      22.600  -0.322  53.346  1.00  0.00    -0.268 OA
ENDROOT
BRANCH   4   6
HETATM    6  S1  UNL     1      24.919  -0.782  54.610  1.00  0.00    -0.078 SA
BRANCH   6   7
HETATM    7  C10 UNL     1      25.730  -0.397  53.034  1.00  0.00     0.121 C 
BRANCH   7   8
HETATM    8  C11 UNL     1      27.188  -0.619  53.206  1.00  0.00    -0.049 A 
HETATM    9  C12 UNL     1      27.694  -1.873  52.965  1.00  0.00     0.008 A 
HETATM   10  C13 UNL     1      29.050  -2.049  53.133  1.00  0.00     0.001 A 
HETATM   11  C14 UNL     1      29.835  -0.994  53.528  1.00  0.00     0.000 A 
HETATM   12  C15 UNL     1      29.325   0.279  53.773  1.00  0.00     0.001 A 
HETATM   13  C16 UNL     1      27.963   0.431  53.597  1.00  0.00     0.008 A 
ENDBRANCH   7   8
ENDBRANCH   6   7
ENDBRANCH   4   6
BRANCH   1  14
HETATM   14  C7  UNL     1      20.435   0.074  52.224  1.00  0.00     0.115 C 
BRANCH  14  15
HETATM   15  C6  UNL     1      21.221   0.359  51.023  1.00  0.00    -0.018 C 
HETATM   16  C5  UNL     1      21.557   1.583  50.639  1.00  0.00     0.003 C 
BRANCH  16  17
HETATM   17  C3  UNL     1      22.338   2.022  49.463  1.00  0.00    -0.066 C 
HETATM   18  C2  UNL     1      23.416   2.785  49.542  1.00  0.00    -0.024 C 
HETATM   19  C1  UNL     1      23.829   3.202  50.907  1.00  0.00     0.036 C 
HETATM   20  C4  UNL     1      21.724   1.474  48.207  1.00  0.00     0.048 C 
ENDBRANCH  16  17
ENDBRANCH  14  15
ENDBRANCH   1  14
TORSDOF 6
ENDMDL
MODEL 4
REMARK VINA RESULT:      -7.0      3.027      6.780
REMARK  6 active torsions:
REMARK  status: ('A' for Active; 'I' for Inactive)
REMARK    1  A    between atoms: C3_3  and  C5_5 
REMARK    2  A    between atoms: C6_6  and  C7_7 
REMARK    3  A    between atoms: C7_7  and  C8_8 
REMARK    4  A    between atoms: C9_11  and  S1_12 
REMARK    5  A    between atoms: S1_12  and  C10_13 
REMARK    6  A    between atoms: C10_13  and  C11_14 
ROOT
HETATM    1  C8  UNL     1      25.051   3.311  50.908  1.00  0.00     0.173 A 
HETATM    2  N1  UNL     1      24.563   4.554  51.072  1.00  0.00    -0.126 NA
HETATM    3  N2  UNL     1      23.276   4.501  51.374  1.00  0.00    -0.114 NA
HETATM    4  C9  UNL     1      22.940   3.191  51.404  1.00  0.00     0.231 A 
HETATM    5  O1  UNL     1      24.027   2.519  51.120  1.00  0.00    -0.268 OA
ENDROOT
BRANCH   4   6
HETATM    6  S1  UNL     1      21.427   2.276  51.727  1.00  0.00    -0.078 SA
BRANCH   6   7
HETATM    7  C10 UNL     1      21.670   0.505  51.421  1.00  0.00     0.121 C 
BRANCH   7   8
HETATM    8  C11 UNL     1      21.984  -0.142  52.720  1.00  0.00    -0.049 A 
HETATM    9  C12 UNL     1      20.963  -0.739  53.420  1.00  0.00     0.008 A 
HETATM   10  C13 UNL     1      21.284  -1.331  54.621  1.00  0.00     0.001 A 
HETATM   11  C14 UNL     1      22.580  -1.308  55.073  1.00  0.00     0.000 A 
HETATM   12  C15 UNL     1      23.618  -0.704  54.367  1.00  0.00     0.001 A 
HETATM   13  C16 UNL     1      23.271  -0.117  53.164  1.00  0.00     0.008 A 
ENDBRANCH   7   8
ENDBRANCH   6   7
ENDBRANCH   4   6
BRANCH   1  14
HETATM   14  C7  UNL     1      26.418   2.800  50.565  1.00  0.00     0.115 C 
BRANCH  14  15
HETATM   15  C6  UNL     1      26.650   1.475  51.141  1.00  0.00    -0.018 C 
HETATM   16  C5  UNL     1      27.214   1.278  52.325  1.00  0.00     0.003 C 
BRANCH  16  17
HETATM   17  C3  UNL     1      27.511   0.013  53.029  1.00  0.00    -0.066 C 
HETATM   18  C2  UNL     1      28.371  -0.084  54.031  1.00  0.00    -0.024 C 
HETATM   19  C1  UNL     1      29.053   1.172  54.438  1.00  0.00     0.036 C 
HETATM   20  C4  UNL     1      26.702  -1.105  52.438  1.00  0.00     0.048 C 
ENDBRANCH  16  17
ENDBRANCH  14  15
ENDBRANCH   1  14
TORSDOF 6
ENDMDL
MODEL 5
REMARK VINA RESULT:      -6.9      2.684      4.618
REMARK  6 active torsions:
REMARK  status: ('A' for Active; 'I' for Inactive)
REMARK    1  A    between atoms: C3_3  and  C5_5 
REMARK    2  A    between atoms: C6_6  and  C7_7 
REMARK    3  A    between atoms: C7_7  and  C8_8 
REMARK    4  A    between atoms: C9_11  and  S1_12 
REMARK    5  A    between atoms: S1_12  and  C10_13 
REMARK    6  A    between atoms: C10_13  and  C11_14 
ROOT
HETATM    1  C8  UNL     1      23.111   2.032  51.242  1.00  0.00     0.173 A 
HETATM    2  N1  UNL     1      23.406   3.343  51.304  1.00  0.00    -0.126 NA
HETATM    3  N2  UNL     1      24.405   3.546  52.149  1.00  0.00    -0.114 NA
HETATM    4  C9  UNL     1      24.751   2.331  52.634  1.00  0.00     0.231 A 
HETATM    5  O1  UNL     1      23.955   1.460  52.068  1.00  0.00    -0.268 OA
ENDROOT
BRANCH   4   6
HETATM    6  S1  UNL     1      25.982   1.735  53.802  1.00  0.00    -0.078 SA
BRANCH   6   7
HETATM    7  C10 UNL     1      27.576   1.476  52.977  1.00  0.00     0.121 C 
BRANCH   7   8
HETATM    8  C11 UNL     1      27.850   0.017  52.966  1.00  0.00    -0.049 A 
HETATM    9  C12 UNL     1      26.864  -0.833  52.524  1.00  0.00     0.008 A 
HETATM   10  C13 UNL     1      27.147  -2.181  52.525  1.00  0.00     0.001 A 
HETATM   11  C14 UNL     1      28.373  -2.625  52.957  1.00  0.00     0.000 A 
HETATM   12  C15 UNL     1      29.374  -1.766  53.406  1.00  0.00     0.001 A 
HETATM   13  C16 UNL     1      29.067  -0.419  53.395  1.00  0.00     0.008 A 
ENDBRANCH   7   8
ENDBRANCH   6   7
ENDBRANCH   4   6
BRANCH   1  14
HETATM   14  C7  UNL     1      22.089   1.263  50.461  1.00  0.00     0.115 C 
BRANCH  14  15
HETATM   15  C6  UNL     1      21.481   0.209  51.275  1.00  0.00    -0.018 C 
HETATM   16  C5  UNL     1      20.952   0.418  52.472  1.00  0.00     0.003 C 
BRANCH  16  17
HETATM   17  C3  UNL     1      20.311  -0.537  53.400  1.00  0.00    -0.066 C 
HETATM   18  C2  UNL     1      20.944  -1.120  54.406  1.00  0.00    -0.024 C 
HETATM   19  C1  UNL     1      22.377  -0.767  54.575  1.00  0.00     0.036 C 
HETATM   20  C4  UNL     1      18.870  -0.728  53.024  1.00  0.00     0.048 C 
ENDBRANCH  16  17
ENDBRANCH  14  15
ENDBRANCH   1  14
TORSDOF 6
ENDMDL
MODEL 6
REMARK VINA RESULT:      -6.9      1.980      5.261
REMARK  6 active torsions:
REMARK  status: ('A' for Active; 'I' for Inactive)
REMARK    1  A    between atoms: C3_3  and  C5_5 
REMARK    2  A    between atoms: C6_6  and  C7_7 
REMARK    3  A    between atoms: C7_7  and  C8_8 
REMARK    4  A    between atoms: C9_11  and  S1_12 
REMARK    5  A    between atoms: S1_12  and  C10_13 
REMARK    6  A    between atoms: C10_13  and  C11_14 
ROOT
HETATM    1  C8  UNL     1      26.852   2.438  51.391  1.00  0.00     0.173 A 
HETATM    2  N1  UNL     1      27.871   2.461  52.269  1.00  0.00    -0.126 NA
HETATM    3  N2  UNL     1      27.846   1.375  53.024  1.00  0.00    -0.114 NA
HETATM    4  C9  UNL     1      26.784   0.644  52.613  1.00  0.00     0.231 A 
HETATM    5  O1  UNL     1      26.222   1.315  51.640  1.00  0.00    -0.268 OA
ENDROOT
BRANCH   4   6
HETATM    6  S1  UNL     1      26.061  -0.928  53.101  1.00  0.00    -0.078 SA
BRANCH   6   7
HETATM    7  C10 UNL     1      25.048  -0.731  54.593  1.00  0.00     0.121 C 
BRANCH   7   8
HETATM    8  C11 UNL     1      23.625  -0.668  54.171  1.00  0.00    -0.049 A 
HETATM    9  C12 UNL     1      22.676  -1.256  54.972  1.00  0.00     0.008 A 
HETATM   10  C13 UNL     1      21.365  -1.182  54.556  1.00  0.00     0.001 A 
HETATM   11  C14 UNL     1      21.054  -0.541  53.382  1.00  0.00     0.000 A 
HETATM   12  C15 UNL     1      22.013   0.056  52.567  1.00  0.00     0.001 A 
HETATM   13  C16 UNL     1      23.321  -0.031  53.006  1.00  0.00     0.008 A 
ENDBRANCH   7   8
ENDBRANCH   6   7
ENDBRANCH   4   6
BRANCH   1  14
HETATM   14  C7  UNL     1      26.416   3.396  50.323  1.00  0.00     0.115 C 
BRANCH  14  15
HETATM   15  C6  UNL     1      25.104   3.033  49.787  1.00  0.00    -0.018 C 
HETATM   16  C5  UNL     1      23.959   3.317  50.392  1.00  0.00     0.003 C 
BRANCH  16  17
HETATM   17  C3  UNL     1      22.573   3.018  49.976  1.00  0.00    -0.066 C 
HETATM   18  C2  UNL     1      21.516   3.223  50.746  1.00  0.00    -0.024 C 
HETATM   19  C1  UNL     1      21.783   3.784  52.096  1.00  0.00     0.036 C 
HETATM   20  C4  UNL     1      22.565   2.463  48.581  1.00  0.00     0.048 C 
ENDBRANCH  16  17
ENDBRANCH  14  15
ENDBRANCH   1  14
TORSDOF 6
ENDMDL
MODEL 7
REMARK VINA RESULT:      -6.9      3.577      6.043
REMARK  6 active torsions:
REMARK  status: ('A' for Active; 'I' for Inactive)
REMARK    1  A    between atoms: C3_3  and  C5_5 
REMARK    2  A    between atoms: C6_6  and  C7_7 
REMARK    3  A    between atoms: C7_7  and  C8_8 
REMARK    4  A    between atoms: C9_11  and  S1_12 
REMARK    5  A    between atoms: S1_12  and  C10_13 
REMARK    6  A    between atoms: C10_13  and  C11_14 
ROOT
HETATM    1  C8  UNL     1      24.464   1.170  52.662  1.00  0.00     0.173 A 
HETATM    2  N1  UNL     1      23.194   1.481  52.978  1.00  0.00    -0.126 NA
HETATM    3  N2  UNL     1      22.903   2.699  52.550  1.00  0.00    -0.114 NA
HETATM    4  C9  UNL     1      24.018   3.172  51.947  1.00  0.00     0.231 A 
HETATM    5  O1  UNL     1      24.922   2.229  52.037  1.00  0.00    -0.268 OA
ENDROOT
BRANCH   4   6
HETATM    6  S1  UNL     1      24.460   4.706  51.121  1.00  0.00    -0.078 SA
BRANCH   6   7
HETATM    7  C10 UNL     1      24.679   4.436  49.341  1.00  0.00     0.121 C 
BRANCH   7   8
HETATM    8  C11 UNL     1      25.921   5.136  48.925  1.00  0.00    -0.049 A 
HETATM    9  C12 UNL     1      27.105   4.438  48.942  1.00  0.00     0.008 A 
HETATM   10  C13 UNL     1      28.240   5.113  48.551  1.00  0.00     0.001 A 
HETATM   11  C14 UNL     1      28.158   6.428  48.166  1.00  0.00     0.000 A 
HETATM   12  C15 UNL     1      26.960   7.139  48.147  1.00  0.00     0.001 A 
HETATM   13  C16 UNL     1      25.835   6.440  48.543  1.00  0.00     0.008 A 
ENDBRANCH   7   8
ENDBRANCH   6   7
ENDBRANCH   4   6
BRANCH   1  14
HETATM   14  C7  UNL     1      25.293  -0.055  52.901  1.00  0.00     0.115 C 
BRANCH  14  15
HETATM   15  C6  UNL     1      26.723   0.244  52.808  1.00  0.00    -0.018 C 
HETATM   16  C5  UNL     1      27.585   0.023  53.791  1.00  0.00     0.003 C 
BRANCH  16  17
HETATM   17  C3  UNL     1      29.041   0.272  53.843  1.00  0.00    -0.066 C 
HETATM   18  C2  UNL     1      29.953  -0.659  53.612  1.00  0.00    -0.024 C 
HETATM   19  C1  UNL     1      29.441  -2.016  53.287  1.00  0.00     0.036 C 
HETATM   20  C4  UNL     1      29.303   1.709  54.189  1.00  0.00     0.048 C 
ENDBRANCH  16  17
ENDBRANCH  14  15
ENDBRANCH   1  14
TORSDOF 6
ENDMDL
MODEL 8
REMARK VINA RESULT:      -6.7      1.613      2.587
REMARK  6 active torsions:
REMARK  status: ('A' for Active; 'I' for Inactive)
REMARK    1  A    between atoms: C3_3  and  C5_5 
REMARK    2  A    between atoms: C6_6  and  C7_7 
REMARK    3  A    between atoms: C7_7  and  C8_8 
REMARK    4  A    between atoms: C9_11  and  S1_12 
REMARK    5  A    between atoms: S1_12  and  C10_13 
REMARK    6  A    between atoms: C10_13  and  C11_14 
ROOT
HETATM    1  C8  UNL     1      22.353  -1.022  54.430  1.00  0.00     0.173 A 
HETATM    2  N1  UNL     1      22.859  -1.527  55.570  1.00  0.00    -0.126 NA
HETATM    3  N2  UNL     1      24.175  -1.389  55.585  1.00  0.00    -0.114 NA
HETATM    4  C9  UNL     1      24.511  -0.779  54.424  1.00  0.00     0.231 A 
HETATM    5  O1  UNL     1      23.397  -0.581  53.768  1.00  0.00    -0.268 OA
ENDROOT
BRANCH   4   6
HETATM    6  S1  UNL     1      26.055  -0.240  53.676  1.00  0.00    -0.078 SA
BRANCH   6   7
HETATM    7  C10 UNL     1      26.282   1.546  53.893  1.00  0.00     0.121 C 
BRANCH   7   8
HETATM    8  C11 UNL     1      25.418   2.238  52.902  1.00  0.00    -0.049 A 
HETATM    9  C12 UNL     1      25.673   2.049  51.565  1.00  0.00     0.008 A 
HETATM   10  C13 UNL     1      24.856   2.702  50.669  1.00  0.00     0.001 A 
HETATM   11  C14 UNL     1      23.838   3.503  51.126  1.00  0.00     0.000 A 
HETATM   12  C15 UNL     1      23.578   3.697  52.480  1.00  0.00     0.001 A 
HETATM   13  C16 UNL     1      24.410   3.030  53.359  1.00  0.00     0.008 A 
ENDBRANCH   7   8
ENDBRANCH   6   7
ENDBRANCH   4   6
BRANCH   1  14
HETATM   14  C7  UNL     1      20.953  -0.919  53.905  1.00  0.00     0.115 C 
BRANCH  14  15
HETATM   15  C6  UNL     1      20.708   0.390  53.299  1.00  0.00    -0.018 C 
HETATM   16  C5  UNL     1      20.752   0.615  51.993  1.00  0.00     0.003 C 
BRANCH  16  17
HETATM   17  C3  UNL     1      20.530   1.869  51.243  1.00  0.00    -0.066 C 
HETATM   18  C2  UNL     1      20.830   2.022  49.964  1.00  0.00    -0.024 C 
HETATM   19  C1  UNL     1      21.422   0.842  49.281  1.00  0.00     0.036 C 
HETATM   20  C4  UNL     1      19.925   2.905  52.147  1.00  0.00     0.048 C 
ENDBRANCH  16  17
ENDBRANCH  14  15
ENDBRANCH   1  14
TORSDOF 6
ENDMDL
MODEL 9
REMARK VINA RESULT:      -6.7      3.443      7.751
REMARK  6 active torsions:
REMARK  status: ('A' for Active; 'I' for Inactive)
REMARK    1  A    between atoms: C3_3  and  C5_5 
REMARK    2  A    between atoms: C6_6  and  C7_7 
REMARK    3  A    between atoms: C7_7  and  C8_8 
REMARK    4  A    between atoms: C9_11  and  S1_12 
REMARK    5  A    between atoms: S1_12  and  C10_13 
REMARK    6  A    between atoms: C10_13  and  C11_14 
ROOT
HETATM    1  C8  UNL     1      25.156   2.982  50.627  1.00  0.00     0.173 A 
HETATM    2  N1  UNL     1      24.057   3.751  50.738  1.00  0.00    -0.126 NA
HETATM    3  N2  UNL     1      23.234   3.242  51.641  1.00  0.00    -0.114 NA
HETATM    4  C9  UNL     1      23.827   2.122  52.114  1.00  0.00     0.231 A 
HETATM    5  O1  UNL     1      24.968   2.006  51.483  1.00  0.00    -0.268 OA
ENDROOT
BRANCH   4   6
HETATM    6  S1  UNL     1      23.390   0.873  53.332  1.00  0.00    -0.078 SA
BRANCH   6   7
HETATM    7  C10 UNL     1      24.246  -0.688  52.985  1.00  0.00     0.121 C 
BRANCH   7   8
HETATM    8  C11 UNL     1      25.664  -0.530  53.400  1.00  0.00    -0.049 A 
HETATM    9  C12 UNL     1      25.936   0.154  54.560  1.00  0.00     0.008 A 
HETATM   10  C13 UNL     1      27.259   0.284  54.920  1.00  0.00     0.001 A 
HETATM   11  C14 UNL     1      28.241  -0.259  54.129  1.00  0.00     0.000 A 
HETATM   12  C15 UNL     1      27.969  -0.953  52.952  1.00  0.00     0.001 A 
HETATM   13  C16 UNL     1      26.635  -1.071  52.613  1.00  0.00     0.008 A 
ENDBRANCH   7   8
ENDBRANCH   6   7
ENDBRANCH   4   6
BRANCH   1  14
HETATM   14  C7  UNL     1      26.382   3.091  49.773  1.00  0.00     0.115 C 
BRANCH  14  15
HETATM   15  C6  UNL     1      26.604   4.469  49.334  1.00  0.00    -0.018 C 
HETATM   16  C5  UNL     1      27.660   4.856  48.632  1.00  0.00     0.003 C 
BRANCH  16  17
HETATM   17  C3  UNL     1      28.015   6.197  48.123  1.00  0.00    -0.066 C 
HETATM   18  C2  UNL     1      29.245   6.553  47.788  1.00  0.00    -0.024 C 
HETATM   19  C1  UNL     1      30.297   5.515  47.948  1.00  0.00     0.036 C 
HETATM   20  C4  UNL     1      26.788   7.060  48.052  1.00  0.00     0.048 C 
ENDBRANCH  16  17
ENDBRANCH  14  15
ENDBRANCH   1  14
TORSDOF 6
ENDMDL
