MODEL 1
REMARK VINA RESULT:      -8.7      0.000      0.000
REMARK  1 active torsions:
REMARK  status: ('A' for Active; 'I' for Inactive)
REMARK    1  A    between atoms: O1_2  and  C2_3 
ROOT
HETATM    1  C2  UNL     1      26.304  -0.098  54.234  1.00  0.00     0.069 A 
HETATM    2  C3  UNL     1      25.104  -0.782  54.352  1.00  0.00     0.039 A 
HETATM    3  C4  UNL     1      23.998  -0.342  53.649  1.00  0.00     0.040 A 
HETATM    4  C5  UNL     1      24.086   0.776  52.827  1.00  0.00     0.077 A 
HETATM    5  C6  UNL     1      25.270   1.472  52.693  1.00  0.00    -0.003 A 
HETATM    6  C7  UNL     1      26.381   1.019  53.409  1.00  0.00     0.048 A 
HETATM    7  C8  UNL     1      25.650   2.673  51.906  1.00  0.00     0.184 C 
HETATM    8  N1  UNL     1      24.542   3.349  51.334  1.00  0.00    -0.312 N 
HETATM    9  N2  UNL     1      23.971   4.355  52.066  1.00  0.00    -0.295 N 
HETATM   10  C9  UNL     1      23.942   5.671  51.473  1.00  0.00     0.234 C 
HETATM   11  N3  UNL     1      23.624   6.826  50.947  1.00  0.00    -0.187 NA
HETATM   12  S1  UNL     1      21.931   7.232  50.733  1.00  0.00     0.116 SA
HETATM   13  N4  UNL     1      21.745   8.413  49.478  1.00  0.00    -0.200 NA
HETATM   14  P1  UNL     1      22.477   8.260  48.039  1.00  0.00     0.075 P 
HETATM   15  C10 UNL     1      23.565   6.774  47.679  1.00  0.00     0.094 C 
HETATM   16  C11 UNL     1      22.733   5.675  47.124  1.00  0.00     0.007 C 
HETATM   17  C12 UNL     1      22.214   4.450  47.117  1.00  0.00     0.069 C 
HETATM   18 CL1  UNL     1      21.115   3.635  45.986  1.00  0.00    -0.081 Cl
HETATM   19  C13 UNL     1      22.560   3.551  48.208  1.00  0.00     0.136 C 
HETATM   20  F1  UNL     1      22.124   2.276  48.356  1.00  0.00    -0.205 F 
HETATM   21  C14 UNL     1      23.189   3.276  49.331  1.00  0.00     0.046 C 
HETATM   22  C15 UNL     1      23.681   2.552  50.533  1.00  0.00     0.152 C 
HETATM   23  C16 UNL     1      22.471   2.003  51.273  1.00  0.00     0.206 C 
HETATM   24  O2  UNL     1      22.863   1.041  52.218  1.00  0.00    -0.348 OA
HETATM   25  H9  UNL     1      23.490   4.696  52.938  1.00  0.00     0.187 HD
ENDROOT
BRANCH   1  26
HETATM   26  O1  UNL     1      27.457  -0.456  54.890  1.00  0.00    -0.356 OA
HETATM   27  C1  UNL     1      28.698   0.181  54.803  1.00  0.00     0.210 C 
ENDBRANCH   1  26
TORSDOF 1
ENDMDL
MODEL 2
REMARK VINA RESULT:      -7.8      2.908      3.544
REMARK  1 active torsions:
REMARK  status: ('A' for Active; 'I' for Inactive)
REMARK    1  A    between atoms: O1_2  and  C2_3 
ROOT
HETATM    1  C2  UNL     1      25.570  -0.401  53.695  1.00  0.00     0.069 A 
HETATM    2  C3  UNL     1      26.687  -0.436  52.874  1.00  0.00     0.039 A 
HETATM    3  C4  UNL     1      26.833   0.516  51.883  1.00  0.00     0.040 A 
HETATM    4  C5  UNL     1      25.871   1.505  51.710  1.00  0.00     0.077 A 
HETATM    5  C6  UNL     1      24.752   1.561  52.517  1.00  0.00    -0.003 A 
HETATM    6  C7  UNL     1      24.615   0.592  53.513  1.00  0.00     0.048 A 
HETATM    7  C8  UNL     1      23.588   2.482  52.561  1.00  0.00     0.184 C 
HETATM    8  N1  UNL     1      23.510   3.352  51.444  1.00  0.00    -0.312 N 
HETATM    9  N2  UNL     1      22.778   2.931  50.366  1.00  0.00    -0.295 N 
HETATM   10  C9  UNL     1      21.666   3.755  49.957  1.00  0.00     0.234 C 
HETATM   11  N3  UNL     1      20.815   4.535  49.341  1.00  0.00    -0.187 NA
HETATM   12  S1  UNL     1      21.196   5.109  47.727  1.00  0.00     0.116 SA
HETATM   13  N4  UNL     1      20.336   6.576  47.388  1.00  0.00    -0.200 NA
HETATM   14  P1  UNL     1      20.302   7.813  48.436  1.00  0.00     0.075 P 
HETATM   15  C10 UNL     1      21.207   7.696  50.076  1.00  0.00     0.094 C 
HETATM   16  C11 UNL     1      22.605   8.171  49.904  1.00  0.00     0.007 C 
HETATM   17  C12 UNL     1      23.928   8.037  49.931  1.00  0.00     0.069 C 
HETATM   18 CL1  UNL     1      25.241   9.168  49.545  1.00  0.00    -0.081 Cl
HETATM   19  C13 UNL     1      24.481   6.755  50.339  1.00  0.00     0.136 C 
HETATM   20  F1  UNL     1      25.799   6.447  50.424  1.00  0.00    -0.205 F 
HETATM   21  C14 UNL     1      24.350   5.508  50.743  1.00  0.00     0.046 C 
HETATM   22  C15 UNL     1      24.672   4.126  51.184  1.00  0.00     0.152 C 
HETATM   23  C16 UNL     1      25.611   3.515  50.155  1.00  0.00     0.206 C 
HETATM   24  O2  UNL     1      26.216   2.354  50.663  1.00  0.00    -0.348 OA
HETATM   25  H9  UNL     1      22.592   2.234  49.599  1.00  0.00     0.187 HD
ENDROOT
BRANCH   1  26
HETATM   26  O1  UNL     1      25.335  -1.301  54.706  1.00  0.00    -0.356 OA
HETATM   27  C1  UNL     1      24.270  -1.278  55.612  1.00  0.00     0.210 C 
ENDBRANCH   1  26
TORSDOF 1
ENDMDL
MODEL 3
REMARK VINA RESULT:      -7.7      8.799     10.223
REMARK  1 active torsions:
REMARK  status: ('A' for Active; 'I' for Inactive)
REMARK    1  A    between atoms: O1_2  and  C2_3 
ROOT
HETATM    1  C2  UNL     1      25.454   6.399  49.275  1.00  0.00     0.069 A 
HETATM    2  C3  UNL     1      25.708   5.036  49.276  1.00  0.00     0.039 A 
HETATM    3  C4  UNL     1      26.960   4.577  48.914  1.00  0.00     0.040 A 
HETATM    4  C5  UNL     1      27.961   5.473  48.552  1.00  0.00     0.077 A 
HETATM    5  C6  UNL     1      27.731   6.834  48.545  1.00  0.00    -0.003 A 
HETATM    6  C7  UNL     1      26.461   7.286  48.912  1.00  0.00     0.048 A 
HETATM    7  C8  UNL     1      28.590   8.000  48.212  1.00  0.00     0.184 C 
HETATM    8  N1  UNL     1      29.818   7.641  47.599  1.00  0.00    -0.312 N 
HETATM    9  N2  UNL     1      29.848   7.585  46.232  1.00  0.00    -0.295 N 
HETATM   10  C9  UNL     1      30.787   8.446  45.553  1.00  0.00     0.234 C 
HETATM   11  N3  UNL     1      31.758   8.972  44.852  1.00  0.00    -0.187 NA
HETATM   12  S1  UNL     1      32.890   7.914  44.030  1.00  0.00     0.116 SA
HETATM   13  N4  UNL     1      34.393   8.733  43.754  1.00  0.00    -0.200 NA
HETATM   14  P1  UNL     1      35.145   9.566  44.924  1.00  0.00     0.075 P 
HETATM   15  C10 UNL     1      34.401   9.672  46.644  1.00  0.00     0.094 C 
HETATM   16  C11 UNL     1      34.878   8.525  47.461  1.00  0.00     0.007 C 
HETATM   17  C12 UNL     1      34.719   7.425  48.191  1.00  0.00     0.069 C 
HETATM   18 CL1  UNL     1      35.886   6.365  49.006  1.00  0.00    -0.081 Cl
HETATM   19  C13 UNL     1      33.366   6.932  48.404  1.00  0.00     0.136 C 
HETATM   20  F1  UNL     1      33.024   5.832  49.118  1.00  0.00    -0.205 F 
HETATM   21  C14 UNL     1      32.063   7.007  48.236  1.00  0.00     0.046 C 
HETATM   22  C15 UNL     1      30.609   6.701  48.311  1.00  0.00     0.152 C 
HETATM   23  C16 UNL     1      30.413   5.260  47.869  1.00  0.00     0.206 C 
HETATM   24  O2  UNL     1      29.135   4.801  48.227  1.00  0.00    -0.348 OA
HETATM   25  H9  UNL     1      29.495   7.190  45.322  1.00  0.00     0.187 HD
ENDROOT
BRANCH   1  26
HETATM   26  O1  UNL     1      24.244   6.952  49.619  1.00  0.00    -0.356 OA
HETATM   27  C1  UNL     1      23.944   7.633  50.802  1.00  0.00     0.210 C 
ENDBRANCH   1  26
TORSDOF 1
ENDMDL
MODEL 4
REMARK VINA RESULT:      -7.6      2.745      3.247
REMARK  1 active torsions:
REMARK  status: ('A' for Active; 'I' for Inactive)
REMARK    1  A    between atoms: O1_2  and  C2_3 
ROOT
HETATM    1  C2  UNL     1      26.282   0.953  52.269  1.00  0.00     0.069 A 
HETATM    2  C3  UNL     1      25.127   1.160  53.008  1.00  0.00     0.039 A 
HETATM    3  C4  UNL     1      24.301   2.222  52.696  1.00  0.00     0.040 A 
HETATM    4  C5  UNL     1      24.621   3.079  51.648  1.00  0.00     0.077 A 
HETATM    5  C6  UNL     1      25.764   2.891  50.897  1.00  0.00    -0.003 A 
HETATM    6  C7  UNL     1      26.593   1.815  51.223  1.00  0.00     0.048 A 
HETATM    7  C8  UNL     1      26.347   3.629  49.747  1.00  0.00     0.184 C 
HETATM    8  N1  UNL     1      25.713   4.872  49.492  1.00  0.00    -0.312 N 
HETATM    9  N2  UNL     1      26.232   5.982  50.104  1.00  0.00    -0.295 N 
HETATM   10  C9  UNL     1      26.689   7.054  49.254  1.00  0.00     0.234 C 
HETATM   11  N3  UNL     1      26.889   8.178  48.614  1.00  0.00    -0.187 NA
HETATM   12  S1  UNL     1      25.866   9.558  48.969  1.00  0.00     0.116 SA
HETATM   13  N4  UNL     1      25.837  10.652  47.626  1.00  0.00    -0.200 NA
HETATM   14  P1  UNL     1      25.590  10.141  46.107  1.00  0.00     0.075 P 
HETATM   15  C10 UNL     1      25.322   8.318  45.748  1.00  0.00     0.094 C 
HETATM   16  C11 UNL     1      23.874   8.002  45.854  1.00  0.00     0.007 C 
HETATM   17  C12 UNL     1      22.819   7.367  46.359  1.00  0.00     0.069 C 
HETATM   18 CL1  UNL     1      21.087   7.465  45.983  1.00  0.00    -0.081 Cl
HETATM   19  C13 UNL     1      23.044   6.401  47.424  1.00  0.00     0.136 C 
HETATM   20  F1  UNL     1      22.088   5.669  48.048  1.00  0.00    -0.205 F 
HETATM   21  C14 UNL     1      23.831   5.745  48.250  1.00  0.00     0.046 C 
HETATM   22  C15 UNL     1      24.305   4.820  49.313  1.00  0.00     0.152 C 
HETATM   23  C16 UNL     1      23.506   5.111  50.574  1.00  0.00     0.206 C 
HETATM   24  O2  UNL     1      23.658   4.073  51.507  1.00  0.00    -0.348 OA
HETATM   25  H9  UNL     1      26.497   6.509  50.975  1.00  0.00     0.187 HD
ENDROOT
BRANCH   1  26
HETATM   26  O1  UNL     1      27.166  -0.073  52.501  1.00  0.00    -0.356 OA
HETATM   27  C1  UNL     1      26.849  -1.423  52.678  1.00  0.00     0.210 C 
ENDBRANCH   1  26
TORSDOF 1
ENDMDL
MODEL 5
REMARK VINA RESULT:      -7.3      5.289      6.144
REMARK  1 active torsions:
REMARK  status: ('A' for Active; 'I' for Inactive)
REMARK    1  A    between atoms: O1_2  and  C2_3 
ROOT
HETATM    1  C2  UNL     1      24.942   1.367  51.926  1.00  0.00     0.069 A 
HETATM    2  C3  UNL     1      24.820   0.678  53.123  1.00  0.00     0.039 A 
HETATM    3  C4  UNL     1      23.563   0.356  53.598  1.00  0.00     0.040 A 
HETATM    4  C5  UNL     1      22.427   0.716  52.882  1.00  0.00     0.077 A 
HETATM    5  C6  UNL     1      22.523   1.401  51.687  1.00  0.00    -0.003 A 
HETATM    6  C7  UNL     1      23.800   1.723  51.218  1.00  0.00     0.048 A 
HETATM    7  C8  UNL     1      21.506   1.905  50.729  1.00  0.00     0.184 C 
HETATM    8  N1  UNL     1      20.179   1.842  51.227  1.00  0.00    -0.312 N 
HETATM    9  N2  UNL     1      19.699   2.944  51.882  1.00  0.00    -0.295 N 
HETATM   10  C9  UNL     1      18.517   3.573  51.342  1.00  0.00     0.234 C 
HETATM   11  N3  UNL     1      17.326   4.062  51.110  1.00  0.00    -0.187 NA
HETATM   12  S1  UNL     1      16.079   3.897  52.333  1.00  0.00     0.116 SA
HETATM   13  N4  UNL     1      14.506   3.983  51.610  1.00  0.00    -0.200 NA
HETATM   14  P1  UNL     1      14.120   3.125  50.289  1.00  0.00     0.075 P 
HETATM   15  C10 UNL     1      15.384   1.992  49.487  1.00  0.00     0.094 C 
HETATM   16  C11 UNL     1      15.307   0.645  50.112  1.00  0.00     0.007 C 
HETATM   17  C12 UNL     1      15.796  -0.394  50.783  1.00  0.00     0.069 C 
HETATM   18 CL1  UNL     1      15.064  -1.934  51.278  1.00  0.00    -0.081 Cl
HETATM   19  C13 UNL     1      17.179  -0.334  51.232  1.00  0.00     0.136 C 
HETATM   20  F1  UNL     1      17.833  -1.300  51.923  1.00  0.00    -0.205 F 
HETATM   21  C14 UNL     1      18.340   0.277  51.339  1.00  0.00     0.046 C 
HETATM   22  C15 UNL     1      19.755   0.568  51.690  1.00  0.00     0.152 C 
HETATM   23  C16 UNL     1      19.915   0.364  53.188  1.00  0.00     0.206 C 
HETATM   24  O2  UNL     1      21.274   0.294  53.536  1.00  0.00    -0.348 OA
HETATM   25  H9  UNL     1      19.760   3.645  52.665  1.00  0.00     0.187 HD
ENDROOT
BRANCH   1  26
HETATM   26  O1  UNL     1      26.145   1.733  51.373  1.00  0.00    -0.356 OA
HETATM   27  C1  UNL     1      26.417   2.914  50.674  1.00  0.00     0.210 C 
ENDBRANCH   1  26
TORSDOF 1
ENDMDL
MODEL 6
REMARK VINA RESULT:      -7.3      6.920      8.266
REMARK  1 active torsions:
REMARK  status: ('A' for Active; 'I' for Inactive)
REMARK    1  A    between atoms: O1_2  and  C2_3 
ROOT
HETATM    1  C2  UNL     1      24.568   4.470  50.654  1.00  0.00     0.069 A 
HETATM    2  C3  UNL     1      24.173   5.734  51.062  1.00  0.00     0.039 A 
HETATM    3  C4  UNL     1      24.883   6.840  50.634  1.00  0.00     0.040 A 
HETATM    4  C5  UNL     1      25.984   6.689  49.798  1.00  0.00     0.077 A 
HETATM    5  C6  UNL     1      26.395   5.440  49.377  1.00  0.00    -0.003 A 
HETATM    6  C7  UNL     1      25.670   4.330  49.818  1.00  0.00     0.048 A 
HETATM    7  C8  UNL     1      27.508   4.987  48.505  1.00  0.00     0.184 C 
HETATM    8  N1  UNL     1      28.442   6.009  48.201  1.00  0.00    -0.312 N 
HETATM    9  N2  UNL     1      29.522   6.144  49.032  1.00  0.00    -0.295 N 
HETATM   10  C9  UNL     1      30.833   6.004  48.443  1.00  0.00     0.234 C 
HETATM   11  N3  UNL     1      32.050   6.158  47.989  1.00  0.00    -0.187 NA
HETATM   12  S1  UNL     1      32.842   7.712  48.175  1.00  0.00     0.116 SA
HETATM   13  N4  UNL     1      34.084   7.906  46.982  1.00  0.00    -0.200 NA
HETATM   14  P1  UNL     1      33.826   7.586  45.413  1.00  0.00     0.075 P 
HETATM   15  C10 UNL     1      32.146   6.988  44.828  1.00  0.00     0.094 C 
HETATM   16  C11 UNL     1      31.290   8.159  44.502  1.00  0.00     0.007 C 
HETATM   17  C12 UNL     1      30.218   8.935  44.637  1.00  0.00     0.069 C 
HETATM   18 CL1  UNL     1      29.724  10.426  43.810  1.00  0.00    -0.081 Cl
HETATM   19  C13 UNL     1      29.221   8.562  45.629  1.00  0.00     0.136 C 
HETATM   20  F1  UNL     1      28.074   9.236  45.895  1.00  0.00    -0.205 F 
HETATM   21  C14 UNL     1      28.763   7.771  46.576  1.00  0.00     0.046 C 
HETATM   22  C15 UNL     1      27.897   7.194  47.638  1.00  0.00     0.152 C 
HETATM   23  C16 UNL     1      27.611   8.291  48.651  1.00  0.00     0.206 C 
HETATM   24  O2  UNL     1      26.546   7.924  49.491  1.00  0.00    -0.348 OA
HETATM   25  H9  UNL     1      29.929   6.315  49.987  1.00  0.00     0.187 HD
ENDROOT
BRANCH   1  26
HETATM   26  O1  UNL     1      23.929   3.311  51.025  1.00  0.00    -0.356 OA
HETATM   27  C1  UNL     1      24.529   2.153  51.528  1.00  0.00     0.210 C 
ENDBRANCH   1  26
TORSDOF 1
ENDMDL
MODEL 7
REMARK VINA RESULT:      -7.0      6.307      8.008
REMARK  1 active torsions:
REMARK  status: ('A' for Active; 'I' for Inactive)
REMARK    1  A    between atoms: O1_2  and  C2_3 
ROOT
HETATM    1  C2  UNL     1      25.020   4.042  49.969  1.00  0.00     0.069 A 
HETATM    2  C3  UNL     1      26.210   3.502  49.504  1.00  0.00     0.039 A 
HETATM    3  C4  UNL     1      27.167   4.334  48.957  1.00  0.00     0.040 A 
HETATM    4  C5  UNL     1      26.944   5.704  48.874  1.00  0.00     0.077 A 
HETATM    5  C6  UNL     1      25.769   6.265  49.331  1.00  0.00    -0.003 A 
HETATM    6  C7  UNL     1      24.808   5.413  49.880  1.00  0.00     0.048 A 
HETATM    7  C8  UNL     1      25.268   7.663  49.370  1.00  0.00     0.184 C 
HETATM    8  N1  UNL     1      26.061   8.570  48.622  1.00  0.00    -0.312 N 
HETATM    9  N2  UNL     1      25.716   8.780  47.314  1.00  0.00    -0.295 N 
HETATM   10  C9  UNL     1      25.391  10.131  46.923  1.00  0.00     0.234 C 
HETATM   11  N3  UNL     1      25.333  11.328  46.397  1.00  0.00    -0.187 NA
HETATM   12  S1  UNL     1      26.546  11.805  45.222  1.00  0.00     0.116 SA
HETATM   13  N4  UNL     1      26.694  13.531  45.172  1.00  0.00    -0.200 NA
HETATM   14  P1  UNL     1      26.832  14.420  46.521  1.00  0.00     0.075 P 
HETATM   15  C10 UNL     1      26.837  13.597  48.208  1.00  0.00     0.094 C 
HETATM   16  C11 UNL     1      28.230  13.229  48.574  1.00  0.00     0.007 C 
HETATM   17  C12 UNL     1      29.198  12.377  48.901  1.00  0.00     0.069 C 
HETATM   18 CL1  UNL     1      30.917  12.623  49.267  1.00  0.00    -0.081 Cl
HETATM   19  C13 UNL     1      28.867  10.964  48.994  1.00  0.00     0.136 C 
HETATM   20  F1  UNL     1      29.726   9.965  49.314  1.00  0.00    -0.205 F 
HETATM   21  C14 UNL     1      28.016   9.962  48.915  1.00  0.00     0.046 C 
HETATM   22  C15 UNL     1      27.444   8.590  48.945  1.00  0.00     0.152 C 
HETATM   23  C16 UNL     1      28.305   7.706  48.057  1.00  0.00     0.206 C 
HETATM   24  O2  UNL     1      28.032   6.349  48.294  1.00  0.00    -0.348 OA
HETATM   25  H9  UNL     1      25.547   8.418  46.340  1.00  0.00     0.187 HD
ENDROOT
BRANCH   1  26
HETATM   26  O1  UNL     1      24.009   3.299  50.527  1.00  0.00    -0.356 OA
HETATM   27  C1  UNL     1      23.902   2.909  51.866  1.00  0.00     0.210 C 
ENDBRANCH   1  26
TORSDOF 1
ENDMDL
MODEL 8
REMARK VINA RESULT:      -7.0      4.491      5.517
REMARK  1 active torsions:
REMARK  status: ('A' for Active; 'I' for Inactive)
REMARK    1  A    between atoms: O1_2  and  C2_3 
ROOT
HETATM    1  C2  UNL     1      25.925   2.293  51.108  1.00  0.00     0.069 A 
HETATM    2  C3  UNL     1      24.734   2.715  51.678  1.00  0.00     0.039 A 
HETATM    3  C4  UNL     1      24.223   3.956  51.346  1.00  0.00     0.040 A 
HETATM    4  C5  UNL     1      24.896   4.776  50.446  1.00  0.00     0.077 A 
HETATM    5  C6  UNL     1      26.083   4.376  49.866  1.00  0.00    -0.003 A 
HETATM    6  C7  UNL     1      26.589   3.120  50.211  1.00  0.00     0.048 A 
HETATM    7  C8  UNL     1      26.999   5.027  48.895  1.00  0.00     0.184 C 
HETATM    8  N1  UNL     1      26.704   6.395  48.666  1.00  0.00    -0.312 N 
HETATM    9  N2  UNL     1      27.338   7.318  49.455  1.00  0.00    -0.295 N 
HETATM   10  C9  UNL     1      28.156   8.305  48.792  1.00  0.00     0.234 C 
HETATM   11  N3  UNL     1      28.701   9.388  48.302  1.00  0.00    -0.187 NA
HETATM   12  S1  UNL     1      27.956  10.943  48.627  1.00  0.00     0.116 SA
HETATM   13  N4  UNL     1      28.396  12.092  47.406  1.00  0.00    -0.200 NA
HETATM   14  P1  UNL     1      28.308  11.742  45.825  1.00  0.00     0.075 P 
HETATM   15  C10 UNL     1      27.717  10.054  45.256  1.00  0.00     0.094 C 
HETATM   16  C11 UNL     1      26.238  10.073  45.107  1.00  0.00     0.007 C 
HETATM   17  C12 UNL     1      25.000   9.669  45.381  1.00  0.00     0.069 C 
HETATM   18 CL1  UNL     1      23.421  10.183  44.755  1.00  0.00    -0.081 Cl
HETATM   19  C13 UNL     1      24.824   8.616  46.369  1.00  0.00     0.136 C 
HETATM   20  F1  UNL     1      23.640   8.087  46.766  1.00  0.00    -0.205 F 
HETATM   21  C14 UNL     1      25.296   7.749  47.240  1.00  0.00     0.046 C 
HETATM   22  C15 UNL     1      25.370   6.679  48.270  1.00  0.00     0.152 C 
HETATM   23  C16 UNL     1      24.449   7.070  49.415  1.00  0.00     0.206 C 
HETATM   24  O2  UNL     1      24.210   5.971  50.256  1.00  0.00    -0.348 OA
HETATM   25  H9  UNL     1      27.557   7.718  50.403  1.00  0.00     0.187 HD
ENDROOT
BRANCH   1  26
HETATM   26  O1  UNL     1      26.512   1.080  51.374  1.00  0.00    -0.356 OA
HETATM   27  C1  UNL     1      26.138   0.172  52.370  1.00  0.00     0.210 C 
ENDBRANCH   1  26
TORSDOF 1
ENDMDL
MODEL 9
REMARK VINA RESULT:      -6.9      4.721      6.048
REMARK  1 active torsions:
REMARK  status: ('A' for Active; 'I' for Inactive)
REMARK    1  A    between atoms: O1_2  and  C2_3 
ROOT
HETATM    1  C2  UNL     1      23.004   2.351  51.368  1.00  0.00     0.069 A 
HETATM    2  C3  UNL     1      22.723   3.267  52.371  1.00  0.00     0.039 A 
HETATM    3  C4  UNL     1      23.249   4.542  52.294  1.00  0.00     0.040 A 
HETATM    4  C5  UNL     1      24.053   4.908  51.220  1.00  0.00     0.077 A 
HETATM    5  C6  UNL     1      24.345   4.015  50.210  1.00  0.00    -0.003 A 
HETATM    6  C7  UNL     1      23.809   2.728  50.299  1.00  0.00     0.048 A 
HETATM    7  C8  UNL     1      25.156   4.124  48.971  1.00  0.00     0.184 C 
HETATM    8  N1  UNL     1      25.936   5.308  48.907  1.00  0.00    -0.312 N 
HETATM    9  N2  UNL     1      27.212   5.249  49.401  1.00  0.00    -0.295 N 
HETATM   10  C9  UNL     1      28.289   5.556  48.490  1.00  0.00     0.234 C 
HETATM   11  N3  UNL     1      29.312   6.058  47.848  1.00  0.00    -0.187 NA
HETATM   12  S1  UNL     1      30.090   7.500  48.475  1.00  0.00     0.116 SA
HETATM   13  N4  UNL     1      30.916   8.343  47.205  1.00  0.00    -0.200 NA
HETATM   14  P1  UNL     1      30.207   8.656  45.780  1.00  0.00     0.075 P 
HETATM   15  C10 UNL     1      28.442   8.107  45.454  1.00  0.00     0.094 C 
HETATM   16  C11 UNL     1      27.504   9.170  45.902  1.00  0.00     0.007 C 
HETATM   17  C12 UNL     1      26.505   9.657  46.633  1.00  0.00     0.069 C 
HETATM   18 CL1  UNL     1      25.756  11.265  46.692  1.00  0.00    -0.081 Cl
HETATM   19  C13 UNL     1      25.857   8.771  47.587  1.00  0.00     0.136 C 
HETATM   20  F1  UNL     1      24.829   9.100  48.407  1.00  0.00    -0.205 F 
HETATM   21  C14 UNL     1      25.720   7.604  48.182  1.00  0.00     0.046 C 
HETATM   22  C15 UNL     1      25.223   6.524  49.075  1.00  0.00     0.152 C 
HETATM   23  C16 UNL     1      25.229   7.059  50.499  1.00  0.00     0.206 C 
HETATM   24  O2  UNL     1      24.472   6.230  51.342  1.00  0.00    -0.348 OA
HETATM   25  H9  UNL     1      27.881   5.075  50.194  1.00  0.00     0.187 HD
ENDROOT
BRANCH   1  26
HETATM   26  O1  UNL     1      22.529   1.062  51.354  1.00  0.00    -0.356 OA
HETATM   27  C1  UNL     1      22.132   0.307  52.463  1.00  0.00     0.210 C 
ENDBRANCH   1  26
TORSDOF 1
ENDMDL
