MODEL 1
REMARK VINA RESULT:      -8.7      0.000      0.000
REMARK  2 active torsions:
REMARK  status: ('A' for Active; 'I' for Inactive)
REMARK       I    between atoms: C2_2  and  N1_4 
REMARK    1  A    between atoms: C8_12  and  N4_13 
REMARK    2  A    between atoms: N4_13  and  C9_14 
ROOT
HETATM    1  C1  UNL     1      21.365  -0.291  53.636  1.00  0.00     0.117 C 
HETATM    2  C2  UNL     1      22.698  -0.028  53.093  1.00  0.00     0.216 C 
HETATM    3  O1  UNL     1      23.573  -0.922  53.180  1.00  0.00    -0.274 OA
HETATM    4  N1  UNL     1      23.023   1.224  52.463  1.00  0.00    -0.344 N 
HETATM    5  C3  UNL     1      21.950   2.245  52.385  1.00  0.00     0.180 C 
HETATM    6  C4  UNL     1      22.766   3.484  52.093  1.00  0.00     0.032 C 
HETATM    7  N2  UNL     1      22.940   4.541  51.313  1.00  0.00    -0.267 NA
HETATM    8  C5  UNL     1      24.266   4.623  50.682  1.00  0.00     0.137 C 
HETATM    9  C6  UNL     1      25.076   3.592  51.019  1.00  0.00     0.070 C 
HETATM   10  C7  UNL     1      26.114   3.294  50.060  1.00  0.00     0.099 C 
HETATM   11  N3  UNL     1      26.952   3.064  49.268  1.00  0.00    -0.192 NA
HETATM   12  C8  UNL     1      24.975   2.754  52.287  1.00  0.00     0.090 C 
HETATM   13  C15 UNL     1      23.903   3.525  53.102  1.00  0.00     0.095 C 
HETATM   14  C16 UNL     1      24.358   1.444  51.933  1.00  0.00     0.163 C 
ENDROOT
BRANCH  12  15
HETATM   15  N4  UNL     1      26.244   2.733  52.900  1.00  0.00    -0.374 N 
HETATM   16  H7  UNL     1      26.619   3.658  53.282  1.00  0.00     0.161 HD
BRANCH  15  17
HETATM   17  C9  UNL     1      27.156   1.666  53.114  1.00  0.00     0.030 A 
HETATM   18  C10 UNL     1      28.425   1.802  53.636  1.00  0.00     0.032 A 
HETATM   19  C11 UNL     1      29.329   0.801  53.852  1.00  0.00     0.046 A 
HETATM   20  C12 UNL     1      28.953  -0.479  53.521  1.00  0.00     0.138 A 
HETATM   21  F1  UNL     1      29.755  -1.531  53.689  1.00  0.00    -0.204 F 
HETATM   22  C13 UNL     1      27.703  -0.703  52.994  1.00  0.00     0.074 A 
HETATM   23 CL1  UNL     1      27.209  -2.319  52.568  1.00  0.00    -0.081 Cl
HETATM   24  C14 UNL     1      26.850   0.358  52.806  1.00  0.00     0.056 A 
ENDBRANCH  15  17
ENDBRANCH  12  15
TORSDOF 2
ENDMDL
MODEL 2
REMARK VINA RESULT:      -8.6      3.482      5.555
REMARK  2 active torsions:
REMARK  status: ('A' for Active; 'I' for Inactive)
REMARK       I    between atoms: C2_2  and  N1_4 
REMARK    1  A    between atoms: C8_12  and  N4_13 
REMARK    2  A    between atoms: N4_13  and  C9_14 
ROOT
HETATM    1  C1  UNL     1      22.085  -0.213  53.319  1.00  0.00     0.117 C 
HETATM    2  C2  UNL     1      23.199   0.735  53.340  1.00  0.00     0.216 C 
HETATM    3  O1  UNL     1      22.947   1.965  53.320  1.00  0.00    -0.274 OA
HETATM    4  N1  UNL     1      24.567   0.292  53.385  1.00  0.00    -0.344 N 
HETATM    5  C3  UNL     1      24.808  -1.170  53.408  1.00  0.00     0.180 C 
HETATM    6  C4  UNL     1      26.268  -1.219  53.017  1.00  0.00     0.032 C 
HETATM    7  N2  UNL     1      27.481  -1.665  53.306  1.00  0.00    -0.267 NA
HETATM    8  C5  UNL     1      28.496  -0.615  53.469  1.00  0.00     0.137 C 
HETATM    9  C6  UNL     1      28.000   0.632  53.291  1.00  0.00     0.070 C 
HETATM   10  C7  UNL     1      28.733   1.681  53.959  1.00  0.00     0.099 C 
HETATM   11  N3  UNL     1      29.341   2.523  54.512  1.00  0.00    -0.192 NA
HETATM   12  C8  UNL     1      26.770   0.995  52.469  1.00  0.00     0.090 C 
HETATM   13  C15 UNL     1      26.431  -0.352  51.778  1.00  0.00     0.095 C 
HETATM   14  C16 UNL     1      25.645   1.268  53.408  1.00  0.00     0.163 C 
ENDROOT
BRANCH  12  15
HETATM   15  N4  UNL     1      27.131   2.018  51.569  1.00  0.00    -0.374 N 
HETATM   16  H7  UNL     1      28.172   2.224  51.455  1.00  0.00     0.161 HD
BRANCH  15  17
HETATM   17  C9  UNL     1      26.333   2.860  50.750  1.00  0.00     0.030 A 
HETATM   18  C10 UNL     1      24.974   2.722  50.560  1.00  0.00     0.032 A 
HETATM   19  C11 UNL     1      24.176   3.508  49.779  1.00  0.00     0.046 A 
HETATM   20  C12 UNL     1      24.771   4.549  49.106  1.00  0.00     0.138 A 
HETATM   21  F1  UNL     1      24.088   5.379  48.316  1.00  0.00    -0.204 F 
HETATM   22  C13 UNL     1      26.123   4.757  49.240  1.00  0.00     0.074 A 
HETATM   23 CL1  UNL     1      26.894   6.071  48.394  1.00  0.00    -0.081 Cl
HETATM   24  C14 UNL     1      26.858   3.921  50.045  1.00  0.00     0.056 A 
ENDBRANCH  15  17
ENDBRANCH  12  15
TORSDOF 2
ENDMDL
MODEL 3
REMARK VINA RESULT:      -8.3      2.469      4.250
REMARK  2 active torsions:
REMARK  status: ('A' for Active; 'I' for Inactive)
REMARK       I    between atoms: C2_2  and  N1_4 
REMARK    1  A    between atoms: C8_12  and  N4_13 
REMARK    2  A    between atoms: N4_13  and  C9_14 
ROOT
HETATM    1  C1  UNL     1      23.883   6.254  51.354  1.00  0.00     0.117 C 
HETATM    2  C2  UNL     1      23.531   5.149  52.245  1.00  0.00     0.216 C 
HETATM    3  O1  UNL     1      23.736   5.275  53.476  1.00  0.00    -0.274 OA
HETATM    4  N1  UNL     1      22.958   3.928  51.743  1.00  0.00    -0.344 N 
HETATM    5  C3  UNL     1      22.736   3.832  50.280  1.00  0.00     0.180 C 
HETATM    6  C4  UNL     1      22.565   2.338  50.121  1.00  0.00     0.032 C 
HETATM    7  N2  UNL     1      21.821   1.350  49.648  1.00  0.00    -0.267 NA
HETATM    8  C5  UNL     1      21.381   0.377  50.660  1.00  0.00     0.137 C 
HETATM    9  C6  UNL     1      21.823   0.674  51.904  1.00  0.00     0.070 C 
HETATM   10  C7  UNL     1      21.016   0.144  52.979  1.00  0.00     0.099 C 
HETATM   11  N3  UNL     1      20.347  -0.292  53.843  1.00  0.00    -0.192 NA
HETATM   12  C8  UNL     1      23.061   1.494  52.241  1.00  0.00     0.090 C 
HETATM   13  C15 UNL     1      23.722   1.672  50.849  1.00  0.00     0.095 C 
HETATM   14  C16 UNL     1      22.620   2.854  52.662  1.00  0.00     0.163 C 
ENDROOT
BRANCH  12  15
HETATM   15  N4  UNL     1      23.845   0.752  53.149  1.00  0.00    -0.374 N 
HETATM   16  H7  UNL     1      23.345   0.325  53.990  1.00  0.00     0.161 HD
BRANCH  15  17
HETATM   17  C9  UNL     1      25.233   0.456  53.151  1.00  0.00     0.030 A 
HETATM   18  C10 UNL     1      25.775  -0.794  52.938  1.00  0.00     0.032 A 
HETATM   19  C11 UNL     1      27.102  -1.117  52.937  1.00  0.00     0.046 A 
HETATM   20  C12 UNL     1      28.004  -0.106  53.170  1.00  0.00     0.138 A 
HETATM   21  F1  UNL     1      29.322  -0.309  53.192  1.00  0.00    -0.204 F 
HETATM   22  C13 UNL     1      27.547   1.171  53.393  1.00  0.00     0.074 A 
HETATM   23 CL1  UNL     1      28.675   2.465  53.691  1.00  0.00    -0.081 Cl
HETATM   24  C14 UNL     1      26.196   1.416  53.378  1.00  0.00     0.056 A 
ENDBRANCH  15  17
ENDBRANCH  12  15
TORSDOF 2
ENDMDL
MODEL 4
REMARK VINA RESULT:      -8.2      1.292      1.659
REMARK  2 active torsions:
REMARK  status: ('A' for Active; 'I' for Inactive)
REMARK       I    between atoms: C2_2  and  N1_4 
REMARK    1  A    between atoms: C8_12  and  N4_13 
REMARK    2  A    between atoms: N4_13  and  C9_14 
ROOT
HETATM    1  C1  UNL     1      20.252   0.847  52.724  1.00  0.00     0.117 C 
HETATM    2  C2  UNL     1      21.656   0.839  52.313  1.00  0.00     0.216 C 
HETATM    3  O1  UNL     1      22.282  -0.248  52.321  1.00  0.00    -0.274 OA
HETATM    4  N1  UNL     1      22.329   2.042  51.902  1.00  0.00    -0.344 N 
HETATM    5  C3  UNL     1      21.542   3.299  51.911  1.00  0.00     0.180 C 
HETATM    6  C4  UNL     1      22.653   4.324  51.861  1.00  0.00     0.032 C 
HETATM    7  N2  UNL     1      23.148   5.397  51.262  1.00  0.00    -0.267 NA
HETATM    8  C5  UNL     1      24.511   5.229  50.738  1.00  0.00     0.137 C 
HETATM    9  C6  UNL     1      25.017   3.994  50.966  1.00  0.00     0.070 C 
HETATM   10  C7  UNL     1      26.045   3.576  50.041  1.00  0.00     0.099 C 
HETATM   11  N3  UNL     1      26.878   3.249  49.279  1.00  0.00    -0.192 NA
HETATM   12  C8  UNL     1      24.596   3.049  52.084  1.00  0.00     0.090 C 
HETATM   13  C15 UNL     1      23.662   3.948  52.936  1.00  0.00     0.095 C 
HETATM   14  C16 UNL     1      23.725   1.991  51.498  1.00  0.00     0.163 C 
ENDROOT
BRANCH  12  15
HETATM   15  N4  UNL     1      25.757   2.633  52.767  1.00  0.00    -0.374 N 
HETATM   16  H7  UNL     1      26.277   3.369  53.340  1.00  0.00     0.161 HD
BRANCH  15  17
HETATM   17  C9  UNL     1      26.390   1.364  52.837  1.00  0.00     0.030 A 
HETATM   18  C10 UNL     1      25.757   0.153  52.654  1.00  0.00     0.032 A 
HETATM   19  C11 UNL     1      26.331  -1.084  52.717  1.00  0.00     0.046 A 
HETATM   20  C12 UNL     1      27.676  -1.149  52.992  1.00  0.00     0.138 A 
HETATM   21  F1  UNL     1      28.338  -2.304  53.077  1.00  0.00    -0.204 F 
HETATM   22  C13 UNL     1      28.383   0.013  53.189  1.00  0.00     0.074 A 
HETATM   23 CL1  UNL     1      30.090  -0.050  53.538  1.00  0.00    -0.081 Cl
HETATM   24  C14 UNL     1      27.734   1.220  53.108  1.00  0.00     0.056 A 
ENDBRANCH  15  17
ENDBRANCH  12  15
TORSDOF 2
ENDMDL
MODEL 5
REMARK VINA RESULT:      -8.2      3.005      5.283
REMARK  2 active torsions:
REMARK  status: ('A' for Active; 'I' for Inactive)
REMARK       I    between atoms: C2_2  and  N1_4 
REMARK    1  A    between atoms: C8_12  and  N4_13 
REMARK    2  A    between atoms: N4_13  and  C9_14 
ROOT
HETATM    1  C1  UNL     1      28.234   0.089  54.830  1.00  0.00     0.117 C 
HETATM    2  C2  UNL     1      26.882   0.593  54.587  1.00  0.00     0.216 C 
HETATM    3  O1  UNL     1      25.953   0.217  55.342  1.00  0.00    -0.274 OA
HETATM    4  N1  UNL     1      26.598   1.504  53.511  1.00  0.00    -0.344 N 
HETATM    5  C3  UNL     1      27.733   1.916  52.651  1.00  0.00     0.180 C 
HETATM    6  C4  UNL     1      26.991   2.467  51.455  1.00  0.00     0.032 C 
HETATM    7  N2  UNL     1      26.829   3.483  50.620  1.00  0.00    -0.267 NA
HETATM    8  C5  UNL     1      25.463   4.024  50.574  1.00  0.00     0.137 C 
HETATM    9  C6  UNL     1      24.610   3.377  51.403  1.00  0.00     0.070 C 
HETATM   10  C7  UNL     1      23.471   4.155  51.833  1.00  0.00     0.099 C 
HETATM   11  N3  UNL     1      22.552   4.802  52.177  1.00  0.00    -0.192 NA
HETATM   12  C8  UNL     1      24.759   1.944  51.897  1.00  0.00     0.090 C 
HETATM   13  C15 UNL     1      25.954   1.431  51.051  1.00  0.00     0.095 C 
HETATM   14  C16 UNL     1      25.241   1.984  53.306  1.00  0.00     0.163 C 
ENDROOT
BRANCH  12  15
HETATM   15  N4  UNL     1      23.551   1.265  51.639  1.00  0.00    -0.374 N 
HETATM   16  H7  UNL     1      23.116   1.389  50.672  1.00  0.00     0.161 HD
BRANCH  15  17
HETATM   17  C9  UNL     1      22.772   0.409  52.463  1.00  0.00     0.030 A 
HETATM   18  C10 UNL     1      23.278  -0.437  53.426  1.00  0.00     0.032 A 
HETATM   19  C11 UNL     1      22.563  -1.276  54.232  1.00  0.00     0.046 A 
HETATM   20  C12 UNL     1      21.196  -1.291  54.082  1.00  0.00     0.138 A 
HETATM   21  F1  UNL     1      20.400  -2.071  54.815  1.00  0.00    -0.204 F 
HETATM   22  C13 UNL     1      20.610  -0.477  53.142  1.00  0.00     0.074 A 
HETATM   23 CL1  UNL     1      18.879  -0.483  52.937  1.00  0.00    -0.081 Cl
HETATM   24  C14 UNL     1      21.399   0.339  52.369  1.00  0.00     0.056 A 
ENDBRANCH  15  17
ENDBRANCH  12  15
TORSDOF 2
ENDMDL
MODEL 6
REMARK VINA RESULT:      -8.1      2.473      3.183
REMARK  2 active torsions:
REMARK  status: ('A' for Active; 'I' for Inactive)
REMARK       I    between atoms: C2_2  and  N1_4 
REMARK    1  A    between atoms: C8_12  and  N4_13 
REMARK    2  A    between atoms: N4_13  and  C9_14 
ROOT
HETATM    1  C1  UNL     1      20.019   2.386  49.437  1.00  0.00     0.117 C 
HETATM    2  C2  UNL     1      21.472   2.275  49.570  1.00  0.00     0.216 C 
HETATM    3  O1  UNL     1      21.979   1.139  49.738  1.00  0.00    -0.274 OA
HETATM    4  N1  UNL     1      22.325   3.431  49.512  1.00  0.00    -0.344 N 
HETATM    5  C3  UNL     1      21.674   4.748  49.311  1.00  0.00     0.180 C 
HETATM    6  C4  UNL     1      22.788   5.678  49.737  1.00  0.00     0.032 C 
HETATM    7  N2  UNL     1      23.538   6.726  49.431  1.00  0.00    -0.267 NA
HETATM    8  C5  UNL     1      24.985   6.463  49.433  1.00  0.00     0.137 C 
HETATM    9  C6  UNL     1      25.289   5.183  49.753  1.00  0.00     0.070 C 
HETATM   10  C7  UNL     1      26.557   4.713  49.245  1.00  0.00     0.099 C 
HETATM   11  N3  UNL     1      27.591   4.345  48.823  1.00  0.00    -0.192 NA
HETATM   12  C8  UNL     1      24.423   4.238  50.576  1.00  0.00     0.090 C 
HETATM   13  C15 UNL     1      23.300   5.182  51.080  1.00  0.00     0.095 C 
HETATM   14  C16 UNL     1      23.765   3.278  49.645  1.00  0.00     0.163 C 
ENDROOT
BRANCH  12  15
HETATM   15  N4  UNL     1      25.219   3.703  51.609  1.00  0.00    -0.374 N 
HETATM   16  H7  UNL     1      25.736   4.395  52.236  1.00  0.00     0.161 HD
BRANCH  15  17
HETATM   17  C9  UNL     1      25.471   2.357  51.987  1.00  0.00     0.030 A 
HETATM   18  C10 UNL     1      26.610   1.648  51.674  1.00  0.00     0.032 A 
HETATM   19  C11 UNL     1      26.885   0.355  52.017  1.00  0.00     0.046 A 
HETATM   20  C12 UNL     1      25.940  -0.325  52.748  1.00  0.00     0.138 A 
HETATM   21  F1  UNL     1      26.104  -1.590  53.136  1.00  0.00    -0.204 F 
HETATM   22  C13 UNL     1      24.774   0.310  53.102  1.00  0.00     0.074 A 
HETATM   23 CL1  UNL     1      23.564  -0.536  54.029  1.00  0.00    -0.081 Cl
HETATM   24  C14 UNL     1      24.571   1.613  52.719  1.00  0.00     0.056 A 
ENDBRANCH  15  17
ENDBRANCH  12  15
TORSDOF 2
ENDMDL
MODEL 7
REMARK VINA RESULT:      -8.0      2.538      4.474
REMARK  2 active torsions:
REMARK  status: ('A' for Active; 'I' for Inactive)
REMARK       I    between atoms: C2_2  and  N1_4 
REMARK    1  A    between atoms: C8_12  and  N4_13 
REMARK    2  A    between atoms: N4_13  and  C9_14 
ROOT
HETATM    1  C1  UNL     1      21.452   5.166  51.458  1.00  0.00     0.117 C 
HETATM    2  C2  UNL     1      22.213   4.159  52.198  1.00  0.00     0.216 C 
HETATM    3  O1  UNL     1      23.345   4.465  52.646  1.00  0.00    -0.274 OA
HETATM    4  N1  UNL     1      21.695   2.836  52.423  1.00  0.00    -0.344 N 
HETATM    5  C3  UNL     1      20.353   2.529  51.873  1.00  0.00     0.180 C 
HETATM    6  C4  UNL     1      20.371   1.017  51.922  1.00  0.00     0.032 C 
HETATM    7  N2  UNL     1      19.756  -0.089  52.312  1.00  0.00    -0.267 NA
HETATM    8  C5  UNL     1      20.555  -0.956  53.190  1.00  0.00     0.137 C 
HETATM    9  C6  UNL     1      21.788  -0.459  53.443  1.00  0.00     0.070 C 
HETATM   10  C7  UNL     1      22.388  -0.914  54.675  1.00  0.00     0.099 C 
HETATM   11  N3  UNL     1      22.861  -1.293  55.683  1.00  0.00    -0.192 NA
HETATM   12  C8  UNL     1      22.560   0.508  52.555  1.00  0.00     0.090 C 
HETATM   13  C15 UNL     1      21.674   0.561  51.283  1.00  0.00     0.095 C 
HETATM   14  C16 UNL     1      22.482   1.865  53.166  1.00  0.00     0.163 C 
ENDROOT
BRANCH  12  15
HETATM   15  N4  UNL     1      23.843  -0.032  52.329  1.00  0.00    -0.374 N 
HETATM   16  H7  UNL     1      23.893  -1.032  51.956  1.00  0.00     0.161 HD
BRANCH  15  17
HETATM   17  C9  UNL     1      25.134   0.529  52.512  1.00  0.00     0.030 A 
HETATM   18  C10 UNL     1      25.684   1.519  51.728  1.00  0.00     0.032 A 
HETATM   19  C11 UNL     1      26.921   2.080  51.871  1.00  0.00     0.046 A 
HETATM   20  C12 UNL     1      27.713   1.622  52.898  1.00  0.00     0.138 A 
HETATM   21  F1  UNL     1      28.937   2.098  53.130  1.00  0.00    -0.204 F 
HETATM   22  C13 UNL     1      27.240   0.634  53.728  1.00  0.00     0.074 A 
HETATM   23 CL1  UNL     1      28.229   0.041  55.034  1.00  0.00    -0.081 Cl
HETATM   24  C14 UNL     1      25.983   0.120  53.518  1.00  0.00     0.056 A 
ENDBRANCH  15  17
ENDBRANCH  12  15
TORSDOF 2
ENDMDL
MODEL 8
REMARK VINA RESULT:      -7.9      2.735      4.702
REMARK  2 active torsions:
REMARK  status: ('A' for Active; 'I' for Inactive)
REMARK       I    between atoms: C2_2  and  N1_4 
REMARK    1  A    between atoms: C8_12  and  N4_13 
REMARK    2  A    between atoms: N4_13  and  C9_14 
ROOT
HETATM    1  C1  UNL     1      24.956   7.202  49.048  1.00  0.00     0.117 C 
HETATM    2  C2  UNL     1      24.291   6.561  50.183  1.00  0.00     0.216 C 
HETATM    3  O1  UNL     1      24.282   7.150  51.291  1.00  0.00    -0.274 OA
HETATM    4  N1  UNL     1      23.651   5.279  50.056  1.00  0.00    -0.344 N 
HETATM    5  C3  UNL     1      23.690   4.628  48.724  1.00  0.00     0.180 C 
HETATM    6  C4  UNL     1      23.338   3.206  49.099  1.00  0.00     0.032 C 
HETATM    7  N2  UNL     1      22.560   2.158  48.873  1.00  0.00    -0.267 NA
HETATM    8  C5  UNL     1      21.807   1.692  50.047  1.00  0.00     0.137 C 
HETATM    9  C6  UNL     1      22.050   2.427  51.157  1.00  0.00     0.070 C 
HETATM   10  C7  UNL     1      20.993   2.414  52.141  1.00  0.00     0.099 C 
HETATM   11  N3  UNL     1      20.121   2.396  52.930  1.00  0.00    -0.192 NA
HETATM   12  C8  UNL     1      23.310   3.237  51.434  1.00  0.00     0.090 C 
HETATM   13  C15 UNL     1      24.234   2.811  50.262  1.00  0.00     0.095 C 
HETATM   14  C16 UNL     1      22.999   4.676  51.207  1.00  0.00     0.163 C 
ENDROOT
BRANCH  12  15
HETATM   15  N4  UNL     1      23.799   2.867  52.703  1.00  0.00    -0.374 N 
HETATM   16  H7  UNL     1      23.328   3.304  53.555  1.00  0.00     0.161 HD
BRANCH  15  17
HETATM   17  C9  UNL     1      24.846   1.982  53.074  1.00  0.00     0.030 A 
HETATM   18  C10 UNL     1      24.704   0.624  53.263  1.00  0.00     0.032 A 
HETATM   19  C11 UNL     1      25.685  -0.256  53.622  1.00  0.00     0.046 A 
HETATM   20  C12 UNL     1      26.949   0.246  53.822  1.00  0.00     0.138 A 
HETATM   21  F1  UNL     1      27.981  -0.521  54.175  1.00  0.00    -0.204 F 
HETATM   22  C13 UNL     1      27.177   1.591  53.655  1.00  0.00     0.074 A 
HETATM   23 CL1  UNL     1      28.773   2.246  53.903  1.00  0.00    -0.081 Cl
HETATM   24  C14 UNL     1      26.137   2.412  53.292  1.00  0.00     0.056 A 
ENDBRANCH  15  17
ENDBRANCH  12  15
TORSDOF 2
ENDMDL
MODEL 9
REMARK VINA RESULT:      -7.8      3.582      5.731
REMARK  2 active torsions:
REMARK  status: ('A' for Active; 'I' for Inactive)
REMARK       I    between atoms: C2_2  and  N1_4 
REMARK    1  A    between atoms: C8_12  and  N4_13 
REMARK    2  A    between atoms: N4_13  and  C9_14 
ROOT
HETATM    1  C1  UNL     1      27.463   1.176  53.550  1.00  0.00     0.117 C 
HETATM    2  C2  UNL     1      26.680   1.615  52.395  1.00  0.00     0.216 C 
HETATM    3  O1  UNL     1      27.232   2.335  51.528  1.00  0.00    -0.274 OA
HETATM    4  N1  UNL     1      25.301   1.240  52.232  1.00  0.00    -0.344 N 
HETATM    5  C3  UNL     1      24.698   0.388  53.285  1.00  0.00     0.180 C 
HETATM    6  C4  UNL     1      23.227   0.588  52.997  1.00  0.00     0.032 C 
HETATM    7  N2  UNL     1      22.052   0.019  52.769  1.00  0.00    -0.267 NA
HETATM    8  C5  UNL     1      21.423   0.405  51.498  1.00  0.00     0.137 C 
HETATM    9  C6  UNL     1      22.169   1.281  50.784  1.00  0.00     0.070 C 
HETATM   10  C7  UNL     1      21.929   1.267  49.360  1.00  0.00     0.099 C 
HETATM   11  N3  UNL     1      21.723   1.240  48.202  1.00  0.00    -0.192 NA
HETATM   12  C8  UNL     1      23.202   2.245  51.352  1.00  0.00     0.090 C 
HETATM   13  C15 UNL     1      22.990   2.086  52.881  1.00  0.00     0.095 C 
HETATM   14  C16 UNL     1      24.558   1.695  51.067  1.00  0.00     0.163 C 
ENDROOT
BRANCH  12  15
HETATM   15  N4  UNL     1      22.908   3.537  50.871  1.00  0.00    -0.374 N 
HETATM   16  H7  UNL     1      21.899   3.733  50.584  1.00  0.00     0.161 HD
BRANCH  15  17
HETATM   17  C9  UNL     1      23.740   4.674  50.691  1.00  0.00     0.030 A 
HETATM   18  C10 UNL     1      23.534   5.905  51.277  1.00  0.00     0.032 A 
HETATM   19  C11 UNL     1      24.308   7.019  51.124  1.00  0.00     0.046 A 
HETATM   20  C12 UNL     1      25.410   6.922  50.308  1.00  0.00     0.138 A 
HETATM   21  F1  UNL     1      26.235   7.947  50.088  1.00  0.00    -0.204 F 
HETATM   22  C13 UNL     1      25.687   5.729  49.685  1.00  0.00     0.074 A 
HETATM   23 CL1  UNL     1      27.079   5.588  48.646  1.00  0.00    -0.081 Cl
HETATM   24  C14 UNL     1      24.859   4.653  49.888  1.00  0.00     0.056 A 
ENDBRANCH  15  17
ENDBRANCH  12  15
TORSDOF 2
ENDMDL
