MODEL 1
REMARK VINA RESULT:      -9.1      0.000      0.000
REMARK  5 active torsions:
REMARK  status: ('A' for Active; 'I' for Inactive)
REMARK    1  A    between atoms: C2_2  and  C3_3 
REMARK    2  A    between atoms: C3_3  and  C4_4 
REMARK    3  A    between atoms: C5_5  and  C6_6 
REMARK    4  A    between atoms: C6_6  and  O2_8 
REMARK    5  A    between atoms: C17_20  and  O4_21 
ROOT
HETATM    1  C4  UNL     1      22.041   2.607  52.040  1.00  0.00    -0.030 A 
HETATM    2  C5  UNL     1      23.356   2.924  52.373  1.00  0.00     0.056 A 
HETATM    3  C8  UNL     1      24.135   2.058  53.095  1.00  0.00     0.000 A 
HETATM    4  C9  UNL     1      23.684   0.827  53.538  1.00  0.00     0.087 A 
HETATM    5  C10 UNL     1      22.394   0.539  53.201  1.00  0.00     0.009 A 
HETATM    6  C11 UNL     1      21.843  -0.656  53.607  1.00  0.00     0.015 A 
HETATM    7  C12 UNL     1      20.548  -1.074  53.346  1.00  0.00     0.001 A 
HETATM    8  C13 UNL     1      19.731  -0.218  52.614  1.00  0.00     0.001 A 
HETATM    9  C14 UNL     1      20.258   0.986  52.196  1.00  0.00     0.013 A 
HETATM   10  C15 UNL     1      21.570   1.378  52.476  1.00  0.00    -0.016 A 
HETATM   11  O3  UNL     1      24.522  -0.024  54.268  1.00  0.00    -0.347 OA
HETATM   12  C16 UNL     1      25.156  -1.146  53.745  1.00  0.00     0.212 C 
HETATM   13  C17 UNL     1      26.098  -0.930  52.613  1.00  0.00     0.176 C 
HETATM   14  C18 UNL     1      27.346  -0.183  52.971  1.00  0.00    -0.014 A 
HETATM   15  C19 UNL     1      28.427  -0.935  53.448  1.00  0.00     0.011 A 
HETATM   16  C20 UNL     1      29.650  -0.434  53.799  1.00  0.00     0.001 A 
HETATM   17  C21 UNL     1      29.876   0.918  53.688  1.00  0.00     0.001 A 
HETATM   18  C22 UNL     1      28.797   1.677  53.211  1.00  0.00     0.016 A 
HETATM   19  C23 UNL     1      27.565   1.170  52.858  1.00  0.00     0.019 A 
HETATM   20  C24 UNL     1      26.500   2.091  52.398  1.00  0.00     0.164 C 
HETATM   21  O5  UNL     1      26.955   2.146  51.241  1.00  0.00    -0.292 OA
HETATM   22  C25 UNL     1      25.523   2.444  53.453  1.00  0.00     0.126 C 
ENDROOT
BRANCH   2  23
HETATM   23  C6  UNL     1      23.894   4.198  51.929  1.00  0.00     0.294 C 
HETATM   24  O1  UNL     1      23.541   4.930  52.888  1.00  0.00    -0.259 OA
BRANCH  23  25
HETATM   25  O2  UNL     1      24.586   4.823  50.923  1.00  0.00    -0.322 OA
HETATM   26  C7  UNL     1      24.653   4.178  49.664  1.00  0.00     0.213 C 
ENDBRANCH  23  25
ENDBRANCH   2  23
BRANCH   1  27
HETATM   27  C3  UNL     1      21.148   3.491  51.276  1.00  0.00     0.040 C 
BRANCH  27  28
HETATM   28  C2  UNL     1      21.169   3.233  49.781  1.00  0.00     0.000 C 
HETATM   29  C1  UNL     1      19.780   3.166  49.197  1.00  0.00     0.005 C 
ENDBRANCH  27  28
ENDBRANCH   1  27
BRANCH  13  30
HETATM   30  O4  UNL     1      26.537  -2.235  52.231  1.00  0.00    -0.389 OA
HETATM   31  H18 UNL     1      26.087  -2.870  52.860  1.00  0.00     0.210 HD
ENDBRANCH  13  30
TORSDOF 5
ENDMDL
MODEL 2
REMARK VINA RESULT:      -9.0      2.236      6.369
REMARK  5 active torsions:
REMARK  status: ('A' for Active; 'I' for Inactive)
REMARK    1  A    between atoms: C2_2  and  C3_3 
REMARK    2  A    between atoms: C3_3  and  C4_4 
REMARK    3  A    between atoms: C5_5  and  C6_6 
REMARK    4  A    between atoms: C6_6  and  O2_8 
REMARK    5  A    between atoms: C17_20  and  O4_21 
ROOT
HETATM    1  C4  UNL     1      24.690   2.879  50.956  1.00  0.00    -0.030 A 
HETATM    2  C5  UNL     1      23.454   2.446  50.480  1.00  0.00     0.056 A 
HETATM    3  C8  UNL     1      22.845   1.332  50.994  1.00  0.00     0.000 A 
HETATM    4  C9  UNL     1      23.398   0.569  52.006  1.00  0.00     0.087 A 
HETATM    5  C10 UNL     1      24.607   1.010  52.456  1.00  0.00     0.009 A 
HETATM    6  C11 UNL     1      25.251   0.311  53.452  1.00  0.00     0.015 A 
HETATM    7  C12 UNL     1      26.483   0.638  53.997  1.00  0.00     0.001 A 
HETATM    8  C13 UNL     1      27.128   1.765  53.497  1.00  0.00     0.001 A 
HETATM    9  C14 UNL     1      26.506   2.483  52.498  1.00  0.00     0.013 A 
HETATM   10  C15 UNL     1      25.262   2.126  51.970  1.00  0.00    -0.016 A 
HETATM   11  O3  UNL     1      22.731  -0.559  52.500  1.00  0.00    -0.347 OA
HETATM   12  C16 UNL     1      22.035  -0.599  53.704  1.00  0.00     0.212 C 
HETATM   13  C17 UNL     1      20.892   0.341  53.860  1.00  0.00     0.176 C 
HETATM   14  C18 UNL     1      19.717   0.053  52.977  1.00  0.00    -0.014 A 
HETATM   15  C19 UNL     1      18.762  -0.851  53.457  1.00  0.00     0.011 A 
HETATM   16  C20 UNL     1      17.616  -1.218  52.807  1.00  0.00     0.001 A 
HETATM   17  C21 UNL     1      17.345  -0.673  51.574  1.00  0.00     0.001 A 
HETATM   18  C22 UNL     1      18.297   0.234  51.086  1.00  0.00     0.016 A 
HETATM   19  C23 UNL     1      19.451   0.601  51.744  1.00  0.00     0.019 A 
HETATM   20  C24 UNL     1      20.390   1.548  51.098  1.00  0.00     0.164 C 
HETATM   21  O5  UNL     1      19.725   2.543  51.437  1.00  0.00    -0.292 OA
HETATM   22  C25 UNL     1      21.540   0.888  50.439  1.00  0.00     0.126 C 
ENDROOT
BRANCH   2  23
HETATM   23  C6  UNL     1      22.814   3.211  49.423  1.00  0.00     0.294 C 
HETATM   24  O1  UNL     1      23.208   2.567  48.418  1.00  0.00    -0.259 OA
BRANCH  23  25
HETATM   25  O2  UNL     1      22.008   4.290  49.163  1.00  0.00    -0.322 OA
HETATM   26  C7  UNL     1      21.738   5.187  50.225  1.00  0.00     0.213 C 
ENDBRANCH  23  25
ENDBRANCH   2  23
BRANCH   1  27
HETATM   27  C3  UNL     1      25.403   4.059  50.445  1.00  0.00     0.040 C 
BRANCH  27  28
HETATM   28  C2  UNL     1      26.390   3.742  49.337  1.00  0.00     0.000 C 
HETATM   29  C1  UNL     1      27.222   4.942  48.957  1.00  0.00     0.005 C 
ENDBRANCH  27  28
ENDBRANCH   1  27
BRANCH  13  30
HETATM   30  O4  UNL     1      20.417   0.143  55.193  1.00  0.00    -0.389 OA
HETATM   31  H18 UNL     1      20.391   1.052  55.612  1.00  0.00     0.210 HD
ENDBRANCH  13  30
TORSDOF 5
ENDMDL
MODEL 3
REMARK VINA RESULT:      -9.0      2.603      6.054
REMARK  5 active torsions:
REMARK  status: ('A' for Active; 'I' for Inactive)
REMARK    1  A    between atoms: C2_2  and  C3_3 
REMARK    2  A    between atoms: C3_3  and  C4_4 
REMARK    3  A    between atoms: C5_5  and  C6_6 
REMARK    4  A    between atoms: C6_6  and  O2_8 
REMARK    5  A    between atoms: C17_20  and  O4_21 
ROOT
HETATM    1  C4  UNL     1      24.200   6.090  48.624  1.00  0.00    -0.030 A 
HETATM    2  C5  UNL     1      23.468   5.018  49.128  1.00  0.00     0.056 A 
HETATM    3  C8  UNL     1      24.087   3.871  49.552  1.00  0.00     0.000 A 
HETATM    4  C9  UNL     1      25.458   3.694  49.514  1.00  0.00     0.087 A 
HETATM    5  C10 UNL     1      26.155   4.756  49.016  1.00  0.00     0.009 A 
HETATM    6  C11 UNL     1      27.526   4.676  48.921  1.00  0.00     0.015 A 
HETATM    7  C12 UNL     1      28.357   5.670  48.428  1.00  0.00     0.001 A 
HETATM    8  C13 UNL     1      27.760   6.849  47.991  1.00  0.00     0.001 A 
HETATM    9  C14 UNL     1      26.388   6.954  48.074  1.00  0.00     0.013 A 
HETATM   10  C15 UNL     1      25.577   5.932  48.576  1.00  0.00    -0.016 A 
HETATM   11  O3  UNL     1      26.041   2.504  49.964  1.00  0.00    -0.347 OA
HETATM   12  C16 UNL     1      26.686   2.355  51.188  1.00  0.00     0.212 C 
HETATM   13  C17 UNL     1      25.884   2.612  52.415  1.00  0.00     0.176 C 
HETATM   14  C18 UNL     1      24.797   1.614  52.675  1.00  0.00    -0.014 A 
HETATM   15  C19 UNL     1      25.143   0.466  53.399  1.00  0.00     0.011 A 
HETATM   16  C20 UNL     1      24.286  -0.539  53.752  1.00  0.00     0.001 A 
HETATM   17  C21 UNL     1      22.964  -0.450  53.383  1.00  0.00     0.001 A 
HETATM   18  C22 UNL     1      22.611   0.696  52.658  1.00  0.00     0.016 A 
HETATM   19  C23 UNL     1      23.477   1.708  52.302  1.00  0.00     0.019 A 
HETATM   20  C24 UNL     1      22.977   2.852  51.505  1.00  0.00     0.164 C 
HETATM   21  O5  UNL     1      22.507   3.428  52.502  1.00  0.00    -0.292 OA
HETATM   22  C25 UNL     1      23.267   2.740  50.057  1.00  0.00     0.126 C 
ENDROOT
BRANCH   2  23
HETATM   23  C6  UNL     1      22.023   5.143  49.205  1.00  0.00     0.294 C 
HETATM   24  O1  UNL     1      21.705   4.707  48.069  1.00  0.00    -0.259 OA
BRANCH  23  25
HETATM   25  O2  UNL     1      20.981   5.535  50.007  1.00  0.00    -0.322 OA
HETATM   26  C7  UNL     1      19.934   4.609  50.234  1.00  0.00     0.213 C 
ENDBRANCH  23  25
ENDBRANCH   2  23
BRANCH   1  27
HETATM   27  C3  UNL     1      23.602   7.345  48.146  1.00  0.00     0.040 C 
BRANCH  27  28
HETATM   28  C2  UNL     1      23.363   8.363  49.245  1.00  0.00     0.000 C 
HETATM   29  C1  UNL     1      21.964   8.928  49.200  1.00  0.00     0.005 C 
ENDBRANCH  27  28
ENDBRANCH   1  27
BRANCH  13  30
HETATM   30  O4  UNL     1      26.798   2.464  53.503  1.00  0.00    -0.389 OA
HETATM   31  H18 UNL     1      26.954   1.480  53.597  1.00  0.00     0.210 HD
ENDBRANCH  13  30
TORSDOF 5
ENDMDL
MODEL 4
REMARK VINA RESULT:      -9.0      1.873      7.048
REMARK  5 active torsions:
REMARK  status: ('A' for Active; 'I' for Inactive)
REMARK    1  A    between atoms: C2_2  and  C3_3 
REMARK    2  A    between atoms: C3_3  and  C4_4 
REMARK    3  A    between atoms: C5_5  and  C6_6 
REMARK    4  A    between atoms: C6_6  and  O2_8 
REMARK    5  A    between atoms: C17_20  and  O4_21 
ROOT
HETATM    1  C4  UNL     1      26.148   1.530  52.144  1.00  0.00    -0.030 A 
HETATM    2  C5  UNL     1      25.096   0.976  52.869  1.00  0.00     0.056 A 
HETATM    3  C8  UNL     1      23.805   1.395  52.683  1.00  0.00     0.000 A 
HETATM    4  C9  UNL     1      23.455   2.381  51.778  1.00  0.00     0.087 A 
HETATM    5  C10 UNL     1      24.501   2.910  51.080  1.00  0.00     0.009 A 
HETATM    6  C11 UNL     1      24.261   3.909  50.164  1.00  0.00     0.015 A 
HETATM    7  C12 UNL     1      25.225   4.542  49.394  1.00  0.00     0.001 A 
HETATM    8  C13 UNL     1      26.546   4.138  49.558  1.00  0.00     0.001 A 
HETATM    9  C14 UNL     1      26.814   3.140  50.470  1.00  0.00     0.013 A 
HETATM   10  C15 UNL     1      25.818   2.521  51.232  1.00  0.00    -0.016 A 
HETATM   11  O3  UNL     1      22.119   2.770  51.622  1.00  0.00    -0.347 OA
HETATM   12  C16 UNL     1      21.304   2.384  50.563  1.00  0.00     0.212 C 
HETATM   13  C17 UNL     1      21.065   0.926  50.385  1.00  0.00     0.176 C 
HETATM   14  C18 UNL     1      20.250   0.287  51.467  1.00  0.00    -0.014 A 
HETATM   15  C19 UNL     1      18.857   0.316  51.320  1.00  0.00     0.011 A 
HETATM   16  C20 UNL     1      17.955  -0.234  52.188  1.00  0.00     0.001 A 
HETATM   17  C21 UNL     1      18.417  -0.880  53.311  1.00  0.00     0.001 A 
HETATM   18  C22 UNL     1      19.810  -0.912  53.465  1.00  0.00     0.016 A 
HETATM   19  C23 UNL     1      20.717  -0.356  52.589  1.00  0.00     0.019 A 
HETATM   20  C24 UNL     1      22.166  -0.436  52.889  1.00  0.00     0.164 C 
HETATM   21  O5  UNL     1      22.261  -1.597  52.454  1.00  0.00    -0.292 OA
HETATM   22  C25 UNL     1      22.716   0.798  53.496  1.00  0.00     0.126 C 
ENDROOT
BRANCH   2  23
HETATM   23  C6  UNL     1      25.396  -0.072  53.830  1.00  0.00     0.294 C 
HETATM   24  O1  UNL     1      25.517  -1.053  53.052  1.00  0.00    -0.259 OA
BRANCH  23  25
HETATM   25  O2  UNL     1      25.575  -0.341  55.163  1.00  0.00    -0.322 OA
HETATM   26  C7  UNL     1      24.658  -1.220  55.791  1.00  0.00     0.213 C 
ENDBRANCH  23  25
ENDBRANCH   2  23
BRANCH   1  27
HETATM   27  C3  UNL     1      27.556   1.134  52.298  1.00  0.00     0.040 C 
BRANCH  27  28
HETATM   28  C2  UNL     1      28.273   1.859  53.421  1.00  0.00     0.000 C 
HETATM   29  C1  UNL     1      29.015   0.909  54.329  1.00  0.00     0.005 C 
ENDBRANCH  27  28
ENDBRANCH   1  27
BRANCH  13  30
HETATM   30  O4  UNL     1      20.273   0.814  49.201  1.00  0.00    -0.389 OA
HETATM   31  H18 UNL     1      20.489  -0.083  48.812  1.00  0.00     0.210 HD
ENDBRANCH  13  30
TORSDOF 5
ENDMDL
MODEL 5
REMARK VINA RESULT:      -8.6      2.007      6.429
REMARK  5 active torsions:
REMARK  status: ('A' for Active; 'I' for Inactive)
REMARK    1  A    between atoms: C2_2  and  C3_3 
REMARK    2  A    between atoms: C3_3  and  C4_4 
REMARK    3  A    between atoms: C5_5  and  C6_6 
REMARK    4  A    between atoms: C6_6  and  O2_8 
REMARK    5  A    between atoms: C17_20  and  O4_21 
ROOT
HETATM    1  C4  UNL     1      24.306   0.567  53.066  1.00  0.00    -0.030 A 
HETATM    2  C5  UNL     1      24.191   1.395  51.951  1.00  0.00     0.056 A 
HETATM    3  C8  UNL     1      23.005   1.519  51.277  1.00  0.00     0.000 A 
HETATM    4  C9  UNL     1      21.854   0.847  51.645  1.00  0.00     0.087 A 
HETATM    5  C10 UNL     1      21.989   0.042  52.738  1.00  0.00     0.009 A 
HETATM    6  C11 UNL     1      20.905  -0.684  53.178  1.00  0.00     0.015 A 
HETATM    7  C12 UNL     1      20.901  -1.545  54.264  1.00  0.00     0.001 A 
HETATM    8  C13 UNL     1      22.091  -1.693  54.971  1.00  0.00     0.001 A 
HETATM    9  C14 UNL     1      23.192  -0.978  54.551  1.00  0.00     0.013 A 
HETATM   10  C15 UNL     1      23.163  -0.117  53.450  1.00  0.00    -0.016 A 
HETATM   11  O3  UNL     1      20.664   1.013  50.925  1.00  0.00    -0.347 OA
HETATM   12  C16 UNL     1      19.592   1.794  51.343  1.00  0.00     0.212 C 
HETATM   13  C17 UNL     1      19.849   3.244  51.558  1.00  0.00     0.176 C 
HETATM   14  C18 UNL     1      20.148   4.020  50.312  1.00  0.00    -0.014 A 
HETATM   15  C19 UNL     1      19.056   4.537  49.604  1.00  0.00     0.011 A 
HETATM   16  C20 UNL     1      19.131   5.288  48.464  1.00  0.00     0.001 A 
HETATM   17  C21 UNL     1      20.368   5.582  47.938  1.00  0.00     0.001 A 
HETATM   18  C22 UNL     1      21.466   5.067  48.642  1.00  0.00     0.016 A 
HETATM   19  C23 UNL     1      21.387   4.309  49.791  1.00  0.00     0.019 A 
HETATM   20  C24 UNL     1      22.629   3.800  50.417  1.00  0.00     0.164 C 
HETATM   21  O5  UNL     1      22.863   4.880  50.989  1.00  0.00    -0.292 OA
HETATM   22  C25 UNL     1      22.932   2.391  50.077  1.00  0.00     0.126 C 
ENDROOT
BRANCH   2  23
HETATM   23  C6  UNL     1      25.363   2.138  51.519  1.00  0.00     0.294 C 
HETATM   24  O1  UNL     1      25.330   3.093  52.336  1.00  0.00    -0.259 OA
BRANCH  23  25
HETATM   25  O2  UNL     1      26.394   2.161  50.614  1.00  0.00    -0.322 OA
HETATM   26  C7  UNL     1      26.512   3.293  49.772  1.00  0.00     0.213 C 
ENDBRANCH  23  25
ENDBRANCH   2  23
BRANCH   1  27
HETATM   27  C3  UNL     1      25.548   0.381  53.831  1.00  0.00     0.040 C 
BRANCH  27  28
HETATM   28  C2  UNL     1      26.427  -0.738  53.303  1.00  0.00     0.000 C 
HETATM   29  C1  UNL     1      27.854  -0.292  53.101  1.00  0.00     0.005 C 
ENDBRANCH  27  28
ENDBRANCH   1  27
BRANCH  13  30
HETATM   30  O4  UNL     1      18.618   3.778  52.049  1.00  0.00    -0.389 OA
HETATM   31  H18 UNL     1      18.609   4.740  51.772  1.00  0.00     0.210 HD
ENDBRANCH  13  30
TORSDOF 5
ENDMDL
MODEL 6
REMARK VINA RESULT:      -8.0      2.171      6.037
REMARK  5 active torsions:
REMARK  status: ('A' for Active; 'I' for Inactive)
REMARK    1  A    between atoms: C2_2  and  C3_3 
REMARK    2  A    between atoms: C3_3  and  C4_4 
REMARK    3  A    between atoms: C5_5  and  C6_6 
REMARK    4  A    between atoms: C6_6  and  O2_8 
REMARK    5  A    between atoms: C17_20  and  O4_21 
ROOT
HETATM    1  C4  UNL     1      22.339   1.202  52.323  1.00  0.00    -0.030 A 
HETATM    2  C5  UNL     1      23.414   1.923  51.810  1.00  0.00     0.056 A 
HETATM    3  C8  UNL     1      23.354   2.502  50.569  1.00  0.00     0.000 A 
HETATM    4  C9  UNL     1      22.243   2.417  49.750  1.00  0.00     0.087 A 
HETATM    5  C10 UNL     1      21.204   1.706  50.272  1.00  0.00     0.009 A 
HETATM    6  C11 UNL     1      20.055   1.548  49.530  1.00  0.00     0.015 A 
HETATM    7  C12 UNL     1      18.929   0.846  49.929  1.00  0.00     0.001 A 
HETATM    8  C13 UNL     1      18.957   0.247  51.185  1.00  0.00     0.001 A 
HETATM    9  C14 UNL     1      20.096   0.388  51.949  1.00  0.00     0.013 A 
HETATM   10  C15 UNL     1      21.216   1.104  51.516  1.00  0.00    -0.016 A 
HETATM   11  O3  UNL     1      22.231   3.032  48.492  1.00  0.00    -0.347 OA
HETATM   12  C16 UNL     1      21.575   4.225  48.203  1.00  0.00     0.212 C 
HETATM   13  C17 UNL     1      21.994   5.433  48.965  1.00  0.00     0.176 C 
HETATM   14  C18 UNL     1      23.376   5.921  48.656  1.00  0.00    -0.014 A 
HETATM   15  C19 UNL     1      23.515   6.811  47.584  1.00  0.00     0.011 A 
HETATM   16  C20 UNL     1      24.688   7.380  47.170  1.00  0.00     0.001 A 
HETATM   17  C21 UNL     1      25.850   7.077  47.839  1.00  0.00     0.001 A 
HETATM   18  C22 UNL     1      25.718   6.186  48.914  1.00  0.00     0.016 A 
HETATM   19  C23 UNL     1      24.535   5.613  49.329  1.00  0.00     0.019 A 
HETATM   20  C24 UNL     1      24.542   4.661  50.464  1.00  0.00     0.164 C 
HETATM   21  O5  UNL     1      24.552   5.569  51.313  1.00  0.00    -0.292 OA
HETATM   22  C25 UNL     1      24.532   3.240  50.047  1.00  0.00     0.126 C 
ENDROOT
BRANCH   2  23
HETATM   23  C6  UNL     1      24.609   2.059  52.626  1.00  0.00     0.294 C 
HETATM   24  O1  UNL     1      24.273   3.034  53.344  1.00  0.00    -0.259 OA
BRANCH  23  25
HETATM   25  O2  UNL     1      25.858   1.544  52.863  1.00  0.00    -0.322 OA
HETATM   26  C7  UNL     1      26.318   0.505  52.018  1.00  0.00     0.213 C 
ENDBRANCH  23  25
ENDBRANCH   2  23
BRANCH   1  27
HETATM   27  C3  UNL     1      22.338   0.549  53.641  1.00  0.00     0.040 C 
BRANCH  27  28
HETATM   28  C2  UNL     1      22.760  -0.908  53.599  1.00  0.00     0.000 C 
HETATM   29  C1  UNL     1      21.784  -1.803  54.322  1.00  0.00     0.005 C 
ENDBRANCH  27  28
ENDBRANCH   1  27
BRANCH  13  30
HETATM   30  O4  UNL     1      21.120   6.477  48.530  1.00  0.00    -0.389 OA
HETATM   31  H18 UNL     1      20.461   6.607  49.272  1.00  0.00     0.210 HD
ENDBRANCH  13  30
TORSDOF 5
ENDMDL
MODEL 7
REMARK VINA RESULT:      -7.8      4.143      9.198
REMARK  5 active torsions:
REMARK  status: ('A' for Active; 'I' for Inactive)
REMARK    1  A    between atoms: C2_2  and  C3_3 
REMARK    2  A    between atoms: C3_3  and  C4_4 
REMARK    3  A    between atoms: C5_5  and  C6_6 
REMARK    4  A    between atoms: C6_6  and  O2_8 
REMARK    5  A    between atoms: C17_20  and  O4_21 
ROOT
HETATM    1  C4  UNL     1      25.658   4.393  49.779  1.00  0.00    -0.030 A 
HETATM    2  C5  UNL     1      24.485   4.959  50.274  1.00  0.00     0.056 A 
HETATM    3  C8  UNL     1      24.256   6.307  50.192  1.00  0.00     0.000 A 
HETATM    4  C9  UNL     1      25.154   7.191  49.621  1.00  0.00     0.087 A 
HETATM    5  C10 UNL     1      26.295   6.616  49.144  1.00  0.00     0.009 A 
HETATM    6  C11 UNL     1      27.260   7.412  48.569  1.00  0.00     0.015 A 
HETATM    7  C12 UNL     1      28.467   6.967  48.053  1.00  0.00     0.001 A 
HETATM    8  C13 UNL     1      28.730   5.602  48.121  1.00  0.00     0.001 A 
HETATM    9  C14 UNL     1      27.780   4.782  48.692  1.00  0.00     0.013 A 
HETATM   10  C15 UNL     1      26.571   5.264  49.204  1.00  0.00    -0.016 A 
HETATM   11  O3  UNL     1      24.869   8.561  49.557  1.00  0.00    -0.347 OA
HETATM   12  C16 UNL     1      24.446   9.226  48.410  1.00  0.00     0.212 C 
HETATM   13  C17 UNL     1      23.172   8.771  47.791  1.00  0.00     0.176 C 
HETATM   14  C18 UNL     1      21.945   9.044  48.606  1.00  0.00    -0.014 A 
HETATM   15  C19 UNL     1      21.332  10.293  48.440  1.00  0.00     0.011 A 
HETATM   16  C20 UNL     1      20.196  10.711  49.077  1.00  0.00     0.001 A 
HETATM   17  C21 UNL     1      19.575   9.862  49.962  1.00  0.00     0.001 A 
HETATM   18  C22 UNL     1      20.183   8.610  50.133  1.00  0.00     0.016 A 
HETATM   19  C23 UNL     1      21.329   8.191  49.491  1.00  0.00     0.019 A 
HETATM   20  C24 UNL     1      21.885   6.851  49.789  1.00  0.00     0.164 C 
HETATM   21  O5  UNL     1      21.089   6.277  49.024  1.00  0.00    -0.292 OA
HETATM   22  C25 UNL     1      23.005   6.874  50.757  1.00  0.00     0.126 C 
ENDROOT
BRANCH   2  23
HETATM   23  C6  UNL     1      23.497   4.082  50.878  1.00  0.00     0.294 C 
HETATM   24  O1  UNL     1      23.850   4.150  52.083  1.00  0.00    -0.259 OA
BRANCH  23  25
HETATM   25  O2  UNL     1      22.415   3.279  50.618  1.00  0.00    -0.322 OA
HETATM   26  C7  UNL     1      22.238   2.814  49.292  1.00  0.00     0.213 C 
ENDBRANCH  23  25
ENDBRANCH   2  23
BRANCH   1  27
HETATM   27  C3  UNL     1      25.972   2.958  49.841  1.00  0.00     0.040 C 
BRANCH  27  28
HETATM   28  C2  UNL     1      26.696   2.547  51.110  1.00  0.00     0.000 C 
HETATM   29  C1  UNL     1      26.077   1.327  51.747  1.00  0.00     0.005 C 
ENDBRANCH  27  28
ENDBRANCH   1  27
BRANCH  13  30
HETATM   30  O4  UNL     1      23.022   9.560  46.609  1.00  0.00    -0.389 OA
HETATM   31  H18 UNL     1      22.100   9.948  46.656  1.00  0.00     0.210 HD
ENDBRANCH  13  30
TORSDOF 5
ENDMDL
MODEL 8
REMARK VINA RESULT:      -7.2      2.305      4.156
REMARK  5 active torsions:
REMARK  status: ('A' for Active; 'I' for Inactive)
REMARK    1  A    between atoms: C2_2  and  C3_3 
REMARK    2  A    between atoms: C3_3  and  C4_4 
REMARK    3  A    between atoms: C5_5  and  C6_6 
REMARK    4  A    between atoms: C6_6  and  O2_8 
REMARK    5  A    between atoms: C17_20  and  O4_21 
ROOT
HETATM    1  C4  UNL     1      21.900   5.685  50.093  1.00  0.00    -0.030 A 
HETATM    2  C5  UNL     1      22.941   5.219  50.892  1.00  0.00     0.056 A 
HETATM    3  C8  UNL     1      22.728   4.264  51.852  1.00  0.00     0.000 A 
HETATM    4  C9  UNL     1      21.487   3.702  52.094  1.00  0.00     0.087 A 
HETATM    5  C10 UNL     1      20.483   4.173  51.301  1.00  0.00     0.009 A 
HETATM    6  C11 UNL     1      19.206   3.688  51.471  1.00  0.00     0.015 A 
HETATM    7  C12 UNL     1      18.093   4.082  50.745  1.00  0.00     0.001 A 
HETATM    8  C13 UNL     1      18.276   5.049  49.762  1.00  0.00     0.001 A 
HETATM    9  C14 UNL     1      19.545   5.552  49.571  1.00  0.00     0.013 A 
HETATM   10  C15 UNL     1      20.648   5.133  50.321  1.00  0.00    -0.016 A 
HETATM   11  O3  UNL     1      21.324   2.725  53.084  1.00  0.00    -0.347 OA
HETATM   12  C16 UNL     1      21.197   1.363  52.835  1.00  0.00     0.212 C 
HETATM   13  C17 UNL     1      22.327   0.691  52.137  1.00  0.00     0.176 C 
HETATM   14  C18 UNL     1      23.592   0.600  52.935  1.00  0.00    -0.014 A 
HETATM   15  C19 UNL     1      23.736  -0.507  53.780  1.00  0.00     0.011 A 
HETATM   16  C20 UNL     1      24.826  -0.773  54.563  1.00  0.00     0.001 A 
HETATM   17  C21 UNL     1      25.890   0.098  54.544  1.00  0.00     0.001 A 
HETATM   18  C22 UNL     1      25.752   1.209  53.700  1.00  0.00     0.016 A 
HETATM   19  C23 UNL     1      24.652   1.475  52.913  1.00  0.00     0.019 A 
HETATM   20  C24 UNL     1      24.624   2.706  52.089  1.00  0.00     0.164 C 
HETATM   21  O5  UNL     1      25.311   2.197  51.185  1.00  0.00    -0.292 OA
HETATM   22  C25 UNL     1      23.859   3.814  52.703  1.00  0.00     0.126 C 
ENDROOT
BRANCH   2  23
HETATM   23  C6  UNL     1      24.271   5.763  50.682  1.00  0.00     0.294 C 
HETATM   24  O1  UNL     1      24.258   6.702  51.517  1.00  0.00    -0.259 OA
BRANCH  23  25
HETATM   25  O2  UNL     1      25.428   5.624  49.957  1.00  0.00    -0.322 OA
HETATM   26  C7  UNL     1      26.031   6.796  49.440  1.00  0.00     0.213 C 
ENDBRANCH  23  25
ENDBRANCH   2  23
BRANCH   1  27
HETATM   27  C3  UNL     1      22.056   6.711  49.051  1.00  0.00     0.040 C 
BRANCH  27  28
HETATM   28  C2  UNL     1      21.870   8.128  49.559  1.00  0.00     0.000 C 
HETATM   29  C1  UNL     1      22.834   9.094  48.915  1.00  0.00     0.005 C 
ENDBRANCH  27  28
ENDBRANCH   1  27
BRANCH  13  30
HETATM   30  O4  UNL     1      21.905  -0.661  51.946  1.00  0.00    -0.389 OA
HETATM   31  H18 UNL     1      21.719  -0.752  50.967  1.00  0.00     0.210 HD
ENDBRANCH  13  30
TORSDOF 5
ENDMDL
MODEL 9
REMARK VINA RESULT:      -7.0      8.108     11.971
REMARK  5 active torsions:
REMARK  status: ('A' for Active; 'I' for Inactive)
REMARK    1  A    between atoms: C2_2  and  C3_3 
REMARK    2  A    between atoms: C3_3  and  C4_4 
REMARK    3  A    between atoms: C5_5  and  C6_6 
REMARK    4  A    between atoms: C6_6  and  O2_8 
REMARK    5  A    between atoms: C17_20  and  O4_21 
ROOT
HETATM    1  C4  UNL     1      30.275   6.242  47.524  1.00  0.00    -0.030 A 
HETATM    2  C5  UNL     1      30.664   7.376  46.815  1.00  0.00     0.056 A 
HETATM    3  C8  UNL     1      29.763   8.358  46.494  1.00  0.00     0.000 A 
HETATM    4  C9  UNL     1      28.426   8.298  46.844  1.00  0.00     0.087 A 
HETATM    5  C10 UNL     1      28.067   7.179  47.536  1.00  0.00     0.009 A 
HETATM    6  C11 UNL     1      26.755   7.016  47.918  1.00  0.00     0.015 A 
HETATM    7  C12 UNL     1      26.250   5.929  48.615  1.00  0.00     0.001 A 
HETATM    8  C13 UNL     1      27.139   4.915  48.958  1.00  0.00     0.001 A 
HETATM    9  C14 UNL     1      28.460   5.054  48.586  1.00  0.00     0.013 A 
HETATM   10  C15 UNL     1      28.937   6.163  47.883  1.00  0.00    -0.016 A 
HETATM   11  O3  UNL     1      27.547   9.331  46.495  1.00  0.00    -0.347 OA
HETATM   12  C16 UNL     1      27.088  10.306  47.375  1.00  0.00     0.212 C 
HETATM   13  C17 UNL     1      28.109  11.178  48.017  1.00  0.00     0.176 C 
HETATM   14  C18 UNL     1      28.813  12.113  47.082  1.00  0.00    -0.014 A 
HETATM   15  C19 UNL     1      28.211  13.355  46.845  1.00  0.00     0.011 A 
HETATM   16  C20 UNL     1      28.716  14.343  46.046  1.00  0.00     0.001 A 
HETATM   17  C21 UNL     1      29.914  14.136  45.404  1.00  0.00     0.001 A 
HETATM   18  C22 UNL     1      30.522  12.894  45.636  1.00  0.00     0.016 A 
HETATM   19  C23 UNL     1      30.011  11.900  46.442  1.00  0.00     0.019 A 
HETATM   20  C24 UNL     1      30.744  10.619  46.575  1.00  0.00     0.164 C 
HETATM   21  O5  UNL     1      31.531  11.080  47.420  1.00  0.00    -0.292 OA
HETATM   22  C25 UNL     1      30.212   9.538  45.713  1.00  0.00     0.126 C 
ENDROOT
BRANCH   2  23
HETATM   23  C6  UNL     1      32.058   7.504  46.427  1.00  0.00     0.294 C 
HETATM   24  O1  UNL     1      32.000   7.056  45.254  1.00  0.00    -0.259 OA
BRANCH  23  25
HETATM   25  O2  UNL     1      33.299   7.904  46.853  1.00  0.00    -0.322 OA
HETATM   26  C7  UNL     1      33.474   8.163  48.234  1.00  0.00     0.213 C 
ENDBRANCH  23  25
ENDBRANCH   2  23
BRANCH   1  27
HETATM   27  C3  UNL     1      31.185   5.149  47.895  1.00  0.00     0.040 C 
BRANCH  27  28
HETATM   28  C2  UNL     1      31.248   4.033  46.868  1.00  0.00     0.000 C 
HETATM   29  C1  UNL     1      32.665   3.721  46.455  1.00  0.00     0.005 C 
ENDBRANCH  27  28
ENDBRANCH   1  27
BRANCH  13  30
HETATM   30  O4  UNL     1      27.379  12.020  48.912  1.00  0.00    -0.389 OA
HETATM   31  H18 UNL     1      26.464  12.111  48.516  1.00  0.00     0.210 HD
ENDBRANCH  13  30
TORSDOF 5
ENDMDL
