MODEL 1
REMARK VINA RESULT:      -8.2      0.000      0.000
REMARK  6 active torsions:
REMARK  status: ('A' for Active; 'I' for Inactive)
REMARK    1  A    between atoms: N1_2  and  C2_3 
REMARK    2  A    between atoms: C4_5  and  O1_6 
REMARK    3  A    between atoms: O1_6  and  C5_7 
REMARK    4  A    between atoms: C11_14  and  C12_15 
REMARK    5  A    between atoms: C12_15  and  N3_17 
REMARK    6  A    between atoms: N3_17  and  C13_18 
ROOT
HETATM    1  C2  UNL     1      22.898   4.147  51.920  1.00  0.00     0.075 A 
HETATM    2  C3  UNL     1      21.517   4.193  51.973  1.00  0.00     0.072 A 
HETATM    3  C4  UNL     1      20.735   3.094  52.358  1.00  0.00     0.107 A 
HETATM    4  C9  UNL     1      21.438   1.946  52.686  1.00  0.00     0.136 A 
HETATM    5  C10 UNL     1      22.811   1.900  52.635  1.00  0.00     0.121 A 
HETATM    6  C11 UNL     1      23.559   2.984  52.255  1.00  0.00     0.074 A 
HETATM    7  O3  UNL     1      23.347   0.687  52.991  1.00  0.00    -0.345 OA
HETATM    8  C19 UNL     1      22.554  -0.477  52.869  1.00  0.00     0.202 C 
HETATM    9  C20 UNL     1      21.204  -0.293  53.502  1.00  0.00     0.202 C 
HETATM   10  O4  UNL     1      20.601   0.907  53.056  1.00  0.00    -0.344 OA
ENDROOT
BRANCH   6  11
HETATM   11  C12 UNL     1      25.012   2.866  52.224  1.00  0.00     0.136 C 
HETATM   12  N2  UNL     1      25.839   3.138  51.271  1.00  0.00    -0.283 NA
HETATM   13  H11 UNL     1      25.602   3.499  50.340  1.00  0.00     0.188 HD
BRANCH  11  14
HETATM   14  N3  UNL     1      25.698   2.380  53.384  1.00  0.00    -0.341 N 
HETATM   15  H12 UNL     1      25.476   2.736  54.362  1.00  0.00     0.167 HD
BRANCH  14  16
HETATM   16  C13 UNL     1      26.725   1.394  53.377  1.00  0.00     0.035 A 
HETATM   17  C14 UNL     1      28.017   1.784  53.752  1.00  0.00     0.032 A 
HETATM   18  C15 UNL     1      29.134   0.973  53.807  1.00  0.00     0.046 A 
HETATM   19  C16 UNL     1      28.943  -0.347  53.455  1.00  0.00     0.138 A 
HETATM   20  F1  UNL     1      30.006  -1.187  53.490  1.00  0.00    -0.204 F 
HETATM   21  C17 UNL     1      27.691  -0.782  53.078  1.00  0.00     0.074 A 
HETATM   22 CL1  UNL     1      27.423  -2.472  52.622  1.00  0.00    -0.081 Cl
HETATM   23  C18 UNL     1      26.596   0.047  53.033  1.00  0.00     0.056 A 
ENDBRANCH  14  16
ENDBRANCH  11  14
ENDBRANCH   6  11
BRANCH   1  24
HETATM   24  N1  UNL     1      23.721   5.237  51.535  1.00  0.00    -0.271 NA
HETATM   25  C1  UNL     1      23.219   6.254  50.892  1.00  0.00     0.149 C 
ENDBRANCH   1  24
BRANCH   3  26
HETATM   26  O1  UNL     1      19.418   3.411  52.322  1.00  0.00    -0.341 OA
BRANCH  26  27
HETATM   27  C5  UNL     1      18.377   2.907  51.566  1.00  0.00     0.154 C 
HETATM   28  C6  UNL     1      18.750   2.651  50.121  1.00  0.00     0.061 C 
HETATM   29  C7  UNL     1      18.627   4.031  49.542  1.00  0.00     0.170 C 
HETATM   30  O2  UNL     1      17.433   4.470  50.096  1.00  0.00    -0.389 OA
HETATM   31  C8  UNL     1      17.359   4.025  51.397  1.00  0.00     0.200 C 
ENDBRANCH  26  27
ENDBRANCH   3  26
TORSDOF 6
ENDMDL
MODEL 2
REMARK VINA RESULT:      -8.1      4.458      8.430
REMARK  6 active torsions:
REMARK  status: ('A' for Active; 'I' for Inactive)
REMARK    1  A    between atoms: N1_2  and  C2_3 
REMARK    2  A    between atoms: C4_5  and  O1_6 
REMARK    3  A    between atoms: O1_6  and  C5_7 
REMARK    4  A    between atoms: C11_14  and  C12_15 
REMARK    5  A    between atoms: C12_15  and  N3_17 
REMARK    6  A    between atoms: N3_17  and  C13_18 
ROOT
HETATM    1  C2  UNL     1      23.195   0.292  52.928  1.00  0.00     0.075 A 
HETATM    2  C3  UNL     1      24.466   0.597  53.375  1.00  0.00     0.072 A 
HETATM    3  C4  UNL     1      25.251   1.608  52.802  1.00  0.00     0.107 A 
HETATM    4  C9  UNL     1      24.667   2.291  51.746  1.00  0.00     0.136 A 
HETATM    5  C10 UNL     1      23.402   1.988  51.301  1.00  0.00     0.121 A 
HETATM    6  C11 UNL     1      22.650   0.996  51.875  1.00  0.00     0.074 A 
HETATM    7  O3  UNL     1      22.976   2.760  50.249  1.00  0.00    -0.345 OA
HETATM    8  C19 UNL     1      23.938   3.370  49.411  1.00  0.00     0.202 C 
HETATM    9  C20 UNL     1      24.980   4.100  50.210  1.00  0.00     0.202 C 
HETATM   10  O4  UNL     1      25.499   3.272  51.232  1.00  0.00    -0.344 OA
ENDROOT
BRANCH   6  11
HETATM   11  C12 UNL     1      21.315   0.728  51.354  1.00  0.00     0.136 C 
HETATM   12  N2  UNL     1      20.960   0.241  50.212  1.00  0.00    -0.283 NA
HETATM   13  H11 UNL     1      21.583  -0.053  49.452  1.00  0.00     0.188 HD
BRANCH  11  14
HETATM   14  N3  UNL     1      20.175   1.027  52.168  1.00  0.00    -0.341 N 
HETATM   15  H12 UNL     1      20.125   1.902  52.771  1.00  0.00     0.167 HD
BRANCH  14  16
HETATM   16  C13 UNL     1      19.007   0.220  52.272  1.00  0.00     0.035 A 
HETATM   17  C14 UNL     1      17.850   0.642  51.604  1.00  0.00     0.032 A 
HETATM   18  C15 UNL     1      16.630  -0.006  51.588  1.00  0.00     0.046 A 
HETATM   19  C16 UNL     1      16.558  -1.182  52.306  1.00  0.00     0.138 A 
HETATM   20  F1  UNL     1      15.384  -1.857  52.325  1.00  0.00    -0.204 F 
HETATM   21  C17 UNL     1      17.668  -1.641  52.982  1.00  0.00     0.074 A 
HETATM   22 CL1  UNL     1      17.598  -3.148  53.908  1.00  0.00    -0.081 Cl
HETATM   23  C18 UNL     1      18.871  -0.977  52.980  1.00  0.00     0.056 A 
ENDBRANCH  14  16
ENDBRANCH  11  14
ENDBRANCH   6  11
BRANCH   1  24
HETATM   24  N1  UNL     1      22.373  -0.724  53.484  1.00  0.00    -0.271 NA
HETATM   25  C1  UNL     1      22.184  -0.794  54.772  1.00  0.00     0.149 C 
ENDBRANCH   1  24
BRANCH   3  26
HETATM   26  O1  UNL     1      26.449   1.696  53.428  1.00  0.00    -0.341 OA
BRANCH  26  27
HETATM   27  C5  UNL     1      27.732   1.427  52.992  1.00  0.00     0.154 C 
HETATM   28  C6  UNL     1      28.257   0.085  53.457  1.00  0.00     0.061 C 
HETATM   29  C7  UNL     1      28.701   0.416  54.853  1.00  0.00     0.170 C 
HETATM   30  O2  UNL     1      29.361   1.622  54.665  1.00  0.00    -0.389 OA
HETATM   31  C8  UNL     1      28.670   2.365  53.735  1.00  0.00     0.200 C 
ENDBRANCH  26  27
ENDBRANCH   3  26
TORSDOF 6
ENDMDL
MODEL 3
REMARK VINA RESULT:      -8.0      4.256      7.966
REMARK  6 active torsions:
REMARK  status: ('A' for Active; 'I' for Inactive)
REMARK    1  A    between atoms: N1_2  and  C2_3 
REMARK    2  A    between atoms: C4_5  and  O1_6 
REMARK    3  A    between atoms: O1_6  and  C5_7 
REMARK    4  A    between atoms: C11_14  and  C12_15 
REMARK    5  A    between atoms: C12_15  and  N3_17 
REMARK    6  A    between atoms: N3_17  and  C13_18 
ROOT
HETATM    1  C2  UNL     1      23.645   2.091  51.227  1.00  0.00     0.075 A 
HETATM    2  C3  UNL     1      24.855   2.237  51.879  1.00  0.00     0.072 A 
HETATM    3  C4  UNL     1      25.218   1.461  52.989  1.00  0.00     0.107 A 
HETATM    4  C9  UNL     1      24.279   0.528  53.399  1.00  0.00     0.136 A 
HETATM    5  C10 UNL     1      23.076   0.381  52.750  1.00  0.00     0.121 A 
HETATM    6  C11 UNL     1      22.738   1.150  51.667  1.00  0.00     0.074 A 
HETATM    7  O3  UNL     1      22.263  -0.588  53.285  1.00  0.00    -0.345 OA
HETATM    8  C19 UNL     1      22.434  -0.957  54.639  1.00  0.00     0.202 C 
HETATM    9  C20 UNL     1      23.874  -1.247  54.953  1.00  0.00     0.202 C 
HETATM   10  O4  UNL     1      24.707  -0.199  54.497  1.00  0.00    -0.344 OA
ENDROOT
BRANCH   6  11
HETATM   11  C12 UNL     1      21.445   0.941  51.026  1.00  0.00     0.136 C 
HETATM   12  N2  UNL     1      21.173   0.448  49.864  1.00  0.00    -0.283 NA
HETATM   13  H11 UNL     1      21.848   0.106  49.171  1.00  0.00     0.188 HD
BRANCH  11  14
HETATM   14  N3  UNL     1      20.251   1.315  51.724  1.00  0.00    -0.341 N 
HETATM   15  H12 UNL     1      20.133   2.276  52.166  1.00  0.00     0.167 HD
BRANCH  14  16
HETATM   16  C13 UNL     1      19.113   0.481  51.909  1.00  0.00     0.035 A 
HETATM   17  C14 UNL     1      17.949   0.782  51.191  1.00  0.00     0.032 A 
HETATM   18  C15 UNL     1      16.754   0.090  51.239  1.00  0.00     0.046 A 
HETATM   19  C16 UNL     1      16.718  -1.001  52.082  1.00  0.00     0.138 A 
HETATM   20  F1  UNL     1      15.570  -1.715  52.168  1.00  0.00    -0.204 F 
HETATM   21  C17 UNL     1      17.837  -1.340  52.812  1.00  0.00     0.074 A 
HETATM   22 CL1  UNL     1      17.813  -2.737  53.899  1.00  0.00    -0.081 Cl
HETATM   23  C18 UNL     1      19.014  -0.635  52.744  1.00  0.00     0.056 A 
ENDBRANCH  14  16
ENDBRANCH  11  14
ENDBRANCH   6  11
BRANCH   1  24
HETATM   24  N1  UNL     1      23.243   2.858  50.102  1.00  0.00    -0.271 NA
HETATM   25  C1  UNL     1      24.092   3.639  49.494  1.00  0.00     0.149 C 
ENDBRANCH   1  24
BRANCH   3  26
HETATM   26  O1  UNL     1      26.451   1.809  53.432  1.00  0.00    -0.341 OA
BRANCH  26  27
HETATM   27  C5  UNL     1      27.713   1.485  52.972  1.00  0.00     0.154 C 
HETATM   28  C6  UNL     1      28.194   0.126  53.435  1.00  0.00     0.061 C 
HETATM   29  C7  UNL     1      28.678   0.448  54.820  1.00  0.00     0.170 C 
HETATM   30  O2  UNL     1      29.382   1.626  54.611  1.00  0.00    -0.389 OA
HETATM   31  C8  UNL     1      28.702   2.390  53.689  1.00  0.00     0.200 C 
ENDBRANCH  26  27
ENDBRANCH   3  26
TORSDOF 6
ENDMDL
MODEL 4
REMARK VINA RESULT:      -8.0      2.201      2.797
REMARK  6 active torsions:
REMARK  status: ('A' for Active; 'I' for Inactive)
REMARK    1  A    between atoms: N1_2  and  C2_3 
REMARK    2  A    between atoms: C4_5  and  O1_6 
REMARK    3  A    between atoms: O1_6  and  C5_7 
REMARK    4  A    between atoms: C11_14  and  C12_15 
REMARK    5  A    between atoms: C12_15  and  N3_17 
REMARK    6  A    between atoms: N3_17  and  C13_18 
ROOT
HETATM    1  C2  UNL     1      21.705   2.701  51.715  1.00  0.00     0.075 A 
HETATM    2  C3  UNL     1      20.438   2.152  51.755  1.00  0.00     0.072 A 
HETATM    3  C4  UNL     1      20.132   0.999  52.493  1.00  0.00     0.107 A 
HETATM    4  C9  UNL     1      21.191   0.436  53.188  1.00  0.00     0.136 A 
HETATM    5  C10 UNL     1      22.452   0.982  53.149  1.00  0.00     0.121 A 
HETATM    6  C11 UNL     1      22.732   2.109  52.421  1.00  0.00     0.074 A 
HETATM    7  O3  UNL     1      23.383   0.300  53.893  1.00  0.00    -0.345 OA
HETATM    8  C19 UNL     1      23.168  -1.068  54.176  1.00  0.00     0.202 C 
HETATM    9  C20 UNL     1      21.786  -1.309  54.715  1.00  0.00     0.202 C 
HETATM   10  O4  UNL     1      20.813  -0.695  53.892  1.00  0.00    -0.344 OA
ENDROOT
BRANCH   6  11
HETATM   11  C12 UNL     1      24.092   2.635  52.425  1.00  0.00     0.136 C 
HETATM   12  N2  UNL     1      24.557   3.708  52.973  1.00  0.00    -0.283 NA
HETATM   13  H11 UNL     1      24.027   4.395  53.519  1.00  0.00     0.188 HD
BRANCH  11  14
HETATM   14  N3  UNL     1      25.121   1.913  51.739  1.00  0.00    -0.341 N 
HETATM   15  H12 UNL     1      25.106   1.772  50.685  1.00  0.00     0.167 HD
BRANCH  14  16
HETATM   16  C13 UNL     1      26.255   1.314  52.358  1.00  0.00     0.035 A 
HETATM   17  C14 UNL     1      26.402  -0.076  52.265  1.00  0.00     0.032 A 
HETATM   18  C15 UNL     1      27.431  -0.828  52.797  1.00  0.00     0.046 A 
HETATM   19  C16 UNL     1      28.401  -0.129  53.485  1.00  0.00     0.138 A 
HETATM   20  F1  UNL     1      29.433  -0.819  54.029  1.00  0.00    -0.204 F 
HETATM   21  C17 UNL     1      28.303   1.240  53.606  1.00  0.00     0.074 A 
HETATM   22 CL1  UNL     1      29.537   2.157  54.485  1.00  0.00    -0.081 Cl
HETATM   23  C18 UNL     1      27.269   1.965  53.066  1.00  0.00     0.056 A 
ENDBRANCH  14  16
ENDBRANCH  11  14
ENDBRANCH   6  11
BRANCH   1  24
HETATM   24  N1  UNL     1      22.051   3.865  50.980  1.00  0.00    -0.271 NA
HETATM   25  C1  UNL     1      21.441   4.995  51.201  1.00  0.00     0.149 C 
ENDBRANCH   1  24
BRANCH   3  26
HETATM   26  O1  UNL     1      18.822   0.680  52.358  1.00  0.00    -0.341 OA
BRANCH  26  27
HETATM   27  C5  UNL     1      18.201  -0.412  51.783  1.00  0.00     0.154 C 
HETATM   28  C6  UNL     1      17.054  -0.040  50.867  1.00  0.00     0.061 C 
HETATM   29  C7  UNL     1      15.951   0.180  51.862  1.00  0.00     0.170 C 
HETATM   30  O2  UNL     1      16.106  -0.907  52.710  1.00  0.00    -0.389 OA
HETATM   31  C8  UNL     1      17.451  -1.141  52.887  1.00  0.00     0.200 C 
ENDBRANCH  26  27
ENDBRANCH   3  26
TORSDOF 6
ENDMDL
MODEL 5
REMARK VINA RESULT:      -7.8      4.013      7.350
REMARK  6 active torsions:
REMARK  status: ('A' for Active; 'I' for Inactive)
REMARK    1  A    between atoms: N1_2  and  C2_3 
REMARK    2  A    between atoms: C4_5  and  O1_6 
REMARK    3  A    between atoms: O1_6  and  C5_7 
REMARK    4  A    between atoms: C11_14  and  C12_15 
REMARK    5  A    between atoms: C12_15  and  N3_17 
REMARK    6  A    between atoms: N3_17  and  C13_18 
ROOT
HETATM    1  C2  UNL     1      23.003   2.716  52.266  1.00  0.00     0.075 A 
HETATM    2  C3  UNL     1      24.147   2.166  52.814  1.00  0.00     0.072 A 
HETATM    3  C4  UNL     1      24.162   0.910  53.437  1.00  0.00     0.107 A 
HETATM    4  C9  UNL     1      22.947   0.244  53.470  1.00  0.00     0.136 A 
HETATM    5  C10 UNL     1      21.809   0.789  52.924  1.00  0.00     0.121 A 
HETATM    6  C11 UNL     1      21.813   2.020  52.320  1.00  0.00     0.074 A 
HETATM    7  O3  UNL     1      20.693  -0.001  53.043  1.00  0.00    -0.345 OA
HETATM    8  C19 UNL     1      20.640  -0.963  54.078  1.00  0.00     0.202 C 
HETATM    9  C20 UNL     1      21.885  -1.803  54.114  1.00  0.00     0.202 C 
HETATM   10  O4  UNL     1      23.041  -0.987  54.098  1.00  0.00    -0.344 OA
ENDROOT
BRANCH   6  11
HETATM   11  C12 UNL     1      20.571   2.538  51.760  1.00  0.00     0.136 C 
HETATM   12  N2  UNL     1      19.755   3.415  52.243  1.00  0.00    -0.283 NA
HETATM   13  H11 UNL     1      19.849   3.914  53.134  1.00  0.00     0.188 HD
BRANCH  11  14
HETATM   14  N3  UNL     1      20.119   2.050  50.492  1.00  0.00    -0.341 N 
HETATM   15  H12 UNL     1      19.367   1.302  50.410  1.00  0.00     0.167 HD
BRANCH  14  16
HETATM   16  C13 UNL     1      20.601   2.486  49.226  1.00  0.00     0.035 A 
HETATM   17  C14 UNL     1      21.756   1.883  48.714  1.00  0.00     0.032 A 
HETATM   18  C15 UNL     1      22.367   2.173  47.509  1.00  0.00     0.046 A 
HETATM   19  C16 UNL     1      21.770   3.155  46.747  1.00  0.00     0.138 A 
HETATM   20  F1  UNL     1      22.329   3.480  45.556  1.00  0.00    -0.204 F 
HETATM   21  C17 UNL     1      20.631   3.780  47.205  1.00  0.00     0.074 A 
HETATM   22 CL1  UNL     1      19.848   5.043  46.243  1.00  0.00    -0.081 Cl
HETATM   23  C18 UNL     1      20.043   3.472  48.408  1.00  0.00     0.056 A 
ENDBRANCH  14  16
ENDBRANCH  11  14
ENDBRANCH   6  11
BRANCH   1  24
HETATM   24  N1  UNL     1      22.950   3.983  51.629  1.00  0.00    -0.271 NA
HETATM   25  C1  UNL     1      23.845   4.318  50.742  1.00  0.00     0.149 C 
ENDBRANCH   1  24
BRANCH   3  26
HETATM   26  O1  UNL     1      25.407   0.614  53.884  1.00  0.00    -0.341 OA
BRANCH  26  27
HETATM   27  C5  UNL     1      26.635   0.635  53.253  1.00  0.00     0.154 C 
HETATM   28  C6  UNL     1      26.719  -0.303  52.066  1.00  0.00     0.061 C 
HETATM   29  C7  UNL     1      26.988  -1.612  52.751  1.00  0.00     0.170 C 
HETATM   30  O2  UNL     1      27.952  -1.256  53.683  1.00  0.00    -0.389 OA
HETATM   31  C8  UNL     1      27.639  -0.016  54.193  1.00  0.00     0.200 C 
ENDBRANCH  26  27
ENDBRANCH   3  26
TORSDOF 6
ENDMDL
MODEL 6
REMARK VINA RESULT:      -7.8      4.334      6.996
REMARK  6 active torsions:
REMARK  status: ('A' for Active; 'I' for Inactive)
REMARK    1  A    between atoms: N1_2  and  C2_3 
REMARK    2  A    between atoms: C4_5  and  O1_6 
REMARK    3  A    between atoms: O1_6  and  C5_7 
REMARK    4  A    between atoms: C11_14  and  C12_15 
REMARK    5  A    between atoms: C12_15  and  N3_17 
REMARK    6  A    between atoms: N3_17  and  C13_18 
ROOT
HETATM    1  C2  UNL     1      26.046   2.349  51.891  1.00  0.00     0.075 A 
HETATM    2  C3  UNL     1      25.239   1.551  52.681  1.00  0.00     0.072 A 
HETATM    3  C4  UNL     1      23.846   1.497  52.534  1.00  0.00     0.107 A 
HETATM    4  C9  UNL     1      23.319   2.303  51.536  1.00  0.00     0.136 A 
HETATM    5  C10 UNL     1      24.120   3.096  50.749  1.00  0.00     0.121 A 
HETATM    6  C11 UNL     1      25.481   3.135  50.909  1.00  0.00     0.074 A 
HETATM    7  O3  UNL     1      23.438   3.829  49.811  1.00  0.00    -0.345 OA
HETATM    8  C19 UNL     1      22.074   4.128  50.032  1.00  0.00     0.202 C 
HETATM    9  C20 UNL     1      21.294   2.901  50.408  1.00  0.00     0.202 C 
HETATM   10  O4  UNL     1      21.941   2.196  51.450  1.00  0.00    -0.344 OA
ENDROOT
BRANCH   6  11
HETATM   11  C12 UNL     1      26.271   3.999  50.039  1.00  0.00     0.136 C 
HETATM   12  N2  UNL     1      27.162   3.685  49.159  1.00  0.00    -0.283 NA
HETATM   13  H11 UNL     1      27.475   2.739  48.914  1.00  0.00     0.188 HD
BRANCH  11  14
HETATM   14  N3  UNL     1      26.091   5.418  50.113  1.00  0.00    -0.341 N 
HETATM   15  H12 UNL     1      25.910   5.916  51.036  1.00  0.00     0.167 HD
BRANCH  14  16
HETATM   16  C13 UNL     1      26.130   6.309  49.005  1.00  0.00     0.035 A 
HETATM   17  C14 UNL     1      24.915   6.699  48.427  1.00  0.00     0.032 A 
HETATM   18  C15 UNL     1      24.756   7.553  47.352  1.00  0.00     0.046 A 
HETATM   19  C16 UNL     1      25.915   8.062  46.805  1.00  0.00     0.138 A 
HETATM   20  F1  UNL     1      25.816   8.904  45.747  1.00  0.00    -0.204 F 
HETATM   21  C17 UNL     1      27.136   7.709  47.336  1.00  0.00     0.074 A 
HETATM   22 CL1  UNL     1      28.636   8.352  46.649  1.00  0.00    -0.081 Cl
HETATM   23  C18 UNL     1      27.267   6.859  48.406  1.00  0.00     0.056 A 
ENDBRANCH  14  16
ENDBRANCH  11  14
ENDBRANCH   6  11
BRANCH   1  24
HETATM   24  N1  UNL     1      27.458   2.429  52.012  1.00  0.00    -0.271 NA
HETATM   25  C1  UNL     1      28.062   1.949  53.063  1.00  0.00     0.149 C 
ENDBRANCH   1  24
BRANCH   3  26
HETATM   26  O1  UNL     1      23.304   0.640  53.432  1.00  0.00    -0.341 OA
BRANCH  26  27
HETATM   27  C5  UNL     1      23.352  -0.738  53.526  1.00  0.00     0.154 C 
HETATM   28  C6  UNL     1      22.002  -1.401  53.349  1.00  0.00     0.061 C 
HETATM   29  C7  UNL     1      21.416  -1.235  54.722  1.00  0.00     0.170 C 
HETATM   30  O2  UNL     1      22.486  -1.580  55.535  1.00  0.00    -0.389 OA
HETATM   31  C8  UNL     1      23.643  -1.083  54.978  1.00  0.00     0.200 C 
ENDBRANCH  26  27
ENDBRANCH   3  26
TORSDOF 6
ENDMDL
MODEL 7
REMARK VINA RESULT:      -7.7      1.445      3.086
REMARK  6 active torsions:
REMARK  status: ('A' for Active; 'I' for Inactive)
REMARK    1  A    between atoms: N1_2  and  C2_3 
REMARK    2  A    between atoms: C4_5  and  O1_6 
REMARK    3  A    between atoms: O1_6  and  C5_7 
REMARK    4  A    between atoms: C11_14  and  C12_15 
REMARK    5  A    between atoms: C12_15  and  N3_17 
REMARK    6  A    between atoms: N3_17  and  C13_18 
ROOT
HETATM    1  C2  UNL     1      22.782   1.852  52.366  1.00  0.00     0.075 A 
HETATM    2  C3  UNL     1      21.434   2.152  52.316  1.00  0.00     0.072 A 
HETATM    3  C4  UNL     1      20.949   3.409  51.926  1.00  0.00     0.107 A 
HETATM    4  C9  UNL     1      21.916   4.344  51.590  1.00  0.00     0.136 A 
HETATM    5  C10 UNL     1      23.257   4.046  51.639  1.00  0.00     0.121 A 
HETATM    6  C11 UNL     1      23.712   2.812  52.023  1.00  0.00     0.074 A 
HETATM    7  O3  UNL     1      24.078   5.085  51.274  1.00  0.00    -0.345 OA
HETATM    8  C19 UNL     1      23.600   6.411  51.391  1.00  0.00     0.202 C 
HETATM    9  C20 UNL     1      22.245   6.566  50.762  1.00  0.00     0.202 C 
HETATM   10  O4  UNL     1      21.363   5.558  51.216  1.00  0.00    -0.344 OA
ENDROOT
BRANCH   6  11
HETATM   11  C12 UNL     1      25.148   2.564  52.051  1.00  0.00     0.136 C 
HETATM   12  N2  UNL     1      26.022   2.687  51.109  1.00  0.00    -0.283 NA
HETATM   13  H11 UNL     1      25.846   2.994  50.146  1.00  0.00     0.188 HD
BRANCH  11  14
HETATM   14  N3  UNL     1      25.755   2.111  53.267  1.00  0.00    -0.341 N 
HETATM   15  H12 UNL     1      25.416   2.436  54.222  1.00  0.00     0.167 HD
BRANCH  14  16
HETATM   16  C13 UNL     1      26.847   1.202  53.351  1.00  0.00     0.035 A 
HETATM   17  C14 UNL     1      28.083   1.693  53.791  1.00  0.00     0.032 A 
HETATM   18  C15 UNL     1      29.248   0.965  53.936  1.00  0.00     0.046 A 
HETATM   19  C16 UNL     1      29.173  -0.374  53.612  1.00  0.00     0.138 A 
HETATM   20  F1  UNL     1      30.288  -1.134  53.735  1.00  0.00    -0.204 F 
HETATM   21  C17 UNL     1      27.980  -0.906  53.173  1.00  0.00     0.074 A 
HETATM   22 CL1  UNL     1      27.860  -2.621  52.751  1.00  0.00    -0.081 Cl
HETATM   23  C18 UNL     1      26.835  -0.159  53.038  1.00  0.00     0.056 A 
ENDBRANCH  14  16
ENDBRANCH  11  14
ENDBRANCH   6  11
BRANCH   1  24
HETATM   24  N1  UNL     1      23.308   0.593  52.755  1.00  0.00    -0.271 NA
HETATM   25  C1  UNL     1      22.657  -0.170  53.588  1.00  0.00     0.149 C 
ENDBRANCH   1  24
BRANCH   3  26
HETATM   26  O1  UNL     1      19.595   3.432  51.966  1.00  0.00    -0.341 OA
BRANCH  26  27
HETATM   27  C5  UNL     1      18.647   3.212  50.986  1.00  0.00     0.154 C 
HETATM   28  C6  UNL     1      17.691   4.372  50.800  1.00  0.00     0.061 C 
HETATM   29  C7  UNL     1      16.723   4.132  51.922  1.00  0.00     0.170 C 
HETATM   30  O2  UNL     1      16.504   2.765  51.825  1.00  0.00    -0.389 OA
HETATM   31  C8  UNL     1      17.694   2.148  51.508  1.00  0.00     0.200 C 
ENDBRANCH  26  27
ENDBRANCH   3  26
TORSDOF 6
ENDMDL
MODEL 8
REMARK VINA RESULT:      -7.6      4.168      5.904
REMARK  6 active torsions:
REMARK  status: ('A' for Active; 'I' for Inactive)
REMARK    1  A    between atoms: N1_2  and  C2_3 
REMARK    2  A    between atoms: C4_5  and  O1_6 
REMARK    3  A    between atoms: O1_6  and  C5_7 
REMARK    4  A    between atoms: C11_14  and  C12_15 
REMARK    5  A    between atoms: C12_15  and  N3_17 
REMARK    6  A    between atoms: N3_17  and  C13_18 
ROOT
HETATM    1  C2  UNL     1      22.625   3.693  50.947  1.00  0.00     0.075 A 
HETATM    2  C3  UNL     1      21.970   2.594  51.469  1.00  0.00     0.072 A 
HETATM    3  C4  UNL     1      22.647   1.508  52.042  1.00  0.00     0.107 A 
HETATM    4  C9  UNL     1      24.030   1.604  52.053  1.00  0.00     0.136 A 
HETATM    5  C10 UNL     1      24.682   2.698  51.535  1.00  0.00     0.121 A 
HETATM    6  C11 UNL     1      24.003   3.750  50.978  1.00  0.00     0.074 A 
HETATM    7  O3  UNL     1      26.050   2.633  51.626  1.00  0.00    -0.345 OA
HETATM    8  C19 UNL     1      26.673   1.367  51.724  1.00  0.00     0.202 C 
HETATM    9  C20 UNL     1      26.034   0.519  52.787  1.00  0.00     0.202 C 
HETATM   10  O4  UNL     1      24.628   0.498  52.633  1.00  0.00    -0.344 OA
ENDROOT
BRANCH   6  11
HETATM   11  C12 UNL     1      24.758   4.880  50.448  1.00  0.00     0.136 C 
HETATM   12  N2  UNL     1      25.016   6.023  50.990  1.00  0.00    -0.283 NA
HETATM   13  H11 UNL     1      24.723   6.339  51.921  1.00  0.00     0.188 HD
BRANCH  11  14
HETATM   14  N3  UNL     1      25.327   4.785  49.137  1.00  0.00    -0.341 N 
HETATM   15  H12 UNL     1      24.926   4.139  48.393  1.00  0.00     0.167 HD
BRANCH  14  16
HETATM   16  C13 UNL     1      26.459   5.517  48.679  1.00  0.00     0.035 A 
HETATM   17  C14 UNL     1      27.703   4.875  48.676  1.00  0.00     0.032 A 
HETATM   18  C15 UNL     1      28.906   5.421  48.269  1.00  0.00     0.046 A 
HETATM   19  C16 UNL     1      28.860   6.726  47.825  1.00  0.00     0.138 A 
HETATM   20  F1  UNL     1      30.012   7.311  47.414  1.00  0.00    -0.204 F 
HETATM   21  C17 UNL     1      27.660   7.402  47.808  1.00  0.00     0.074 A 
HETATM   22 CL1  UNL     1      27.578   9.078  47.242  1.00  0.00    -0.081 Cl
HETATM   23  C18 UNL     1      26.478   6.835  48.219  1.00  0.00     0.056 A 
ENDBRANCH  14  16
ENDBRANCH  11  14
ENDBRANCH   6  11
BRANCH   1  24
HETATM   24  N1  UNL     1      21.973   4.810  50.360  1.00  0.00    -0.271 NA
HETATM   25  C1  UNL     1      20.968   5.382  50.961  1.00  0.00     0.149 C 
ENDBRANCH   1  24
BRANCH   3  26
HETATM   26  O1  UNL     1      21.769   0.570  52.472  1.00  0.00    -0.341 OA
BRANCH  26  27
HETATM   27  C5  UNL     1      20.971   0.513  53.599  1.00  0.00     0.154 C 
HETATM   28  C6  UNL     1      21.590  -0.273  54.736  1.00  0.00     0.061 C 
HETATM   29  C7  UNL     1      21.268  -1.680  54.323  1.00  0.00     0.170 C 
HETATM   30  O2  UNL     1      19.943  -1.568  53.926  1.00  0.00    -0.389 OA
HETATM   31  C8  UNL     1      19.779  -0.371  53.266  1.00  0.00     0.200 C 
ENDBRANCH  26  27
ENDBRANCH   3  26
TORSDOF 6
ENDMDL
MODEL 9
REMARK VINA RESULT:      -7.6      2.369      3.660
REMARK  6 active torsions:
REMARK  status: ('A' for Active; 'I' for Inactive)
REMARK    1  A    between atoms: N1_2  and  C2_3 
REMARK    2  A    between atoms: C4_5  and  O1_6 
REMARK    3  A    between atoms: O1_6  and  C5_7 
REMARK    4  A    between atoms: C11_14  and  C12_15 
REMARK    5  A    between atoms: C12_15  and  N3_17 
REMARK    6  A    between atoms: N3_17  and  C13_18 
ROOT
HETATM    1  C2  UNL     1      22.670   0.576  52.523  1.00  0.00     0.075 A 
HETATM    2  C3  UNL     1      21.427   0.419  51.939  1.00  0.00     0.072 A 
HETATM    3  C4  UNL     1      21.031   1.125  50.795  1.00  0.00     0.107 A 
HETATM    4  C9  UNL     1      21.971   2.002  50.278  1.00  0.00     0.136 A 
HETATM    5  C10 UNL     1      23.208   2.159  50.857  1.00  0.00     0.121 A 
HETATM    6  C11 UNL     1      23.578   1.459  51.976  1.00  0.00     0.074 A 
HETATM    7  O3  UNL     1      24.017   3.066  50.219  1.00  0.00    -0.345 OA
HETATM    8  C19 UNL     1      23.425   4.081  49.433  1.00  0.00     0.202 C 
HETATM    9  C20 UNL     1      22.412   3.517  48.477  1.00  0.00     0.202 C 
HETATM   10  O4  UNL     1      21.509   2.662  49.151  1.00  0.00    -0.344 OA
ENDROOT
BRANCH   6  11
HETATM   11  C12 UNL     1      24.907   1.673  52.538  1.00  0.00     0.136 C 
HETATM   12  N2  UNL     1      25.252   2.285  53.621  1.00  0.00    -0.283 NA
HETATM   13  H11 UNL     1      24.626   2.738  54.295  1.00  0.00     0.188 HD
BRANCH  11  14
HETATM   14  N3  UNL     1      26.049   1.162  51.842  1.00  0.00    -0.341 N 
HETATM   15  H12 UNL     1      26.376   1.570  50.915  1.00  0.00     0.167 HD
BRANCH  14  16
HETATM   16  C13 UNL     1      26.865   0.082  52.285  1.00  0.00     0.035 A 
HETATM   17  C14 UNL     1      26.373  -1.221  52.137  1.00  0.00     0.032 A 
HETATM   18  C15 UNL     1      27.018  -2.386  52.506  1.00  0.00     0.046 A 
HETATM   19  C16 UNL     1      28.266  -2.236  53.074  1.00  0.00     0.138 A 
HETATM   20  F1  UNL     1      28.942  -3.347  53.455  1.00  0.00    -0.204 F 
HETATM   21  C17 UNL     1      28.795  -0.974  53.242  1.00  0.00     0.074 A 
HETATM   22 CL1  UNL     1      30.395  -0.758  53.969  1.00  0.00    -0.081 Cl
HETATM   23  C18 UNL     1      28.132   0.169  52.866  1.00  0.00     0.056 A 
ENDBRANCH  14  16
ENDBRANCH  11  14
ENDBRANCH   6  11
BRANCH   1  24
HETATM   24  N1  UNL     1      23.106  -0.121  53.680  1.00  0.00    -0.271 NA
HETATM   25  C1  UNL     1      22.242  -0.633  54.511  1.00  0.00     0.149 C 
ENDBRANCH   1  24
BRANCH   3  26
HETATM   26  O1  UNL     1      19.770   0.783  50.436  1.00  0.00    -0.341 OA
BRANCH  26  27
HETATM   27  C5  UNL     1      18.540   1.253  50.853  1.00  0.00     0.154 C 
HETATM   28  C6  UNL     1      17.584   0.154  51.269  1.00  0.00     0.061 C 
HETATM   29  C7  UNL     1      17.063  -0.296  49.934  1.00  0.00     0.170 C 
HETATM   30  O2  UNL     1      16.819   0.913  49.298  1.00  0.00    -0.389 OA
HETATM   31  C8  UNL     1      17.822   1.797  49.627  1.00  0.00     0.200 C 
ENDBRANCH  26  27
ENDBRANCH   3  26
TORSDOF 6
ENDMDL
