MODEL 1
REMARK VINA RESULT:      -8.8      0.000      0.000
REMARK  0 active torsions:
REMARK  status: ('A' for Active; 'I' for Inactive)
ROOT
HETATM    1 BR1  UNL     1      22.290   2.108  47.833  1.00  0.00    -0.059 Br
HETATM    2  C1  UNL     1      22.385   2.405  49.700  1.00  0.00    -0.015 A 
HETATM    3  C2  UNL     1      22.660   2.716  50.955  1.00  0.00     0.060 A 
HETATM    4  C3  UNL     1      22.873   3.023  52.393  1.00  0.00     0.008 C 
HETATM    5  C4  UNL     1      23.946   3.532  52.976  1.00  0.00     0.132 C 
HETATM    6  O1  UNL     1      24.767   3.628  51.818  1.00  0.00    -0.348 OA
HETATM    7  C5  UNL     1      25.212   2.288  51.342  1.00  0.00     0.116 A 
HETATM    8  C6  UNL     1      26.580   2.410  50.687  1.00  0.00     0.216 C 
HETATM    9  O2  UNL     1      27.480   2.483  51.842  1.00  0.00    -0.351 OA
HETATM   10  C7  UNL     1      27.162   1.566  52.822  1.00  0.00     0.062 A 
HETATM   11  C8  UNL     1      26.917   0.642  53.836  1.00  0.00     0.061 A 
HETATM   12  C9  UNL     1      25.649   0.079  54.067  1.00  0.00     0.057 A 
HETATM   13  N1  UNL     1      25.627  -0.790  55.137  1.00  0.00    -0.245 NA
HETATM   14  C10 UNL     1      24.384  -1.268  55.333  1.00  0.00     0.235 A 
HETATM   15  N2  UNL     1      23.318  -0.934  54.583  1.00  0.00    -0.227 NA
HETATM   16  C11 UNL     1      23.381  -0.082  53.546  1.00  0.00     0.122 A 
HETATM   17  C12 UNL     1      24.614   0.502  53.207  1.00  0.00     0.095 A 
HETATM   18  C13 UNL     1      24.528   1.369  52.143  1.00  0.00     0.048 A 
HETATM   19  C14 UNL     1      25.844   1.483  52.464  1.00  0.00     0.077 A 
HETATM   20  N3  UNL     1      22.078   0.152  52.957  1.00  0.00    -0.356 N 
HETATM   21  C15 UNL     1      21.913   0.299  51.563  1.00  0.00     0.073 C 
HETATM   22  C16 UNL     1      22.089   1.208  50.580  1.00  0.00     0.073 A 
HETATM   23  H8  UNL     1      21.260   0.222  53.644  1.00  0.00     0.166 HD
ENDROOT
TORSDOF 0
ENDMDL
MODEL 2
REMARK VINA RESULT:      -7.6      2.634      4.130
REMARK  0 active torsions:
REMARK  status: ('A' for Active; 'I' for Inactive)
ROOT
HETATM    1 BR1  UNL     1      21.680   6.631  50.823  1.00  0.00    -0.059 Br
HETATM    2  C1  UNL     1      22.238   4.911  50.261  1.00  0.00    -0.015 A 
HETATM    3  C2  UNL     1      22.415   3.639  49.948  1.00  0.00     0.060 A 
HETATM    4  C3  UNL     1      22.711   2.237  49.555  1.00  0.00     0.008 C 
HETATM    5  C4  UNL     1      21.999   1.148  49.794  1.00  0.00     0.132 C 
HETATM    6  O1  UNL     1      20.955   1.759  50.542  1.00  0.00    -0.348 OA
HETATM    7  C5  UNL     1      21.420   2.194  51.889  1.00  0.00     0.116 A 
HETATM    8  C6  UNL     1      20.265   2.111  52.877  1.00  0.00     0.216 C 
HETATM    9  O2  UNL     1      20.206   0.677  53.176  1.00  0.00    -0.351 OA
HETATM   10  C7  UNL     1      21.452   0.125  53.384  1.00  0.00     0.062 A 
HETATM   11  C8  UNL     1      22.678  -0.489  53.639  1.00  0.00     0.061 A 
HETATM   12  C9  UNL     1      23.895  -0.008  53.123  1.00  0.00     0.057 A 
HETATM   13  N1  UNL     1      24.979  -0.783  53.477  1.00  0.00    -0.245 NA
HETATM   14  C10 UNL     1      26.107  -0.298  52.927  1.00  0.00     0.235 A 
HETATM   15  N2  UNL     1      26.158   0.792  52.139  1.00  0.00    -0.227 NA
HETATM   16  C11 UNL     1      25.076   1.522  51.817  1.00  0.00     0.122 A 
HETATM   17  C12 UNL     1      23.817   1.148  52.319  1.00  0.00     0.095 A 
HETATM   18  C13 UNL     1      22.800   1.968  51.890  1.00  0.00     0.048 A 
HETATM   19  C14 UNL     1      22.107   1.061  52.630  1.00  0.00     0.077 A 
HETATM   20  N3  UNL     1      25.402   2.598  50.903  1.00  0.00    -0.356 N 
HETATM   21  C15 UNL     1      24.784   3.863  51.001  1.00  0.00     0.073 C 
HETATM   22  C16 UNL     1      23.623   4.484  50.703  1.00  0.00     0.073 A 
HETATM   23  H8  UNL     1      26.123   2.366  50.146  1.00  0.00     0.166 HD
ENDROOT
TORSDOF 0
ENDMDL
MODEL 3
REMARK VINA RESULT:      -7.5      3.438      5.849
REMARK  0 active torsions:
REMARK  status: ('A' for Active; 'I' for Inactive)
ROOT
HETATM    1 BR1  UNL     1      26.421  -1.268  52.547  1.00  0.00    -0.059 Br
HETATM    2  C1  UNL     1      25.791   0.511  52.712  1.00  0.00    -0.015 A 
HETATM    3  C2  UNL     1      25.136   1.652  52.834  1.00  0.00     0.060 A 
HETATM    4  C3  UNL     1      24.495   2.986  52.972  1.00  0.00     0.008 C 
HETATM    5  C4  UNL     1      23.207   3.286  52.950  1.00  0.00     0.132 C 
HETATM    6  O1  UNL     1      22.707   1.974  52.722  1.00  0.00    -0.348 OA
HETATM    7  C5  UNL     1      22.995   1.504  51.338  1.00  0.00     0.116 A 
HETATM    8  C6  UNL     1      21.891   0.562  50.881  1.00  0.00     0.216 C 
HETATM    9  O2  UNL     1      20.811   1.487  50.522  1.00  0.00    -0.351 OA
HETATM   10  C7  UNL     1      21.260   2.572  49.799  1.00  0.00     0.062 A 
HETATM   11  C8  UNL     1      21.640   3.676  49.037  1.00  0.00     0.061 A 
HETATM   12  C9  UNL     1      22.940   4.214  49.067  1.00  0.00     0.057 A 
HETATM   13  N1  UNL     1      23.089   5.319  48.258  1.00  0.00    -0.245 NA
HETATM   14  C10 UNL     1      24.338   5.812  48.355  1.00  0.00     0.235 A 
HETATM   15  N2  UNL     1      25.299   5.290  49.138  1.00  0.00    -0.227 NA
HETATM   16  C11 UNL     1      25.114   4.208  49.915  1.00  0.00     0.122 A 
HETATM   17  C12 UNL     1      23.860   3.571  49.922  1.00  0.00     0.095 A 
HETATM   18  C13 UNL     1      23.806   2.495  50.777  1.00  0.00     0.048 A 
HETATM   19  C14 UNL     1      22.531   2.515  50.303  1.00  0.00     0.077 A 
HETATM   20  N3  UNL     1      26.288   3.901  50.705  1.00  0.00    -0.356 N 
HETATM   21  C15 UNL     1      26.684   2.570  50.954  1.00  0.00     0.073 C 
HETATM   22  C16 UNL     1      26.363   1.513  51.731  1.00  0.00     0.073 A 
HETATM   23  H8  UNL     1      26.821   4.743  51.097  1.00  0.00     0.166 HD
ENDROOT
TORSDOF 0
ENDMDL
MODEL 4
REMARK VINA RESULT:      -7.4      2.391      3.878
REMARK  0 active torsions:
REMARK  status: ('A' for Active; 'I' for Inactive)
ROOT
HETATM    1 BR1  UNL     1      27.167   4.353  48.953  1.00  0.00    -0.059 Br
HETATM    2  C1  UNL     1      25.620   4.433  50.042  1.00  0.00    -0.015 A 
HETATM    3  C2  UNL     1      24.678   4.385  50.967  1.00  0.00     0.060 A 
HETATM    4  C3  UNL     1      23.552   4.382  51.938  1.00  0.00     0.008 C 
HETATM    5  C4  UNL     1      23.498   3.820  53.134  1.00  0.00     0.132 C 
HETATM    6  O1  UNL     1      24.793   3.232  53.129  1.00  0.00    -0.348 OA
HETATM    7  C5  UNL     1      24.876   2.080  52.188  1.00  0.00     0.116 A 
HETATM    8  C6  UNL     1      25.878   1.063  52.716  1.00  0.00     0.216 C 
HETATM    9  O2  UNL     1      25.112   0.373  53.758  1.00  0.00    -0.351 OA
HETATM   10  C7  UNL     1      23.827   0.069  53.359  1.00  0.00     0.062 A 
HETATM   11  C8  UNL     1      22.528  -0.299  53.009  1.00  0.00     0.061 A 
HETATM   12  C9  UNL     1      21.780   0.379  52.029  1.00  0.00     0.057 A 
HETATM   13  N1  UNL     1      20.512  -0.135  51.862  1.00  0.00    -0.245 NA
HETATM   14  C10 UNL     1      19.833   0.574  50.942  1.00  0.00     0.235 A 
HETATM   15  N2  UNL     1      20.331   1.636  50.284  1.00  0.00    -0.227 NA
HETATM   16  C11 UNL     1      21.576   2.106  50.475  1.00  0.00     0.122 A 
HETATM   17  C12 UNL     1      22.418   1.470  51.403  1.00  0.00     0.095 A 
HETATM   18  C13 UNL     1      23.651   2.070  51.514  1.00  0.00     0.048 A 
HETATM   19  C14 UNL     1      23.761   1.080  52.439  1.00  0.00     0.077 A 
HETATM   20  N3  UNL     1      21.831   3.297  49.690  1.00  0.00    -0.356 N 
HETATM   21  C15 UNL     1      23.088   3.532  49.092  1.00  0.00     0.073 C 
HETATM   22  C16 UNL     1      24.334   3.946  49.409  1.00  0.00     0.073 A 
HETATM   23  H8  UNL     1      21.016   3.987  49.608  1.00  0.00     0.166 HD
ENDROOT
TORSDOF 0
ENDMDL
MODEL 5
REMARK VINA RESULT:      -7.1      2.349      3.643
REMARK  0 active torsions:
REMARK  status: ('A' for Active; 'I' for Inactive)
ROOT
HETATM    1 BR1  UNL     1      18.863   0.616  50.400  1.00  0.00    -0.059 Br
HETATM    2  C1  UNL     1      20.097   1.649  51.399  1.00  0.00    -0.015 A 
HETATM    3  C2  UNL     1      20.947   2.521  51.912  1.00  0.00     0.060 A 
HETATM    4  C3  UNL     1      21.908   3.438  52.577  1.00  0.00     0.008 C 
HETATM    5  C4  UNL     1      22.475   4.530  52.090  1.00  0.00     0.132 C 
HETATM    6  O1  UNL     1      21.904   4.481  50.789  1.00  0.00    -0.348 OA
HETATM    7  C5  UNL     1      22.480   3.376  49.972  1.00  0.00     0.116 A 
HETATM    8  C6  UNL     1      22.478   3.775  48.503  1.00  0.00     0.216 C 
HETATM    9  O2  UNL     1      23.636   4.669  48.415  1.00  0.00    -0.351 OA
HETATM   10  C7  UNL     1      24.736   4.183  49.091  1.00  0.00     0.062 A 
HETATM   11  C8  UNL     1      25.894   3.734  49.724  1.00  0.00     0.061 A 
HETATM   12  C9  UNL     1      25.872   2.844  50.814  1.00  0.00     0.057 A 
HETATM   13  N1  UNL     1      27.128   2.555  51.303  1.00  0.00    -0.245 NA
HETATM   14  C10 UNL     1      27.044   1.731  52.364  1.00  0.00     0.235 A 
HETATM   15  N2  UNL     1      25.888   1.264  52.870  1.00  0.00    -0.227 NA
HETATM   16  C11 UNL     1      24.682   1.570  52.363  1.00  0.00     0.122 A 
HETATM   17  C12 UNL     1      24.599   2.419  51.245  1.00  0.00     0.095 A 
HETATM   18  C13 UNL     1      23.305   2.665  50.849  1.00  0.00     0.048 A 
HETATM   19  C14 UNL     1      23.998   3.429  49.962  1.00  0.00     0.077 A 
HETATM   20  N3  UNL     1      23.605   0.989  53.139  1.00  0.00    -0.356 N 
HETATM   21  C15 UNL     1      22.442   0.481  52.523  1.00  0.00     0.073 C 
HETATM   22  C16 UNL     1      21.288   0.902  51.961  1.00  0.00     0.073 A 
HETATM   23  H8  UNL     1      23.743   0.986  54.201  1.00  0.00     0.166 HD
ENDROOT
TORSDOF 0
ENDMDL
MODEL 6
REMARK VINA RESULT:      -7.0      9.405     11.838
REMARK  0 active torsions:
REMARK  status: ('A' for Active; 'I' for Inactive)
ROOT
HETATM    1 BR1  UNL     1      32.040   0.991  46.657  1.00  0.00    -0.059 Br
HETATM    2  C1  UNL     1      32.819   2.626  47.210  1.00  0.00    -0.015 A 
HETATM    3  C2  UNL     1      33.165   3.793  47.725  1.00  0.00     0.060 A 
HETATM    4  C3  UNL     1      33.647   5.097  48.251  1.00  0.00     0.008 C 
HETATM    5  C4  UNL     1      32.999   5.972  49.002  1.00  0.00     0.132 C 
HETATM    6  O1  UNL     1      31.759   5.280  49.079  1.00  0.00    -0.348 OA
HETATM    7  C5  UNL     1      31.030   5.304  47.780  1.00  0.00     0.116 A 
HETATM    8  C6  UNL     1      29.530   5.285  48.038  1.00  0.00     0.216 C 
HETATM    9  O2  UNL     1      29.254   6.676  48.411  1.00  0.00    -0.351 OA
HETATM   10  C7  UNL     1      29.894   7.582  47.592  1.00  0.00     0.062 A 
HETATM   11  C8  UNL     1      30.483   8.552  46.782  1.00  0.00     0.061 A 
HETATM   12  C9  UNL     1      31.664   8.323  46.052  1.00  0.00     0.057 A 
HETATM   13  N1  UNL     1      32.085   9.426  45.341  1.00  0.00    -0.245 NA
HETATM   14  C10 UNL     1      33.236   9.161  44.695  1.00  0.00     0.235 A 
HETATM   15  N2  UNL     1      33.878   7.980  44.746  1.00  0.00    -0.227 NA
HETATM   16  C11 UNL     1      33.434   6.926  45.452  1.00  0.00     0.122 A 
HETATM   17  C12 UNL     1      32.237   7.041  46.181  1.00  0.00     0.095 A 
HETATM   18  C13 UNL     1      31.915   5.897  46.874  1.00  0.00     0.048 A 
HETATM   19  C14 UNL     1      30.898   6.720  47.246  1.00  0.00     0.077 A 
HETATM   20  N3  UNL     1      34.349   5.806  45.388  1.00  0.00    -0.356 N 
HETATM   21  C15 UNL     1      33.885   4.475  45.320  1.00  0.00     0.073 C 
HETATM   22  C16 UNL     1      33.370   3.507  46.108  1.00  0.00     0.073 A 
HETATM   23  H8  UNL     1      35.391   6.052  45.412  1.00  0.00     0.166 HD
ENDROOT
TORSDOF 0
ENDMDL
MODEL 7
REMARK VINA RESULT:      -7.0      3.618      5.203
REMARK  0 active torsions:
REMARK  status: ('A' for Active; 'I' for Inactive)
ROOT
HETATM    1 BR1  UNL     1      16.997  -0.669  52.681  1.00  0.00    -0.059 Br
HETATM    2  C1  UNL     1      18.205   0.163  51.484  1.00  0.00    -0.015 A 
HETATM    3  C2  UNL     1      19.205   0.583  50.728  1.00  0.00     0.060 A 
HETATM    4  C3  UNL     1      20.261   1.128  49.836  1.00  0.00     0.008 C 
HETATM    5  C4  UNL     1      21.543   0.807  49.787  1.00  0.00     0.132 C 
HETATM    6  O1  UNL     1      21.545  -0.142  50.845  1.00  0.00    -0.348 OA
HETATM    7  C5  UNL     1      21.383   0.509  52.175  1.00  0.00     0.116 A 
HETATM    8  C6  UNL     1      22.116  -0.303  53.233  1.00  0.00     0.216 C 
HETATM    9  O2  UNL     1      23.513   0.089  53.024  1.00  0.00    -0.351 OA
HETATM   10  C7  UNL     1      23.662   1.448  52.841  1.00  0.00     0.062 A 
HETATM   11  C8  UNL     1      23.887   2.815  52.684  1.00  0.00     0.061 A 
HETATM   12  C9  UNL     1      22.909   3.699  52.192  1.00  0.00     0.057 A 
HETATM   13  N1  UNL     1      23.354   5.000  52.093  1.00  0.00    -0.245 NA
HETATM   14  C10 UNL     1      22.391   5.791  51.583  1.00  0.00     0.235 A 
HETATM   15  N2  UNL     1      21.169   5.360  51.222  1.00  0.00    -0.227 NA
HETATM   16  C11 UNL     1      20.773   4.080  51.335  1.00  0.00     0.122 A 
HETATM   17  C12 UNL     1      21.664   3.126  51.858  1.00  0.00     0.095 A 
HETATM   18  C13 UNL     1      21.136   1.857  51.894  1.00  0.00     0.048 A 
HETATM   19  C14 UNL     1      22.390   1.630  52.369  1.00  0.00     0.077 A 
HETATM   20  N3  UNL     1      19.437   3.878  50.811  1.00  0.00    -0.356 N 
HETATM   21  C15 UNL     1      18.527   2.995  51.430  1.00  0.00     0.073 C 
HETATM   22  C16 UNL     1      18.263   1.676  51.540  1.00  0.00     0.073 A 
HETATM   23  H8  UNL     1      19.196   4.426  49.923  1.00  0.00     0.166 HD
ENDROOT
TORSDOF 0
ENDMDL
MODEL 8
REMARK VINA RESULT:      -6.7      3.813      5.774
REMARK  0 active torsions:
REMARK  status: ('A' for Active; 'I' for Inactive)
ROOT
HETATM    1 BR1  UNL     1      21.656  -0.852  54.583  1.00  0.00    -0.059 Br
HETATM    2  C1  UNL     1      21.496  -0.205  52.811  1.00  0.00    -0.015 A 
HETATM    3  C2  UNL     1      21.600   0.339  51.611  1.00  0.00     0.060 A 
HETATM    4  C3  UNL     1      21.620   0.908  50.238  1.00  0.00     0.008 C 
HETATM    5  C4  UNL     1      22.513   1.720  49.697  1.00  0.00     0.132 C 
HETATM    6  O1  UNL     1      23.353   1.868  50.834  1.00  0.00    -0.348 OA
HETATM    7  C5  UNL     1      22.709   2.691  51.896  1.00  0.00     0.116 A 
HETATM    8  C6  UNL     1      23.778   3.448  52.672  1.00  0.00     0.216 C 
HETATM    9  O2  UNL     1      24.098   4.559  51.770  1.00  0.00    -0.351 OA
HETATM   10  C7  UNL     1      22.974   5.139  51.222  1.00  0.00     0.062 A 
HETATM   11  C8  UNL     1      21.879   5.793  50.659  1.00  0.00     0.061 A 
HETATM   12  C9  UNL     1      20.633   5.169  50.463  1.00  0.00     0.057 A 
HETATM   13  N1  UNL     1      19.701   5.990  49.867  1.00  0.00    -0.245 NA
HETATM   14  C10 UNL     1      18.545   5.330  49.671  1.00  0.00     0.235 A 
HETATM   15  N2  UNL     1      18.340   4.045  50.012  1.00  0.00    -0.227 NA
HETATM   16  C11 UNL     1      19.276   3.276  50.593  1.00  0.00     0.122 A 
HETATM   17  C12 UNL     1      20.542   3.822  50.871  1.00  0.00     0.095 A 
HETATM   18  C13 UNL     1      21.406   2.918  51.443  1.00  0.00     0.048 A 
HETATM   19  C14 UNL     1      22.206   4.013  51.342  1.00  0.00     0.077 A 
HETATM   20  N3  UNL     1      18.814   1.917  50.791  1.00  0.00    -0.356 N 
HETATM   21  C15 UNL     1      19.159   1.179  51.943  1.00  0.00     0.073 C 
HETATM   22  C16 UNL     1      20.194   0.491  52.472  1.00  0.00     0.073 A 
HETATM   23  H8  UNL     1      18.214   1.508  50.004  1.00  0.00     0.166 HD
ENDROOT
TORSDOF 0
ENDMDL
MODEL 9
REMARK VINA RESULT:      -6.7      8.904     11.380
REMARK  0 active torsions:
REMARK  status: ('A' for Active; 'I' for Inactive)
ROOT
HETATM    1 BR1  UNL     1      32.598   1.892  46.944  1.00  0.00    -0.059 Br
HETATM    2  C1  UNL     1      32.793   3.662  47.588  1.00  0.00    -0.015 A 
HETATM    3  C2  UNL     1      32.725   4.855  48.151  1.00  0.00     0.060 A 
HETATM    4  C3  UNL     1      32.744   6.221  48.738  1.00  0.00     0.008 C 
HETATM    5  C4  UNL     1      31.806   6.822  49.451  1.00  0.00     0.132 C 
HETATM    6  O1  UNL     1      30.838   5.781  49.416  1.00  0.00    -0.348 OA
HETATM    7  C5  UNL     1      30.230   5.636  48.063  1.00  0.00     0.116 A 
HETATM    8  C6  UNL     1      28.795   5.148  48.200  1.00  0.00     0.216 C 
HETATM    9  O2  UNL     1      28.077   6.370  48.576  1.00  0.00    -0.351 OA
HETATM   10  C7  UNL     1      28.462   7.463  47.828  1.00  0.00     0.062 A 
HETATM   11  C8  UNL     1      28.779   8.600  47.086  1.00  0.00     0.061 A 
HETATM   12  C9  UNL     1      30.021   8.775  46.449  1.00  0.00     0.057 A 
HETATM   13  N1  UNL     1      30.131   9.983  45.795  1.00  0.00    -0.245 NA
HETATM   14  C10 UNL     1      31.349  10.111  45.238  1.00  0.00     0.235 A 
HETATM   15  N2  UNL     1      32.319   9.182  45.317  1.00  0.00    -0.227 NA
HETATM   16  C11 UNL     1      32.173   8.014  45.966  1.00  0.00     0.122 A 
HETATM   17  C12 UNL     1      30.951   7.725  46.599  1.00  0.00     0.095 A 
HETATM   18  C13 UNL     1      30.950   6.510  47.243  1.00  0.00     0.048 A 
HETATM   19  C14 UNL     1      29.706   6.965  47.547  1.00  0.00     0.077 A 
HETATM   20  N3  UNL     1      33.392   7.231  45.954  1.00  0.00    -0.356 N 
HETATM   21  C15 UNL     1      33.367   5.827  45.824  1.00  0.00     0.073 C 
HETATM   22  C16 UNL     1      33.121   4.715  46.550  1.00  0.00     0.073 A 
HETATM   23  H8  UNL     1      34.303   7.784  46.066  1.00  0.00     0.166 HD
ENDROOT
TORSDOF 0
ENDMDL
