MODEL 1
REMARK VINA RESULT:      -7.8      0.000      0.000
REMARK  1 active torsions:
REMARK  status: ('A' for Active; 'I' for Inactive)
REMARK    1  A    between atoms: O1_2  and  C2_3 
ROOT
HETATM    1  C2  UNL     1      19.977  -0.945  53.391  1.00  0.00     0.073 C 
HETATM    2  C3  UNL     1      20.739  -1.636  54.273  1.00  0.00     0.148 C 
HETATM    3  C4  UNL     1      22.197  -1.425  54.554  1.00  0.00     0.099 C 
HETATM    4  N1  UNL     1      23.411  -0.866  54.413  1.00  0.00    -0.258 NA
HETATM    5  C5  UNL     1      23.360   0.172  53.380  1.00  0.00     0.229 C 
HETATM    6  N2  UNL     1      22.660   1.135  52.950  1.00  0.00    -0.249 NA
HETATM    7  C6  UNL     1      22.945   2.003  51.820  1.00  0.00     0.150 C 
HETATM    8  C7  UNL     1      22.293   1.357  50.612  1.00  0.00     0.084 C 
HETATM    9  C8  UNL     1      21.260   0.302  51.087  1.00  0.00     0.172 C 
HETATM   10  O2  UNL     1      20.280   0.869  51.827  1.00  0.00    -0.388 OA
HETATM   11  C9  UNL     1      19.384  -0.016  52.345  1.00  0.00     0.200 C 
HETATM   12  C10 UNL     1      24.449   1.900  51.569  1.00  0.00     0.223 C 
HETATM   13  O3  UNL     1      25.073   3.047  51.215  1.00  0.00    -0.386 OA
HETATM   14  C11 UNL     1      24.369   4.002  50.538  1.00  0.00     0.182 C 
HETATM   15  C12 UNL     1      23.938   5.041  51.583  1.00  0.00     0.108 C 
HETATM   16  C13 UNL     1      22.721   5.782  51.135  1.00  0.00     0.020 C 
HETATM   17 CL1  UNL     1      22.743   7.203  50.078  1.00  0.00    -0.089 Cl
HETATM   18  C14 UNL     1      21.543   5.314  51.582  1.00  0.00     0.013 C 
HETATM   19  C15 UNL     1      21.313   3.850  51.880  1.00  0.00     0.151 C 
HETATM   20  N3  UNL     1      22.539   3.272  52.151  1.00  0.00    -0.350 N 
HETATM   21  C16 UNL     1      23.467   4.178  52.740  1.00  0.00     0.280 C 
HETATM   22  F1  UNL     1      24.518   3.606  53.404  1.00  0.00    -0.226 F 
ENDROOT
BRANCH   1  23
HETATM   23  O1  UNL     1      18.942  -1.794  53.832  1.00  0.00    -0.387 OA
HETATM   24  C1  UNL     1      17.619  -1.699  53.345  1.00  0.00     0.202 C 
ENDBRANCH   1  23
TORSDOF 1
ENDMDL
MODEL 2
REMARK VINA RESULT:      -7.7      2.978      4.773
REMARK  1 active torsions:
REMARK  status: ('A' for Active; 'I' for Inactive)
REMARK    1  A    between atoms: O1_2  and  C2_3 
ROOT
HETATM    1  C2  UNL     1      26.231   0.431  54.066  1.00  0.00     0.073 C 
HETATM    2  C3  UNL     1      25.501  -0.707  54.148  1.00  0.00     0.148 C 
HETATM    3  C4  UNL     1      24.136  -0.940  53.572  1.00  0.00     0.099 C 
HETATM    4  N1  UNL     1      23.004  -0.626  52.919  1.00  0.00    -0.258 NA
HETATM    5  C5  UNL     1      23.064   0.768  52.468  1.00  0.00     0.229 C 
HETATM    6  N2  UNL     1      23.830   1.625  51.937  1.00  0.00    -0.249 NA
HETATM    7  C6  UNL     1      23.525   3.009  51.617  1.00  0.00     0.150 C 
HETATM    8  C7  UNL     1      23.917   3.824  52.833  1.00  0.00     0.084 C 
HETATM    9  C8  UNL     1      24.845   2.978  53.743  1.00  0.00     0.172 C 
HETATM   10  O2  UNL     1      25.983   2.629  53.100  1.00  0.00    -0.388 OA
HETATM   11  C9  UNL     1      26.806   1.815  53.816  1.00  0.00     0.200 C 
HETATM   12  C10 UNL     1      22.001   3.105  51.541  1.00  0.00     0.223 C 
HETATM   13  O3  UNL     1      21.503   3.908  50.573  1.00  0.00    -0.386 OA
HETATM   14  C11 UNL     1      22.239   4.981  50.158  1.00  0.00     0.182 C 
HETATM   15  C12 UNL     1      22.943   4.546  48.865  1.00  0.00     0.108 C 
HETATM   16  C13 UNL     1      24.183   5.346  48.633  1.00  0.00     0.020 C 
HETATM   17 CL1  UNL     1      24.223   6.930  47.841  1.00  0.00    -0.089 Cl
HETATM   18  C14 UNL     1      25.333   4.798  49.064  1.00  0.00     0.013 C 
HETATM   19  C15 UNL     1      25.392   3.881  50.265  1.00  0.00     0.151 C 
HETATM   20  N3  UNL     1      24.143   3.312  50.429  1.00  0.00    -0.350 N 
HETATM   21  C16 UNL     1      23.436   3.150  49.204  1.00  0.00     0.280 C 
HETATM   22  F1  UNL     1      22.411   2.244  49.223  1.00  0.00    -0.226 F 
ENDROOT
BRANCH   1  23
HETATM   23  O1  UNL     1      27.185  -0.292  54.809  1.00  0.00    -0.387 OA
HETATM   24  C1  UNL     1      28.562   0.030  54.799  1.00  0.00     0.202 C 
ENDBRANCH   1  23
TORSDOF 1
ENDMDL
MODEL 3
REMARK VINA RESULT:      -7.7      2.926      4.883
REMARK  1 active torsions:
REMARK  status: ('A' for Active; 'I' for Inactive)
REMARK    1  A    between atoms: O1_2  and  C2_3 
ROOT
HETATM    1  C2  UNL     1      25.103  -0.287  53.784  1.00  0.00     0.073 C 
HETATM    2  C3  UNL     1      24.570  -1.050  54.770  1.00  0.00     0.148 C 
HETATM    3  C4  UNL     1      23.122  -1.140  55.149  1.00  0.00     0.099 C 
HETATM    4  N1  UNL     1      21.812  -0.849  55.086  1.00  0.00    -0.258 NA
HETATM    5  C5  UNL     1      21.577   0.152  54.042  1.00  0.00     0.229 C 
HETATM    6  N2  UNL     1      21.896   0.471  52.859  1.00  0.00    -0.249 NA
HETATM    7  C6  UNL     1      21.431   1.615  52.093  1.00  0.00     0.150 C 
HETATM    8  C7  UNL     1      22.417   2.736  52.361  1.00  0.00     0.084 C 
HETATM    9  C8  UNL     1      23.714   2.146  52.972  1.00  0.00     0.172 C 
HETATM   10  O2  UNL     1      24.307   1.274  52.125  1.00  0.00    -0.388 OA
HETATM   11  C9  UNL     1      25.408   0.657  52.634  1.00  0.00     0.200 C 
HETATM   12  C10 UNL     1      20.123   2.064  52.744  1.00  0.00     0.223 C 
HETATM   13  O3  UNL     1      19.151   2.480  51.901  1.00  0.00    -0.386 OA
HETATM   14  C11 UNL     1      19.505   3.043  50.707  1.00  0.00     0.182 C 
HETATM   15  C12 UNL     1      19.376   1.934  49.653  1.00  0.00     0.108 C 
HETATM   16  C13 UNL     1      20.256   2.206  48.477  1.00  0.00     0.020 C 
HETATM   17 CL1  UNL     1      19.810   3.234  47.106  1.00  0.00    -0.089 Cl
HETATM   18  C14 UNL     1      21.464   1.614  48.489  1.00  0.00     0.013 C 
HETATM   19  C15 UNL     1      22.204   1.312  49.772  1.00  0.00     0.151 C 
HETATM   20  N3  UNL     1      21.274   1.214  50.790  1.00  0.00    -0.350 N 
HETATM   21  C16 UNL     1      20.008   0.738  50.346  1.00  0.00     0.280 C 
HETATM   22  F1  UNL     1      19.189   0.228  51.317  1.00  0.00    -0.226 F 
ENDROOT
BRANCH   1  23
HETATM   23  O1  UNL     1      26.326  -0.848  54.202  1.00  0.00    -0.387 OA
HETATM   24  C1  UNL     1      27.524  -0.100  54.271  1.00  0.00     0.202 C 
ENDBRANCH   1  23
TORSDOF 1
ENDMDL
MODEL 4
REMARK VINA RESULT:      -7.6      2.793      5.443
REMARK  1 active torsions:
REMARK  status: ('A' for Active; 'I' for Inactive)
REMARK    1  A    between atoms: O1_2  and  C2_3 
ROOT
HETATM    1  C2  UNL     1      26.959   1.358  52.610  1.00  0.00     0.073 C 
HETATM    2  C3  UNL     1      26.958   0.321  53.483  1.00  0.00     0.148 C 
HETATM    3  C4  UNL     1      25.756  -0.406  54.008  1.00  0.00     0.099 C 
HETATM    4  N1  UNL     1      24.448  -0.675  54.161  1.00  0.00    -0.258 NA
HETATM    5  C5  UNL     1      23.653   0.269  53.370  1.00  0.00     0.229 C 
HETATM    6  N2  UNL     1      23.595   0.843  52.243  1.00  0.00    -0.249 NA
HETATM    7  C6  UNL     1      22.589   1.784  51.779  1.00  0.00     0.150 C 
HETATM    8  C7  UNL     1      23.099   3.165  52.143  1.00  0.00     0.084 C 
HETATM    9  C8  UNL     1      24.614   3.087  52.465  1.00  0.00     0.172 C 
HETATM   10  O2  UNL     1      25.324   2.656  51.398  1.00  0.00    -0.388 OA
HETATM   11  C9  UNL     1      26.653   2.486  51.639  1.00  0.00     0.200 C 
HETATM   12  C10 UNL     1      21.358   1.564  52.658  1.00  0.00     0.223 C 
HETATM   13  O3  UNL     1      20.160   1.650  52.036  1.00  0.00    -0.386 OA
HETATM   14  C11 UNL     1      20.037   2.460  50.943  1.00  0.00     0.182 C 
HETATM   15  C12 UNL     1      20.149   1.546  49.715  1.00  0.00     0.108 C 
HETATM   16  C13 UNL     1      20.616   2.308  48.518  1.00  0.00     0.020 C 
HETATM   17 CL1  UNL     1      19.558   3.232  47.440  1.00  0.00    -0.089 Cl
HETATM   18  C14 UNL     1      21.937   2.270  48.268  1.00  0.00     0.013 C 
HETATM   19  C15 UNL     1      22.965   2.134  49.369  1.00  0.00     0.151 C 
HETATM   20  N3  UNL     1      22.356   1.529  50.451  1.00  0.00    -0.350 N 
HETATM   21  C16 UNL     1      21.310   0.636  50.078  1.00  0.00     0.280 C 
HETATM   22  F1  UNL     1      20.951  -0.288  51.020  1.00  0.00    -0.226 F 
ENDROOT
BRANCH   1  23
HETATM   23  O1  UNL     1      28.359   1.301  52.759  1.00  0.00    -0.387 OA
HETATM   24  C1  UNL     1      28.998   1.450  54.011  1.00  0.00     0.202 C 
ENDBRANCH   1  23
TORSDOF 1
ENDMDL
MODEL 5
REMARK VINA RESULT:      -7.5      2.894      3.968
REMARK  1 active torsions:
REMARK  status: ('A' for Active; 'I' for Inactive)
REMARK    1  A    between atoms: O1_2  and  C2_3 
ROOT
HETATM    1  C2  UNL     1      24.072   0.856  52.458  1.00  0.00     0.073 C 
HETATM    2  C3  UNL     1      25.389   0.635  52.689  1.00  0.00     0.148 C 
HETATM    3  C4  UNL     1      26.538   1.455  52.185  1.00  0.00     0.099 C 
HETATM    4  N1  UNL     1      27.140   2.448  51.508  1.00  0.00    -0.258 NA
HETATM    5  C5  UNL     1      26.131   3.263  50.825  1.00  0.00     0.229 C 
HETATM    6  N2  UNL     1      24.995   3.802  50.978  1.00  0.00    -0.249 NA
HETATM    7  C6  UNL     1      24.251   4.592  50.012  1.00  0.00     0.150 C 
HETATM    8  C7  UNL     1      23.373   3.616  49.252  1.00  0.00     0.084 C 
HETATM    9  C8  UNL     1      23.283   2.283  50.038  1.00  0.00     0.172 C 
HETATM   10  O2  UNL     1      22.731   2.466  51.259  1.00  0.00    -0.388 OA
HETATM   11  C9  UNL     1      22.698   1.347  52.034  1.00  0.00     0.200 C 
HETATM   12  C10 UNL     1      25.272   5.095  48.991  1.00  0.00     0.223 C 
HETATM   13  O3  UNL     1      25.086   6.354  48.535  1.00  0.00    -0.386 OA
HETATM   14  C11 UNL     1      23.818   6.860  48.483  1.00  0.00     0.182 C 
HETATM   15  C12 UNL     1      23.649   7.728  49.738  1.00  0.00     0.108 C 
HETATM   16  C13 UNL     1      22.210   7.851  50.117  1.00  0.00     0.020 C 
HETATM   17 CL1  UNL     1      21.089   9.040  49.433  1.00  0.00    -0.089 Cl
HETATM   18  C14 UNL     1      21.764   6.986  51.045  1.00  0.00     0.013 C 
HETATM   19  C15 UNL     1      22.338   5.596  51.198  1.00  0.00     0.151 C 
HETATM   20  N3  UNL     1      23.623   5.606  50.691  1.00  0.00    -0.350 N 
HETATM   21  C16 UNL     1      24.269   6.868  50.827  1.00  0.00     0.280 C 
HETATM   22  F1  UNL     1      25.634   6.852  50.741  1.00  0.00    -0.226 F 
ENDROOT
BRANCH   1  23
HETATM   23  O1  UNL     1      23.882  -0.294  53.248  1.00  0.00    -0.387 OA
HETATM   24  C1  UNL     1      22.609  -0.871  53.460  1.00  0.00     0.202 C 
ENDBRANCH   1  23
TORSDOF 1
ENDMDL
MODEL 6
REMARK VINA RESULT:      -7.4      2.622      4.029
REMARK  1 active torsions:
REMARK  status: ('A' for Active; 'I' for Inactive)
REMARK    1  A    between atoms: O1_2  and  C2_3 
ROOT
HETATM    1  C2  UNL     1      22.807   0.011  53.073  1.00  0.00     0.073 C 
HETATM    2  C3  UNL     1      21.460   0.001  52.923  1.00  0.00     0.148 C 
HETATM    3  C4  UNL     1      20.614   1.100  52.354  1.00  0.00     0.099 C 
HETATM    4  N1  UNL     1      20.355   2.307  51.823  1.00  0.00    -0.258 NA
HETATM    5  C5  UNL     1      21.603   3.066  51.690  1.00  0.00     0.229 C 
HETATM    6  N2  UNL     1      22.815   2.962  51.339  1.00  0.00    -0.249 NA
HETATM    7  C6  UNL     1      23.831   4.002  51.344  1.00  0.00     0.150 C 
HETATM    8  C7  UNL     1      24.509   3.928  52.698  1.00  0.00     0.084 C 
HETATM    9  C8  UNL     1      24.177   2.569  53.368  1.00  0.00     0.172 C 
HETATM   10  O2  UNL     1      24.628   1.531  52.627  1.00  0.00    -0.388 OA
HETATM   11  C9  UNL     1      24.297   0.305  53.118  1.00  0.00     0.200 C 
HETATM   12  C10 UNL     1      23.081   5.334  51.340  1.00  0.00     0.223 C 
HETATM   13  O3  UNL     1      23.625   6.320  50.590  1.00  0.00    -0.386 OA
HETATM   14  C11 UNL     1      24.977   6.339  50.401  1.00  0.00     0.182 C 
HETATM   15  C12 UNL     1      25.228   5.713  49.022  1.00  0.00     0.108 C 
HETATM   16  C13 UNL     1      26.605   5.140  48.933  1.00  0.00     0.020 C 
HETATM   17 CL1  UNL     1      28.053   6.068  48.513  1.00  0.00    -0.089 Cl
HETATM   18  C14 UNL     1      26.719   3.826  49.196  1.00  0.00     0.013 C 
HETATM   19  C15 UNL     1      25.801   3.111  50.161  1.00  0.00     0.151 C 
HETATM   20  N3  UNL     1      24.619   3.824  50.234  1.00  0.00    -0.350 N 
HETATM   21  C16 UNL     1      24.303   4.509  49.027  1.00  0.00     0.280 C 
HETATM   22  F1  UNL     1      22.994   4.878  48.877  1.00  0.00    -0.226 F 
ENDROOT
BRANCH   1  23
HETATM   23  O1  UNL     1      22.618  -1.280  53.607  1.00  0.00    -0.387 OA
HETATM   24  C1  UNL     1      21.633  -1.565  54.580  1.00  0.00     0.202 C 
ENDBRANCH   1  23
TORSDOF 1
ENDMDL
MODEL 7
REMARK VINA RESULT:      -7.1      3.256      4.903
REMARK  1 active torsions:
REMARK  status: ('A' for Active; 'I' for Inactive)
REMARK    1  A    between atoms: O1_2  and  C2_3 
ROOT
HETATM    1  C2  UNL     1      20.330   1.402  51.282  1.00  0.00     0.073 C 
HETATM    2  C3  UNL     1      20.218   1.550  49.940  1.00  0.00     0.148 C 
HETATM    3  C4  UNL     1      21.321   1.882  48.980  1.00  0.00     0.099 C 
HETATM    4  N1  UNL     1      22.574   2.187  48.600  1.00  0.00    -0.258 NA
HETATM    5  C5  UNL     1      23.445   2.253  49.777  1.00  0.00     0.229 C 
HETATM    6  N2  UNL     1      23.717   1.667  50.866  1.00  0.00    -0.249 NA
HETATM    7  C6  UNL     1      24.714   2.048  51.853  1.00  0.00     0.150 C 
HETATM    8  C7  UNL     1      24.009   2.955  52.842  1.00  0.00     0.084 C 
HETATM    9  C8  UNL     1      22.474   2.797  52.684  1.00  0.00     0.172 C 
HETATM   10  O2  UNL     1      22.080   1.528  52.939  1.00  0.00    -0.388 OA
HETATM   11  C9  UNL     1      20.753   1.301  52.738  1.00  0.00     0.200 C 
HETATM   12  C10 UNL     1      25.716   2.945  51.126  1.00  0.00     0.223 C 
HETATM   13  O3  UNL     1      27.014   2.788  51.470  1.00  0.00    -0.386 OA
HETATM   14  C11 UNL     1      27.319   2.372  52.735  1.00  0.00     0.182 C 
HETATM   15  C12 UNL     1      27.587   0.863  52.639  1.00  0.00     0.108 C 
HETATM   16  C13 UNL     1      27.350   0.191  53.951  1.00  0.00     0.020 C 
HETATM   17 CL1  UNL     1      28.545   0.080  55.253  1.00  0.00    -0.089 Cl
HETATM   18  C14 UNL     1      26.136  -0.360  54.126  1.00  0.00     0.013 C 
HETATM   19  C15 UNL     1      24.892   0.198  53.472  1.00  0.00     0.151 C 
HETATM   20  N3  UNL     1      25.279   0.898  52.345  1.00  0.00    -0.350 N 
HETATM   21  C16 UNL     1      26.460   0.378  51.742  1.00  0.00     0.280 C 
HETATM   22  F1  UNL     1      26.668   0.732  50.437  1.00  0.00    -0.226 F 
ENDROOT
BRANCH   1  23
HETATM   23  O1  UNL     1      18.946   1.143  51.229  1.00  0.00    -0.387 OA
HETATM   24  C1  UNL     1      18.335   0.106  51.971  1.00  0.00     0.202 C 
ENDBRANCH   1  23
TORSDOF 1
ENDMDL
MODEL 8
REMARK VINA RESULT:      -6.9      3.560      6.314
REMARK  1 active torsions:
REMARK  status: ('A' for Active; 'I' for Inactive)
REMARK    1  A    between atoms: O1_2  and  C2_3 
ROOT
HETATM    1  C2  UNL     1      22.601   5.352  49.894  1.00  0.00     0.073 C 
HETATM    2  C3  UNL     1      23.521   5.586  48.927  1.00  0.00     0.148 C 
HETATM    3  C4  UNL     1      24.915   5.038  48.864  1.00  0.00     0.099 C 
HETATM    4  N1  UNL     1      25.984   4.338  49.282  1.00  0.00    -0.258 NA
HETATM    5  C5  UNL     1      25.685   3.697  50.565  1.00  0.00     0.229 C 
HETATM    6  N2  UNL     1      24.788   3.058  51.190  1.00  0.00    -0.249 NA
HETATM    7  C6  UNL     1      24.848   2.544  52.547  1.00  0.00     0.150 C 
HETATM    8  C7  UNL     1      24.295   3.638  53.441  1.00  0.00     0.084 C 
HETATM    9  C8  UNL     1      23.517   4.664  52.578  1.00  0.00     0.172 C 
HETATM   10  O2  UNL     1      22.471   4.085  51.945  1.00  0.00    -0.388 OA
HETATM   11  C9  UNL     1      21.793   4.915  51.105  1.00  0.00     0.200 C 
HETATM   12  C10 UNL     1      26.331   2.444  52.903  1.00  0.00     0.223 C 
HETATM   13  O3  UNL     1      26.695   1.369  53.639  1.00  0.00    -0.386 OA
HETATM   14  C11 UNL     1      25.786   0.814  54.495  1.00  0.00     0.182 C 
HETATM   15  C12 UNL     1      25.194  -0.401  53.766  1.00  0.00     0.108 C 
HETATM   16  C13 UNL     1      23.836  -0.733  54.291  1.00  0.00     0.020 C 
HETATM   17 CL1  UNL     1      23.528  -1.738  55.717  1.00  0.00    -0.089 Cl
HETATM   18  C14 UNL     1      22.794  -0.220  53.612  1.00  0.00     0.013 C 
HETATM   19  C15 UNL     1      22.879   1.098  52.875  1.00  0.00     0.151 C 
HETATM   20  N3  UNL     1      24.205   1.331  52.567  1.00  0.00    -0.350 N 
HETATM   21  C16 UNL     1      24.951   0.135  52.365  1.00  0.00     0.280 C 
HETATM   22  F1  UNL     1      26.121   0.272  51.669  1.00  0.00    -0.226 F 
ENDROOT
BRANCH   1  23
HETATM   23  O1  UNL     1      21.778   6.196  49.123  1.00  0.00    -0.387 OA
HETATM   24  C1  UNL     1      21.062   7.279  49.681  1.00  0.00     0.202 C 
ENDBRANCH   1  23
TORSDOF 1
ENDMDL
MODEL 9
REMARK VINA RESULT:      -6.9      2.941      6.319
REMARK  1 active torsions:
REMARK  status: ('A' for Active; 'I' for Inactive)
REMARK    1  A    between atoms: O1_2  and  C2_3 
ROOT
HETATM    1  C2  UNL     1      25.487   4.545  49.447  1.00  0.00     0.073 C 
HETATM    2  C3  UNL     1      26.584   3.828  49.792  1.00  0.00     0.148 C 
HETATM    3  C4  UNL     1      26.625   2.630  50.694  1.00  0.00     0.099 C 
HETATM    4  N1  UNL     1      26.131   1.691  51.518  1.00  0.00    -0.258 NA
HETATM    5  C5  UNL     1      24.689   1.890  51.687  1.00  0.00     0.229 C 
HETATM    6  N2  UNL     1      23.626   2.162  51.054  1.00  0.00    -0.249 NA
HETATM    7  C6  UNL     1      22.282   2.287  51.592  1.00  0.00     0.150 C 
HETATM    8  C7  UNL     1      22.104   3.748  51.958  1.00  0.00     0.084 C 
HETATM    9  C8  UNL     1      23.203   4.592  51.261  1.00  0.00     0.172 C 
HETATM   10  O2  UNL     1      23.120   4.494  49.915  1.00  0.00    -0.388 OA
HETATM   11  C9  UNL     1      24.107   5.147  49.242  1.00  0.00     0.200 C 
HETATM   12  C10 UNL     1      22.281   1.535  52.922  1.00  0.00     0.223 C 
HETATM   13  O3  UNL     1      21.160   0.834  53.208  1.00  0.00    -0.386 OA
HETATM   14  C11 UNL     1      19.963   1.265  52.709  1.00  0.00     0.182 C 
HETATM   15  C12 UNL     1      19.685   0.413  51.463  1.00  0.00     0.108 C 
HETATM   16  C13 UNL     1      18.776   1.126  50.516  1.00  0.00     0.020 C 
HETATM   17 CL1  UNL     1      17.008   1.119  50.625  1.00  0.00    -0.089 Cl
HETATM   18  C14 UNL     1      19.370   1.810  49.523  1.00  0.00     0.013 C 
HETATM   19  C15 UNL     1      20.735   2.441  49.679  1.00  0.00     0.151 C 
HETATM   20  N3  UNL     1      21.410   1.758  50.672  1.00  0.00    -0.350 N 
HETATM   21  C16 UNL     1      21.034   0.388  50.765  1.00  0.00     0.280 C 
HETATM   22  F1  UNL     1      21.920  -0.431  51.410  1.00  0.00    -0.226 F 
ENDROOT
BRANCH   1  23
HETATM   23  O1  UNL     1      26.397   5.315  48.697  1.00  0.00    -0.387 OA
HETATM   24  C1  UNL     1      27.770   4.993  48.601  1.00  0.00     0.202 C 
ENDBRANCH   1  23
TORSDOF 1
ENDMDL
