MODEL 1
REMARK VINA RESULT:      -9.2      0.000      0.000
REMARK  2 active torsions:
REMARK  status: ('A' for Active; 'I' for Inactive)
REMARK       I    between atoms: N1_1  and  C1_2 
REMARK    1  A    between atoms: C2_4  and  N3_5 
REMARK    2  A    between atoms: N3_5  and  C3_6 
ROOT
HETATM    1  N1  UNL     1      24.542   3.607  53.458  1.00  0.00    -0.231 N 
HETATM    2  C1  UNL     1      24.650   2.884  52.236  1.00  0.00     0.719 C 
HETATM    3  N2  UNL     1      24.263   1.657  51.973  1.00  0.00    -0.079 NA
HETATM    4  C2  UNL     1      23.626   0.869  53.041  1.00  0.00     0.238 C 
HETATM    5  C9  UNL     1      22.825  -0.182  52.260  1.00  0.00     0.113 C 
HETATM    6  C10 UNL     1      22.654  -1.402  53.055  1.00  0.00     0.189 C 
HETATM    7  O1  UNL     1      21.602  -1.563  53.915  1.00  0.00    -0.362 OA
HETATM    8  C11 UNL     1      20.495  -0.811  54.208  1.00  0.00     0.134 C 
HETATM    9  C12 UNL     1      19.913   0.160  53.524  1.00  0.00     0.026 C 
HETATM   10  C13 UNL     1      20.404   0.639  52.212  1.00  0.00     0.036 C 
HETATM   11  C14 UNL     1      21.638   0.473  51.721  1.00  0.00     0.074 C 
HETATM   12  O2  UNL     1      21.500   1.128  50.466  1.00  0.00    -0.266 OA
HETATM   13  C15 UNL     1      21.968   2.330  50.242  1.00  0.00     0.057 C 
HETATM   14  S1  UNL     1      22.506   3.660  50.012  1.00  0.00    -0.004 SA
HETATM   15  C16 UNL     1      23.184   5.281  49.753  1.00  0.00     0.398 C 
HETATM   16  N4  UNL     1      24.102   5.367  48.600  1.00  0.00     0.124 N 
HETATM   17  C17 UNL     1      25.399   5.062  49.235  1.00  0.00     0.351 C 
HETATM   18  C18 UNL     1      24.880   4.493  50.547  1.00  0.00     0.149 C 
HETATM   19  N5  UNL     1      25.199   3.310  50.999  1.00  0.00    -0.048 NA
HETATM   20  N6  UNL     1      24.083   5.672  50.863  1.00  0.00    -0.338 N 
HETATM   21  H1  UNL     1      23.883   4.204  54.011  1.00  0.00     0.174 HD
HETATM   22  H2  UNL     1      25.508   3.362  53.780  1.00  0.00     0.174 HD
HETATM   23  H16 UNL     1      23.850   4.558  47.987  1.00  0.00     0.320 HD
HETATM   24  H19 UNL     1      24.639   6.033  51.651  1.00  0.00     0.163 HD
ENDROOT
BRANCH   4  25
HETATM   25  N3  UNL     1      24.633   0.304  53.888  1.00  0.00    -0.366 N 
HETATM   26  H4  UNL     1      24.275   0.091  54.871  1.00  0.00     0.161 HD
BRANCH  25  27
HETATM   27  C3  UNL     1      26.023  -0.077  53.834  1.00  0.00     0.029 A 
HETATM   28  C4  UNL     1      26.559  -1.066  53.000  1.00  0.00     0.031 A 
HETATM   29  C5  UNL     1      27.915  -1.269  53.066  1.00  0.00     0.026 A 
HETATM   30  C6  UNL     1      28.771  -0.578  53.884  1.00  0.00     0.034 A 
HETATM   31 CL1  UNL     1      30.468  -0.975  53.833  1.00  0.00    -0.084 Cl
HETATM   32  C7  UNL     1      28.280   0.402  54.718  1.00  0.00     0.026 A 
HETATM   33  C8  UNL     1      26.928   0.608  54.655  1.00  0.00     0.031 A 
ENDBRANCH  25  27
ENDBRANCH   4  25
TORSDOF 2
ENDMDL
MODEL 2
REMARK VINA RESULT:      -8.8      2.884      6.324
REMARK  2 active torsions:
REMARK  status: ('A' for Active; 'I' for Inactive)
REMARK       I    between atoms: N1_1  and  C1_2 
REMARK    1  A    between atoms: C2_4  and  N3_5 
REMARK    2  A    between atoms: N3_5  and  C3_6 
ROOT
HETATM    1  N1  UNL     1      26.797   2.146  51.216  1.00  0.00    -0.231 N 
HETATM    2  C1  UNL     1      25.855   2.359  52.263  1.00  0.00     0.719 C 
HETATM    3  N2  UNL     1      24.685   2.953  52.204  1.00  0.00    -0.079 NA
HETATM    4  C2  UNL     1      24.227   3.493  50.914  1.00  0.00     0.238 C 
HETATM    5  C9  UNL     1      22.703   3.548  51.087  1.00  0.00     0.113 C 
HETATM    6  C10 UNL     1      22.121   4.598  50.247  1.00  0.00     0.189 C 
HETATM    7  O1  UNL     1      21.742   4.363  48.953  1.00  0.00    -0.362 OA
HETATM    8  C11 UNL     1      21.699   3.240  48.169  1.00  0.00     0.134 C 
HETATM    9  C12 UNL     1      21.706   1.961  48.503  1.00  0.00     0.026 C 
HETATM   10  C13 UNL     1      21.765   1.485  49.904  1.00  0.00     0.036 C 
HETATM   11  C14 UNL     1      22.191   2.187  50.960  1.00  0.00     0.074 C 
HETATM   12  O2  UNL     1      22.012   1.225  51.991  1.00  0.00    -0.266 OA
HETATM   13  C15 UNL     1      23.005   0.545  52.504  1.00  0.00     0.057 C 
HETATM   14  S1  UNL     1      24.125  -0.191  53.066  1.00  0.00    -0.004 SA
HETATM   15  C16 UNL     1      25.513  -1.067  53.745  1.00  0.00     0.398 C 
HETATM   16  N4  UNL     1      25.635  -0.948  55.211  1.00  0.00     0.124 N 
HETATM   17  C17 UNL     1      26.489   0.249  55.338  1.00  0.00     0.351 C 
HETATM   18  C18 UNL     1      26.352   0.775  53.917  1.00  0.00     0.149 C 
HETATM   19  N5  UNL     1      25.945   1.982  53.627  1.00  0.00    -0.048 NA
HETATM   20  N6  UNL     1      26.795  -0.471  53.303  1.00  0.00    -0.338 N 
HETATM   21  H1  UNL     1      27.033   1.487  50.438  1.00  0.00     0.174 HD
HETATM   22  H2  UNL     1      27.356   3.004  51.436  1.00  0.00     0.174 HD
HETATM   23  H16 UNL     1      24.678  -0.694  55.547  1.00  0.00     0.320 HD
HETATM   24  H19 UNL     1      27.710  -0.159  52.951  1.00  0.00     0.163 HD
ENDROOT
BRANCH   4  25
HETATM   25  N3  UNL     1      24.821   4.778  50.692  1.00  0.00    -0.366 N 
HETATM   26  H4  UNL     1      24.439   5.528  51.349  1.00  0.00     0.161 HD
BRANCH  25  27
HETATM   27  C3  UNL     1      25.796   5.401  49.832  1.00  0.00     0.029 A 
HETATM   28  C4  UNL     1      25.836   6.763  49.507  1.00  0.00     0.031 A 
HETATM   29  C5  UNL     1      26.861   7.180  48.696  1.00  0.00     0.026 A 
HETATM   30  C6  UNL     1      27.838   6.364  48.186  1.00  0.00     0.034 A 
HETATM   31 CL1  UNL     1      29.064   7.074  47.169  1.00  0.00    -0.084 Cl
HETATM   32  C7  UNL     1      27.832   5.019  48.484  1.00  0.00     0.026 A 
HETATM   33  C8  UNL     1      26.811   4.599  49.294  1.00  0.00     0.031 A 
ENDBRANCH  25  27
ENDBRANCH   4  25
TORSDOF 2
ENDMDL
MODEL 3
REMARK VINA RESULT:      -8.6      1.852      2.548
REMARK  2 active torsions:
REMARK  status: ('A' for Active; 'I' for Inactive)
REMARK       I    between atoms: N1_1  and  C1_2 
REMARK    1  A    between atoms: C2_4  and  N3_5 
REMARK    2  A    between atoms: N3_5  and  C3_6 
ROOT
HETATM    1  N1  UNL     1      23.716   5.156  53.290  1.00  0.00    -0.231 N 
HETATM    2  C1  UNL     1      24.012   4.754  51.957  1.00  0.00     0.719 C 
HETATM    3  N2  UNL     1      23.632   3.667  51.325  1.00  0.00    -0.079 NA
HETATM    4  C2  UNL     1      22.785   2.693  52.033  1.00  0.00     0.238 C 
HETATM    5  C9  UNL     1      22.097   1.939  50.887  1.00  0.00     0.113 C 
HETATM    6  C10 UNL     1      21.742   0.578  51.298  1.00  0.00     0.189 C 
HETATM    7  O1  UNL     1      20.548   0.295  51.904  1.00  0.00    -0.362 OA
HETATM    8  C11 UNL     1      19.435   1.038  52.197  1.00  0.00     0.134 C 
HETATM    9  C12 UNL     1      19.022   2.194  51.704  1.00  0.00     0.026 C 
HETATM   10  C13 UNL     1      19.757   2.943  50.660  1.00  0.00     0.036 C 
HETATM   11  C14 UNL     1      21.051   2.803  50.350  1.00  0.00     0.074 C 
HETATM   12  O2  UNL     1      21.165   3.760  49.304  1.00  0.00    -0.266 OA
HETATM   13  C15 UNL     1      21.711   4.936  49.478  1.00  0.00     0.057 C 
HETATM   14  S1  UNL     1      22.330   6.233  49.693  1.00  0.00    -0.004 SA
HETATM   15  C16 UNL     1      23.105   7.806  49.977  1.00  0.00     0.398 C 
HETATM   16  N4  UNL     1      24.217   8.100  49.052  1.00  0.00     0.124 N 
HETATM   17  C17 UNL     1      25.367   7.542  49.789  1.00  0.00     0.351 C 
HETATM   18  C18 UNL     1      24.601   6.708  50.805  1.00  0.00     0.149 C 
HETATM   19  N5  UNL     1      24.789   5.427  50.980  1.00  0.00    -0.048 NA
HETATM   20  N6  UNL     1      23.805   7.833  51.282  1.00  0.00    -0.338 N 
HETATM   21  H1  UNL     1      22.991   5.648  53.864  1.00  0.00     0.174 HD
HETATM   22  H2  UNL     1      24.598   4.759  53.691  1.00  0.00     0.174 HD
HETATM   23  H16 UNL     1      24.047   7.494  48.218  1.00  0.00     0.320 HD
HETATM   24  H19 UNL     1      24.225   7.938  52.217  1.00  0.00     0.163 HD
ENDROOT
BRANCH   4  25
HETATM   25  N3  UNL     1      23.603   1.853  52.857  1.00  0.00    -0.366 N 
HETATM   26  H4  UNL     1      23.044   1.340  53.607  1.00  0.00     0.161 HD
BRANCH  25  27
HETATM   27  C3  UNL     1      24.987   1.473  53.002  1.00  0.00     0.029 A 
HETATM   28  C4  UNL     1      25.937   2.160  53.767  1.00  0.00     0.031 A 
HETATM   29  C5  UNL     1      27.202   1.628  53.811  1.00  0.00     0.026 A 
HETATM   30  C6  UNL     1      27.595   0.485  53.165  1.00  0.00     0.034 A 
HETATM   31 CL1  UNL     1      29.249  -0.040  53.337  1.00  0.00    -0.084 Cl
HETATM   32  C7  UNL     1      26.687  -0.217  52.403  1.00  0.00     0.026 A 
HETATM   33  C8  UNL     1      25.423   0.309  52.357  1.00  0.00     0.031 A 
ENDBRANCH  25  27
ENDBRANCH   4  25
TORSDOF 2
ENDMDL
MODEL 4
REMARK VINA RESULT:      -8.5      3.774      6.691
REMARK  2 active torsions:
REMARK  status: ('A' for Active; 'I' for Inactive)
REMARK       I    between atoms: N1_1  and  C1_2 
REMARK    1  A    between atoms: C2_4  and  N3_5 
REMARK    2  A    between atoms: N3_5  and  C3_6 
ROOT
HETATM    1  N1  UNL     1      24.301  -0.353  54.265  1.00  0.00    -0.231 N 
HETATM    2  C1  UNL     1      25.025  -0.215  53.047  1.00  0.00     0.719 C 
HETATM    3  N2  UNL     1      24.685   0.441  51.961  1.00  0.00    -0.079 NA
HETATM    4  C2  UNL     1      23.394   1.148  51.934  1.00  0.00     0.238 C 
HETATM    5  C9  UNL     1      23.608   2.209  50.844  1.00  0.00     0.113 C 
HETATM    6  C10 UNL     1      22.335   2.573  50.216  1.00  0.00     0.189 C 
HETATM    7  O1  UNL     1      21.540   3.569  50.717  1.00  0.00    -0.362 OA
HETATM    8  C11 UNL     1      21.682   4.468  51.741  1.00  0.00     0.134 C 
HETATM    9  C12 UNL     1      22.766   4.881  52.376  1.00  0.00     0.026 C 
HETATM   10  C13 UNL     1      24.129   4.398  52.056  1.00  0.00     0.036 C 
HETATM   11  C14 UNL     1      24.437   3.268  51.410  1.00  0.00     0.074 C 
HETATM   12  O2  UNL     1      25.856   3.357  51.407  1.00  0.00    -0.266 OA
HETATM   13  C15 UNL     1      26.609   2.664  52.223  1.00  0.00     0.057 C 
HETATM   14  S1  UNL     1      27.426   1.877  53.131  1.00  0.00    -0.004 SA
HETATM   15  C16 UNL     1      28.402   0.893  54.242  1.00  0.00     0.398 C 
HETATM   16  N4  UNL     1      29.422   0.066  53.568  1.00  0.00     0.124 N 
HETATM   17  C17 UNL     1      28.672  -1.182  53.322  1.00  0.00     0.351 C 
HETATM   18  C18 UNL     1      27.267  -0.653  53.570  1.00  0.00     0.149 C 
HETATM   19  N5  UNL     1      26.295  -0.748  52.704  1.00  0.00    -0.048 NA
HETATM   20  N6  UNL     1      27.581  -0.148  54.902  1.00  0.00    -0.338 N 
HETATM   21  H1  UNL     1      24.124   0.122  55.180  1.00  0.00     0.174 HD
HETATM   22  H2  UNL     1      23.866  -1.267  53.995  1.00  0.00     0.174 HD
HETATM   23  H16 UNL     1      29.584   0.527  52.644  1.00  0.00     0.320 HD
HETATM   24  H19 UNL     1      27.040  -0.825  55.459  1.00  0.00     0.163 HD
ENDROOT
BRANCH   4  25
HETATM   25  N3  UNL     1      22.344   0.223  51.629  1.00  0.00    -0.366 N 
HETATM   26  H4  UNL     1      22.614  -0.470  50.863  1.00  0.00     0.161 HD
BRANCH  25  27
HETATM   27  C3  UNL     1      20.994  -0.076  52.037  1.00  0.00     0.029 A 
HETATM   28  C4  UNL     1      20.627  -0.649  53.261  1.00  0.00     0.031 A 
HETATM   29  C5  UNL     1      19.285  -0.831  53.485  1.00  0.00     0.026 A 
HETATM   30  C6  UNL     1      18.290  -0.495  52.604  1.00  0.00     0.034 A 
HETATM   31 CL1  UNL     1      16.636  -0.802  53.063  1.00  0.00    -0.084 Cl
HETATM   32  C7  UNL     1      18.613   0.071  51.390  1.00  0.00     0.026 A 
HETATM   33  C8  UNL     1      19.951   0.255  51.162  1.00  0.00     0.031 A 
ENDBRANCH  25  27
ENDBRANCH   4  25
TORSDOF 2
ENDMDL
MODEL 5
REMARK VINA RESULT:      -8.5      3.230      6.305
REMARK  2 active torsions:
REMARK  status: ('A' for Active; 'I' for Inactive)
REMARK       I    between atoms: N1_1  and  C1_2 
REMARK    1  A    between atoms: C2_4  and  N3_5 
REMARK    2  A    between atoms: N3_5  and  C3_6 
ROOT
HETATM    1  N1  UNL     1      26.467   2.817  51.176  1.00  0.00    -0.231 N 
HETATM    2  C1  UNL     1      25.951   2.633  52.490  1.00  0.00     0.719 C 
HETATM    3  N2  UNL     1      24.710   2.743  52.906  1.00  0.00    -0.079 NA
HETATM    4  C2  UNL     1      23.664   3.103  51.935  1.00  0.00     0.238 C 
HETATM    5  C9  UNL     1      22.384   2.574  52.597  1.00  0.00     0.113 C 
HETATM    6  C10 UNL     1      21.217   3.348  52.167  1.00  0.00     0.189 C 
HETATM    7  O1  UNL     1      20.506   3.020  51.044  1.00  0.00    -0.362 OA
HETATM    8  C11 UNL     1      20.574   1.984  50.150  1.00  0.00     0.134 C 
HETATM    9  C12 UNL     1      21.139   0.794  50.258  1.00  0.00     0.026 C 
HETATM   10  C13 UNL     1      21.855   0.340  51.472  1.00  0.00     0.036 C 
HETATM   11  C14 UNL     1      22.363   1.124  52.430  1.00  0.00     0.074 C 
HETATM   12  O2  UNL     1      22.907   0.140  53.299  1.00  0.00    -0.266 OA
HETATM   13  C15 UNL     1      24.187  -0.128  53.351  1.00  0.00     0.057 C 
HETATM   14  S1  UNL     1      25.614  -0.401  53.397  1.00  0.00    -0.004 SA
HETATM   15  C16 UNL     1      27.363  -0.706  53.446  1.00  0.00     0.398 C 
HETATM   16  N4  UNL     1      27.953  -0.587  54.793  1.00  0.00     0.124 N 
HETATM   17  C17 UNL     1      28.328   0.840  54.824  1.00  0.00     0.351 C 
HETATM   18  C18 UNL     1      27.519   1.312  53.624  1.00  0.00     0.149 C 
HETATM   19  N5  UNL     1      26.648   2.283  53.675  1.00  0.00    -0.048 NA
HETATM   20  N6  UNL     1      28.112   0.340  52.712  1.00  0.00    -0.338 N 
HETATM   21  H1  UNL     1      26.619   2.316  50.269  1.00  0.00     0.174 HD
HETATM   22  H2  UNL     1      26.736   3.816  51.335  1.00  0.00     0.174 HD
HETATM   23  H16 UNL     1      27.155  -0.721  55.455  1.00  0.00     0.320 HD
HETATM   24  H19 UNL     1      28.673   0.984  52.137  1.00  0.00     0.163 HD
ENDROOT
BRANCH   4  25
HETATM   25  N3  UNL     1      23.658   4.521  51.738  1.00  0.00    -0.366 N 
HETATM   26  H4  UNL     1      23.199   5.049  52.545  1.00  0.00     0.161 HD
BRANCH  25  27
HETATM   27  C3  UNL     1      24.084   5.495  50.762  1.00  0.00     0.029 A 
HETATM   28  C4  UNL     1      24.340   5.227  49.412  1.00  0.00     0.031 A 
HETATM   29  C5  UNL     1      24.707   6.290  48.625  1.00  0.00     0.026 A 
HETATM   30  C6  UNL     1      24.839   7.582  49.065  1.00  0.00     0.034 A 
HETATM   31 CL1  UNL     1      25.317   8.805  47.918  1.00  0.00    -0.084 Cl
HETATM   32  C7  UNL     1      24.595   7.883  50.387  1.00  0.00     0.026 A 
HETATM   33  C8  UNL     1      24.228   6.825  51.176  1.00  0.00     0.031 A 
ENDBRANCH  25  27
ENDBRANCH   4  25
TORSDOF 2
ENDMDL
MODEL 6
REMARK VINA RESULT:      -8.4      7.101     10.609
REMARK  2 active torsions:
REMARK  status: ('A' for Active; 'I' for Inactive)
REMARK       I    between atoms: N1_1  and  C1_2 
REMARK    1  A    between atoms: C2_4  and  N3_5 
REMARK    2  A    between atoms: N3_5  and  C3_6 
ROOT
HETATM    1  N1  UNL     1      31.122   6.137  49.860  1.00  0.00    -0.231 N 
HETATM    2  C1  UNL     1      30.807   5.589  48.584  1.00  0.00     0.719 C 
HETATM    3  N2  UNL     1      29.946   6.026  47.694  1.00  0.00    -0.079 NA
HETATM    4  C2  UNL     1      29.170   7.240  47.994  1.00  0.00     0.238 C 
HETATM    5  C9  UNL     1      28.769   7.744  46.600  1.00  0.00     0.113 C 
HETATM    6  C10 UNL     1      27.522   8.510  46.662  1.00  0.00     0.189 C 
HETATM    7  O1  UNL     1      27.512   9.857  46.906  1.00  0.00    -0.362 OA
HETATM    8  C11 UNL     1      28.495  10.799  47.058  1.00  0.00     0.134 C 
HETATM    9  C12 UNL     1      29.768  10.775  46.700  1.00  0.00     0.026 C 
HETATM   10  C13 UNL     1      30.398   9.625  46.013  1.00  0.00     0.036 C 
HETATM   11  C14 UNL     1      29.944   8.367  45.997  1.00  0.00     0.074 C 
HETATM   12  O2  UNL     1      30.944   7.747  45.199  1.00  0.00    -0.266 OA
HETATM   13  C15 UNL     1      31.897   7.008  45.707  1.00  0.00     0.057 C 
HETATM   14  S1  UNL     1      32.940   6.183  46.294  1.00  0.00    -0.004 SA
HETATM   15  C16 UNL     1      34.195   5.168  47.034  1.00  0.00     0.398 C 
HETATM   16  N4  UNL     1      34.275   3.808  46.467  1.00  0.00     0.124 N 
HETATM   17  C17 UNL     1      33.341   3.070  47.340  1.00  0.00     0.351 C 
HETATM   18  C18 UNL     1      32.641   4.261  47.978  1.00  0.00     0.149 C 
HETATM   19  N5  UNL     1      31.347   4.437  47.957  1.00  0.00    -0.048 NA
HETATM   20  N6  UNL     1      33.880   4.868  48.450  1.00  0.00    -0.338 N 
HETATM   21  H1  UNL     1      31.726   6.854  50.326  1.00  0.00     0.174 HD
HETATM   22  H2  UNL     1      30.455   5.520  50.379  1.00  0.00     0.174 HD
HETATM   23  H16 UNL     1      33.837   3.879  45.520  1.00  0.00     0.320 HD
HETATM   24  H19 UNL     1      33.759   4.710  49.460  1.00  0.00     0.163 HD
ENDROOT
BRANCH   4  25
HETATM   25  N3  UNL     1      28.050   6.904  48.820  1.00  0.00    -0.366 N 
HETATM   26  H4  UNL     1      27.886   7.611  49.603  1.00  0.00     0.161 HD
BRANCH  25  27
HETATM   27  C3  UNL     1      27.043   5.877  48.938  1.00  0.00     0.029 A 
HETATM   28  C4  UNL     1      27.298   4.515  49.137  1.00  0.00     0.031 A 
HETATM   29  C5  UNL     1      26.209   3.688  49.257  1.00  0.00     0.026 A 
HETATM   30  C6  UNL     1      24.903   4.101  49.195  1.00  0.00     0.034 A 
HETATM   31 CL1  UNL     1      23.646   2.904  49.368  1.00  0.00    -0.084 Cl
HETATM   32  C7  UNL     1      24.613   5.433  49.001  1.00  0.00     0.026 A 
HETATM   33  C8  UNL     1      25.698   6.261  48.881  1.00  0.00     0.031 A 
ENDBRANCH  25  27
ENDBRANCH   4  25
TORSDOF 2
ENDMDL
MODEL 7
REMARK VINA RESULT:      -8.2      7.918     11.514
REMARK  2 active torsions:
REMARK  status: ('A' for Active; 'I' for Inactive)
REMARK       I    between atoms: N1_1  and  C1_2 
REMARK    1  A    between atoms: C2_4  and  N3_5 
REMARK    2  A    between atoms: N3_5  and  C3_6 
ROOT
HETATM    1  N1  UNL     1      30.520   6.107  49.398  1.00  0.00    -0.231 N 
HETATM    2  C1  UNL     1      30.860   6.353  48.037  1.00  0.00     0.719 C 
HETATM    3  N2  UNL     1      30.478   7.344  47.263  1.00  0.00    -0.079 NA
HETATM    4  C2  UNL     1      29.579   8.370  47.815  1.00  0.00     0.238 C 
HETATM    5  C9  UNL     1      29.834   9.576  46.900  1.00  0.00     0.113 C 
HETATM    6  C10 UNL     1      28.653  10.442  46.840  1.00  0.00     0.189 C 
HETATM    7  O1  UNL     1      28.450  11.452  47.742  1.00  0.00    -0.362 OA
HETATM    8  C11 UNL     1      29.195  11.966  48.771  1.00  0.00     0.134 C 
HETATM    9  C12 UNL     1      30.489  11.867  49.025  1.00  0.00     0.026 C 
HETATM   10  C13 UNL     1      31.433  11.120  48.163  1.00  0.00     0.036 C 
HETATM   11  C14 UNL     1      31.113  10.164  47.283  1.00  0.00     0.074 C 
HETATM   12  O2  UNL     1      32.404   9.842  46.780  1.00  0.00    -0.266 OA
HETATM   13  C15 UNL     1      33.060   8.771  47.150  1.00  0.00     0.057 C 
HETATM   14  S1  UNL     1      33.765   7.571  47.568  1.00  0.00    -0.004 SA
HETATM   15  C16 UNL     1      34.600   6.091  48.084  1.00  0.00     0.398 C 
HETATM   16  N4  UNL     1      35.013   5.218  46.967  1.00  0.00     0.124 N 
HETATM   17  C17 UNL     1      33.829   4.350  46.820  1.00  0.00     0.351 C 
HETATM   18  C18 UNL     1      32.843   5.171  47.639  1.00  0.00     0.149 C 
HETATM   19  N5  UNL     1      31.696   5.592  47.180  1.00  0.00    -0.048 NA
HETATM   20  N6  UNL     1      33.688   5.191  48.827  1.00  0.00    -0.338 N 
HETATM   21  H1  UNL     1      30.798   6.351  50.377  1.00  0.00     0.174 HD
HETATM   22  H2  UNL     1      29.728   5.462  49.167  1.00  0.00     0.174 HD
HETATM   23  H16 UNL     1      35.055   5.844  46.131  1.00  0.00     0.320 HD
HETATM   24  H19 UNL     1      33.128   4.573  49.431  1.00  0.00     0.163 HD
ENDROOT
BRANCH   4  25
HETATM   25  N3  UNL     1      28.227   7.899  47.772  1.00  0.00    -0.366 N 
HETATM   26  H4  UNL     1      27.781   8.011  46.809  1.00  0.00     0.161 HD
BRANCH  25  27
HETATM   27  C3  UNL     1      27.244   7.307  48.646  1.00  0.00     0.029 A 
HETATM   28  C4  UNL     1      26.513   7.994  49.623  1.00  0.00     0.031 A 
HETATM   29  C5  UNL     1      25.596   7.267  50.340  1.00  0.00     0.026 A 
HETATM   30  C6  UNL     1      25.350   5.929  50.168  1.00  0.00     0.034 A 
HETATM   31 CL1  UNL     1      24.144   5.172  51.175  1.00  0.00    -0.084 Cl
HETATM   32  C7  UNL     1      26.050   5.221  49.217  1.00  0.00     0.026 A 
HETATM   33  C8  UNL     1      26.966   5.943  48.499  1.00  0.00     0.031 A 
ENDBRANCH  25  27
ENDBRANCH   4  25
TORSDOF 2
ENDMDL
MODEL 8
REMARK VINA RESULT:      -8.1      3.616      6.538
REMARK  2 active torsions:
REMARK  status: ('A' for Active; 'I' for Inactive)
REMARK       I    between atoms: N1_1  and  C1_2 
REMARK    1  A    between atoms: C2_4  and  N3_5 
REMARK    2  A    between atoms: N3_5  and  C3_6 
ROOT
HETATM    1  N1  UNL     1      24.067   1.591  51.099  1.00  0.00    -0.231 N 
HETATM    2  C1  UNL     1      23.395   2.133  52.231  1.00  0.00     0.719 C 
HETATM    3  N2  UNL     1      22.879   3.331  52.382  1.00  0.00    -0.079 NA
HETATM    4  C2  UNL     1      22.975   4.291  51.271  1.00  0.00     0.238 C 
HETATM    5  C9  UNL     1      21.826   5.267  51.560  1.00  0.00     0.113 C 
HETATM    6  C10 UNL     1      22.115   6.591  51.004  1.00  0.00     0.189 C 
HETATM    7  O1  UNL     1      21.779   6.926  49.720  1.00  0.00    -0.362 OA
HETATM    8  C11 UNL     1      21.096   6.282  48.722  1.00  0.00     0.134 C 
HETATM    9  C12 UNL     1      20.261   5.258  48.777  1.00  0.00     0.026 C 
HETATM   10  C13 UNL     1      19.890   4.578  50.038  1.00  0.00     0.036 C 
HETATM   11  C14 UNL     1      20.578   4.608  51.185  1.00  0.00     0.074 C 
HETATM   12  O2  UNL     1      19.745   3.795  52.001  1.00  0.00    -0.266 OA
HETATM   13  C15 UNL     1      20.034   2.551  52.288  1.00  0.00     0.057 C 
HETATM   14  S1  UNL     1      20.380   1.174  52.600  1.00  0.00    -0.004 SA
HETATM   15  C16 UNL     1      20.833  -0.501  52.979  1.00  0.00     0.398 C 
HETATM   16  N4  UNL     1      20.884  -0.793  54.425  1.00  0.00     0.124 N 
HETATM   17  C17 UNL     1      22.290  -0.474  54.740  1.00  0.00     0.351 C 
HETATM   18  C18 UNL     1      22.635   0.297  53.474  1.00  0.00     0.149 C 
HETATM   19  N5  UNL     1      23.113   1.512  53.476  1.00  0.00    -0.048 NA
HETATM   20  N6  UNL     1      22.232  -0.783  52.582  1.00  0.00    -0.338 N 
HETATM   21  H1  UNL     1      23.893   1.113  50.184  1.00  0.00     0.174 HD
HETATM   22  H2  UNL     1      25.024   1.827  51.454  1.00  0.00     0.174 HD
HETATM   23  H16 UNL     1      20.284  -0.065  54.873  1.00  0.00     0.320 HD
HETATM   24  H19 UNL     1      23.162  -1.061  52.239  1.00  0.00     0.163 HD
ENDROOT
BRANCH   4  25
HETATM   25  N3  UNL     1      24.265   4.913  51.283  1.00  0.00    -0.366 N 
HETATM   26  H4  UNL     1      24.544   5.269  52.250  1.00  0.00     0.161 HD
BRANCH  25  27
HETATM   27  C3  UNL     1      25.340   5.227  50.373  1.00  0.00     0.029 A 
HETATM   28  C4  UNL     1      26.158   4.288  49.734  1.00  0.00     0.031 A 
HETATM   29  C5  UNL     1      27.112   4.775  48.875  1.00  0.00     0.026 A 
HETATM   30  C6  UNL     1      27.316   6.103  48.603  1.00  0.00     0.034 A 
HETATM   31 CL1  UNL     1      28.579   6.536  47.482  1.00  0.00    -0.084 Cl
HETATM   32  C7  UNL     1      26.530   7.056  49.213  1.00  0.00     0.026 A 
HETATM   33  C8  UNL     1      25.577   6.574  50.071  1.00  0.00     0.031 A 
ENDBRANCH  25  27
ENDBRANCH   4  25
TORSDOF 2
ENDMDL
MODEL 9
REMARK VINA RESULT:      -8.0      3.745      6.066
REMARK  2 active torsions:
REMARK  status: ('A' for Active; 'I' for Inactive)
REMARK       I    between atoms: N1_1  and  C1_2 
REMARK    1  A    between atoms: C2_4  and  N3_5 
REMARK    2  A    between atoms: N3_5  and  C3_6 
ROOT
HETATM    1  N1  UNL     1      20.627   1.999  50.886  1.00  0.00    -0.231 N 
HETATM    2  C1  UNL     1      20.254   3.226  51.504  1.00  0.00     0.719 C 
HETATM    3  N2  UNL     1      20.989   4.294  51.716  1.00  0.00    -0.079 NA
HETATM    4  C2  UNL     1      22.394   4.286  51.280  1.00  0.00     0.238 C 
HETATM    5  C9  UNL     1      22.719   5.781  51.145  1.00  0.00     0.113 C 
HETATM    6  C10 UNL     1      24.149   6.023  51.354  1.00  0.00     0.189 C 
HETATM    7  O1  UNL     1      25.051   5.962  50.326  1.00  0.00    -0.362 OA
HETATM    8  C11 UNL     1      24.934   5.777  48.974  1.00  0.00     0.134 C 
HETATM    9  C12 UNL     1      23.888   5.917  48.177  1.00  0.00     0.026 C 
HETATM   10  C13 UNL     1      22.551   6.336  48.656  1.00  0.00     0.036 C 
HETATM   11  C14 UNL     1      22.101   6.261  49.913  1.00  0.00     0.074 C 
HETATM   12  O2  UNL     1      20.795   6.798  49.747  1.00  0.00    -0.266 OA
HETATM   13  C15 UNL     1      19.723   6.048  49.708  1.00  0.00     0.057 C 
HETATM   14  S1  UNL     1      18.545   5.197  49.677  1.00  0.00    -0.004 SA
HETATM   15  C16 UNL     1      17.121   4.136  49.656  1.00  0.00     0.398 C 
HETATM   16  N4  UNL     1      16.091   4.500  50.649  1.00  0.00     0.124 N 
HETATM   17  C17 UNL     1      16.513   3.701  51.816  1.00  0.00     0.351 C 
HETATM   18  C18 UNL     1      17.918   3.347  51.350  1.00  0.00     0.149 C 
HETATM   19  N5  UNL     1      18.996   3.601  52.043  1.00  0.00    -0.048 NA
HETATM   20  N6  UNL     1      17.466   2.763  50.093  1.00  0.00    -0.338 N 
HETATM   21  H1  UNL     1      20.719   1.539  49.950  1.00  0.00     0.174 HD
HETATM   22  H2  UNL     1      20.850   1.519  51.789  1.00  0.00     0.174 HD
HETATM   23  H16 UNL     1      16.267   5.506  50.871  1.00  0.00     0.320 HD
HETATM   24  H19 UNL     1      17.668   1.774  50.295  1.00  0.00     0.163 HD
ENDROOT
BRANCH   4  25
HETATM   25  N3  UNL     1      23.198   3.616  52.259  1.00  0.00    -0.366 N 
HETATM   26  H4  UNL     1      23.210   4.121  53.199  1.00  0.00     0.161 HD
BRANCH  25  27
HETATM   27  C3  UNL     1      24.026   2.441  52.379  1.00  0.00     0.029 A 
HETATM   28  C4  UNL     1      23.654   1.253  53.019  1.00  0.00     0.031 A 
HETATM   29  C5  UNL     1      24.566   0.227  53.006  1.00  0.00     0.026 A 
HETATM   30  C6  UNL     1      25.803   0.286  52.417  1.00  0.00     0.034 A 
HETATM   31 CL1  UNL     1      26.830  -1.121  52.502  1.00  0.00    -0.084 Cl
HETATM   32  C7  UNL     1      26.203   1.439  51.778  1.00  0.00     0.026 A 
HETATM   33  C8  UNL     1      25.295   2.464  51.789  1.00  0.00     0.031 A 
ENDBRANCH  25  27
ENDBRANCH   4  25
TORSDOF 2
ENDMDL
