MODEL 1
REMARK VINA RESULT:      -7.8      0.000      0.000
REMARK  4 active torsions:
REMARK  status: ('A' for Active; 'I' for Inactive)
REMARK    1  A    between atoms: C3_3  and  C4_4 
REMARK    2  A    between atoms: C5_5  and  C6_6 
REMARK    3  A    between atoms: C6_6  and  C7_7 
REMARK    4  A    between atoms: C7_7  and  S1_8 
ROOT
HETATM    1  S1  UNL     1      23.853   2.578  52.623  1.00  0.00    -0.050 SA
HETATM    2  C8  UNL     1      25.381   1.897  53.191  1.00  0.00     0.091 A 
HETATM    3  N1  UNL     1      24.168   1.567  53.121  1.00  0.00    -0.209 N 
HETATM    4  N2  UNL     1      23.376   0.538  53.432  1.00  0.00    -0.173 NA
HETATM    5  C9  UNL     1      23.778  -0.606  53.824  1.00  0.00     0.151 C 
HETATM    6  C10 UNL     1      25.237  -0.690  53.908  1.00  0.00    -0.017 C 
HETATM    7  C11 UNL     1      25.875  -1.300  52.886  1.00  0.00     0.012 C 
HETATM    8  C12 UNL     1      27.230  -0.944  52.425  1.00  0.00    -0.002 C 
HETATM    9  C13 UNL     1      28.001   0.060  52.835  1.00  0.00    -0.013 C 
HETATM   10  C14 UNL     1      27.698   1.122  53.830  1.00  0.00    -0.003 C 
HETATM   11  C15 UNL     1      29.031   1.740  54.227  1.00  0.00     0.024 C 
HETATM   12  C16 UNL     1      27.023   0.582  55.057  1.00  0.00    -0.012 C 
HETATM   13  C17 UNL     1      25.878  -0.090  55.113  1.00  0.00     0.010 C 
HETATM   14  C18 UNL     1      26.781   2.207  53.305  1.00  0.00     0.085 C 
ENDROOT
BRANCH   1  15
HETATM   15  C7  UNL     1      23.849   4.259  52.065  1.00  0.00     0.097 C 
BRANCH  15  16
HETATM   16  C6  UNL     1      24.310   4.528  50.664  1.00  0.00     0.038 C 
BRANCH  16  17
HETATM   17  C5  UNL     1      25.275   3.569  50.182  1.00  0.00    -0.026 C 
HETATM   18  C4  UNL     1      26.390   3.612  49.470  1.00  0.00    -0.004 C 
BRANCH  18  19
HETATM   19  C3  UNL     1      26.881   4.895  48.984  1.00  0.00    -0.005 C 
HETATM   20  C2  UNL     1      28.082   5.104  48.474  1.00  0.00    -0.031 C 
HETATM   21  C1  UNL     1      28.600   6.386  47.978  1.00  0.00     0.036 C 
ENDBRANCH  18  19
ENDBRANCH  16  17
ENDBRANCH  15  16
ENDBRANCH   1  15
TORSDOF 4
ENDMDL
MODEL 2
REMARK VINA RESULT:      -7.5      2.623      5.842
REMARK  4 active torsions:
REMARK  status: ('A' for Active; 'I' for Inactive)
REMARK    1  A    between atoms: C3_3  and  C4_4 
REMARK    2  A    between atoms: C5_5  and  C6_6 
REMARK    3  A    between atoms: C6_6  and  C7_7 
REMARK    4  A    between atoms: C7_7  and  S1_8 
ROOT
HETATM    1  S1  UNL     1      23.812  -0.397  53.813  1.00  0.00    -0.050 SA
HETATM    2  C8  UNL     1      23.254   0.637  52.494  1.00  0.00     0.091 A 
HETATM    3  N1  UNL     1      22.773  -0.186  53.316  1.00  0.00    -0.209 N 
HETATM    4  N2  UNL     1      21.597  -0.726  53.644  1.00  0.00    -0.173 NA
HETATM    5  C9  UNL     1      20.466  -0.353  53.189  1.00  0.00     0.151 C 
HETATM    6  C10 UNL     1      20.580   0.757  52.242  1.00  0.00    -0.017 C 
HETATM    7  C11 UNL     1      20.310   1.994  52.713  1.00  0.00     0.012 C 
HETATM    8  C12 UNL     1      20.953   3.226  52.220  1.00  0.00    -0.002 C 
HETATM    9  C13 UNL     1      21.944   3.342  51.339  1.00  0.00    -0.013 C 
HETATM   10  C14 UNL     1      22.704   2.270  50.647  1.00  0.00    -0.003 C 
HETATM   11  C15 UNL     1      23.408   2.928  49.468  1.00  0.00     0.024 C 
HETATM   12  C16 UNL     1      21.815   1.173  50.138  1.00  0.00    -0.012 C 
HETATM   13  C17 UNL     1      20.988   0.416  50.850  1.00  0.00     0.010 C 
HETATM   14  C18 UNL     1      23.732   1.586  51.524  1.00  0.00     0.085 C 
ENDROOT
BRANCH   1  15
HETATM   15  C7  UNL     1      25.556  -0.499  54.107  1.00  0.00     0.097 C 
BRANCH  15  16
HETATM   16  C6  UNL     1      26.226   0.688  54.734  1.00  0.00     0.038 C 
BRANCH  16  17
HETATM   17  C5  UNL     1      26.872   1.554  53.777  1.00  0.00    -0.026 C 
HETATM   18  C4  UNL     1      28.086   1.673  53.265  1.00  0.00    -0.004 C 
BRANCH  18  19
HETATM   19  C3  UNL     1      29.137   0.758  53.690  1.00  0.00    -0.005 C 
HETATM   20  C2  UNL     1      29.201  -0.524  53.377  1.00  0.00    -0.031 C 
HETATM   21  C1  UNL     1      30.248  -1.465  53.793  1.00  0.00     0.036 C 
ENDBRANCH  18  19
ENDBRANCH  16  17
ENDBRANCH  15  16
ENDBRANCH   1  15
TORSDOF 4
ENDMDL
MODEL 3
REMARK VINA RESULT:      -7.4      2.509      5.964
REMARK  4 active torsions:
REMARK  status: ('A' for Active; 'I' for Inactive)
REMARK    1  A    between atoms: C3_3  and  C4_4 
REMARK    2  A    between atoms: C5_5  and  C6_6 
REMARK    3  A    between atoms: C6_6  and  C7_7 
REMARK    4  A    between atoms: C7_7  and  S1_8 
ROOT
HETATM    1  S1  UNL     1      25.739   0.233  52.448  1.00  0.00    -0.050 SA
HETATM    2  C8  UNL     1      23.984   0.436  52.420  1.00  0.00     0.091 A 
HETATM    3  N1  UNL     1      25.013   1.071  52.072  1.00  0.00    -0.209 N 
HETATM    4  N2  UNL     1      25.347   2.230  51.498  1.00  0.00    -0.173 NA
HETATM    5  C9  UNL     1      24.528   3.043  50.957  1.00  0.00     0.151 C 
HETATM    6  C10 UNL     1      23.143   2.576  51.026  1.00  0.00    -0.017 C 
HETATM    7  C11 UNL     1      22.634   2.002  49.914  1.00  0.00     0.012 C 
HETATM    8  C12 UNL     1      21.618   0.934  49.925  1.00  0.00    -0.002 C 
HETATM    9  C13 UNL     1      21.112   0.290  50.974  1.00  0.00    -0.013 C 
HETATM   10  C14 UNL     1      21.458   0.433  52.411  1.00  0.00    -0.003 C 
HETATM   11  C15 UNL     1      20.323  -0.204  53.199  1.00  0.00     0.024 C 
HETATM   12  C16 UNL     1      21.599   1.869  52.827  1.00  0.00    -0.012 C 
HETATM   13  C17 UNL     1      22.430   2.773  52.320  1.00  0.00     0.010 C 
HETATM   14  C18 UNL     1      22.765  -0.230  52.793  1.00  0.00     0.085 C 
ENDROOT
BRANCH   1  15
HETATM   15  C7  UNL     1      26.398  -1.181  53.287  1.00  0.00     0.097 C 
BRANCH  15  16
HETATM   16  C6  UNL     1      27.420  -2.005  52.562  1.00  0.00     0.038 C 
BRANCH  16  17
HETATM   17  C5  UNL     1      28.678  -2.107  53.262  1.00  0.00    -0.026 C 
HETATM   18  C4  UNL     1      29.640  -1.272  53.621  1.00  0.00    -0.004 C 
BRANCH  18  19
HETATM   19  C3  UNL     1      29.527   0.141  53.286  1.00  0.00    -0.005 C 
HETATM   20  C2  UNL     1      29.080   1.082  54.099  1.00  0.00    -0.031 C 
HETATM   21  C1  UNL     1      28.957   2.511  53.784  1.00  0.00     0.036 C 
ENDBRANCH  18  19
ENDBRANCH  16  17
ENDBRANCH  15  16
ENDBRANCH   1  15
TORSDOF 4
ENDMDL
MODEL 4
REMARK VINA RESULT:      -7.4      1.188      1.570
REMARK  4 active torsions:
REMARK  status: ('A' for Active; 'I' for Inactive)
REMARK    1  A    between atoms: C3_3  and  C4_4 
REMARK    2  A    between atoms: C5_5  and  C6_6 
REMARK    3  A    between atoms: C6_6  and  C7_7 
REMARK    4  A    between atoms: C7_7  and  S1_8 
ROOT
HETATM    1  S1  UNL     1      24.909   2.453  51.611  1.00  0.00    -0.050 SA
HETATM    2  C8  UNL     1      26.149   1.593  52.529  1.00  0.00     0.091 A 
HETATM    3  N1  UNL     1      24.904   1.546  52.352  1.00  0.00    -0.209 N 
HETATM    4  N2  UNL     1      23.847   0.835  52.751  1.00  0.00    -0.173 NA
HETATM    5  C9  UNL     1      23.901  -0.242  53.430  1.00  0.00     0.151 C 
HETATM    6  C10 UNL     1      25.274  -0.640  53.744  1.00  0.00    -0.017 C 
HETATM    7  C11 UNL     1      25.822  -1.608  52.978  1.00  0.00     0.012 C 
HETATM    8  C12 UNL     1      27.258  -1.698  52.659  1.00  0.00    -0.002 C 
HETATM    9  C13 UNL     1      28.223  -0.832  52.958  1.00  0.00    -0.013 C 
HETATM   10  C14 UNL     1      28.118   0.478  53.652  1.00  0.00    -0.003 C 
HETATM   11  C15 UNL     1      29.524   0.846  54.103  1.00  0.00     0.024 C 
HETATM   12  C16 UNL     1      27.217   0.421  54.851  1.00  0.00    -0.012 C 
HETATM   13  C17 UNL     1      25.937   0.067  54.877  1.00  0.00     0.010 C 
HETATM   14  C18 UNL     1      27.565   1.588  52.781  1.00  0.00     0.085 C 
ENDROOT
BRANCH   1  15
HETATM   15  C7  UNL     1      25.392   3.904  50.719  1.00  0.00     0.097 C 
BRANCH  15  16
HETATM   16  C6  UNL     1      25.810   3.735  49.289  1.00  0.00     0.038 C 
BRANCH  16  17
HETATM   17  C5  UNL     1      27.143   4.217  49.019  1.00  0.00    -0.026 C 
HETATM   18  C4  UNL     1      27.684   5.361  48.632  1.00  0.00    -0.004 C 
BRANCH  18  19
HETATM   19  C3  UNL     1      26.827   6.511  48.377  1.00  0.00    -0.005 C 
HETATM   20  C2  UNL     1      27.113   7.506  47.557  1.00  0.00    -0.031 C 
HETATM   21  C1  UNL     1      26.266   8.674  47.284  1.00  0.00     0.036 C 
ENDBRANCH  18  19
ENDBRANCH  16  17
ENDBRANCH  15  16
ENDBRANCH   1  15
TORSDOF 4
ENDMDL
MODEL 5
REMARK VINA RESULT:      -7.2      2.929      6.900
REMARK  4 active torsions:
REMARK  status: ('A' for Active; 'I' for Inactive)
REMARK    1  A    between atoms: C3_3  and  C4_4 
REMARK    2  A    between atoms: C5_5  and  C6_6 
REMARK    3  A    between atoms: C6_6  and  C7_7 
REMARK    4  A    between atoms: C7_7  and  S1_8 
ROOT
HETATM    1  S1  UNL     1      25.498   2.810  51.075  1.00  0.00    -0.050 SA
HETATM    2  C8  UNL     1      23.814   2.355  50.792  1.00  0.00     0.091 A 
HETATM    3  N1  UNL     1      24.610   3.277  50.472  1.00  0.00    -0.209 N 
HETATM    4  N2  UNL     1      24.624   4.402  49.753  1.00  0.00    -0.173 NA
HETATM    5  C9  UNL     1      23.688   4.792  48.981  1.00  0.00     0.151 C 
HETATM    6  C10 UNL     1      22.557   3.863  48.956  1.00  0.00    -0.017 C 
HETATM    7  C11 UNL     1      22.482   3.018  47.904  1.00  0.00     0.012 C 
HETATM    8  C12 UNL     1      21.907   1.662  47.972  1.00  0.00    -0.002 C 
HETATM    9  C13 UNL     1      21.473   1.005  49.044  1.00  0.00    -0.013 C 
HETATM   10  C14 UNL     1      21.486   1.431  50.468  1.00  0.00    -0.003 C 
HETATM   11  C15 UNL     1      20.515   0.520  51.204  1.00  0.00     0.024 C 
HETATM   12  C16 UNL     1      21.052   2.857  50.644  1.00  0.00    -0.012 C 
HETATM   13  C17 UNL     1      21.600   3.936  50.097  1.00  0.00     0.010 C 
HETATM   14  C18 UNL     1      22.851   1.339  51.120  1.00  0.00     0.085 C 
ENDROOT
BRANCH   1  15
HETATM   15  C7  UNL     1      26.439   1.842  52.221  1.00  0.00     0.097 C 
BRANCH  15  16
HETATM   16  C6  UNL     1      26.487   0.359  52.003  1.00  0.00     0.038 C 
BRANCH  16  17
HETATM   17  C5  UNL     1      26.493  -0.402  53.230  1.00  0.00    -0.026 C 
HETATM   18  C4  UNL     1      25.591  -0.788  54.118  1.00  0.00    -0.004 C 
BRANCH  18  19
HETATM   19  C3  UNL     1      24.195  -0.416  53.930  1.00  0.00    -0.005 C 
HETATM   20  C2  UNL     1      23.174  -0.941  54.585  1.00  0.00    -0.031 C 
HETATM   21  C1  UNL     1      21.760  -0.583  54.414  1.00  0.00     0.036 C 
ENDBRANCH  18  19
ENDBRANCH  16  17
ENDBRANCH  15  16
ENDBRANCH   1  15
TORSDOF 4
ENDMDL
MODEL 6
REMARK VINA RESULT:      -7.1      2.207      6.827
REMARK  4 active torsions:
REMARK  status: ('A' for Active; 'I' for Inactive)
REMARK    1  A    between atoms: C3_3  and  C4_4 
REMARK    2  A    between atoms: C5_5  and  C6_6 
REMARK    3  A    between atoms: C6_6  and  C7_7 
REMARK    4  A    between atoms: C7_7  and  S1_8 
ROOT
HETATM    1  S1  UNL     1      26.025   0.800  52.220  1.00  0.00    -0.050 SA
HETATM    2  C8  UNL     1      24.600   1.799  51.914  1.00  0.00     0.091 A 
HETATM    3  N1  UNL     1      25.822   1.780  51.613  1.00  0.00    -0.209 N 
HETATM    4  N2  UNL     1      26.705   2.491  50.908  1.00  0.00    -0.173 NA
HETATM    5  C9  UNL     1      26.416   3.459  50.131  1.00  0.00     0.151 C 
HETATM    6  C10 UNL     1      24.979   3.730  50.083  1.00  0.00    -0.017 C 
HETATM    7  C11 UNL     1      24.300   3.246  49.020  1.00  0.00     0.012 C 
HETATM    8  C12 UNL     1      22.890   2.816  49.065  1.00  0.00    -0.002 C 
HETATM    9  C13 UNL     1      22.090   2.728  50.125  1.00  0.00    -0.013 C 
HETATM   10  C14 UNL     1      22.402   2.991  51.553  1.00  0.00    -0.003 C 
HETATM   11  C15 UNL     1      21.069   3.151  52.269  1.00  0.00     0.024 C 
HETATM   12  C16 UNL     1      23.214   4.240  51.742  1.00  0.00    -0.012 C 
HETATM   13  C17 UNL     1      24.402   4.511  51.214  1.00  0.00     0.010 C 
HETATM   14  C18 UNL     1      23.197   1.886  52.218  1.00  0.00     0.085 C 
ENDROOT
BRANCH   1  15
HETATM   15  C7  UNL     1      25.867  -0.543  53.364  1.00  0.00     0.097 C 
BRANCH  15  16
HETATM   16  C6  UNL     1      25.461  -0.216  54.769  1.00  0.00     0.038 C 
BRANCH  16  17
HETATM   17  C5  UNL     1      24.644  -1.235  55.384  1.00  0.00    -0.026 C 
HETATM   18  C4  UNL     1      23.354  -1.528  55.425  1.00  0.00    -0.004 C 
BRANCH  18  19
HETATM   19  C3  UNL     1      22.404  -0.686  54.711  1.00  0.00    -0.005 C 
HETATM   20  C2  UNL     1      21.178  -1.044  54.371  1.00  0.00    -0.031 C 
HETATM   21  C1  UNL     1      20.203  -0.214  53.652  1.00  0.00     0.036 C 
ENDBRANCH  18  19
ENDBRANCH  16  17
ENDBRANCH  15  16
ENDBRANCH   1  15
TORSDOF 4
ENDMDL
MODEL 7
REMARK VINA RESULT:      -7.1      2.989      5.396
REMARK  4 active torsions:
REMARK  status: ('A' for Active; 'I' for Inactive)
REMARK    1  A    between atoms: C3_3  and  C4_4 
REMARK    2  A    between atoms: C5_5  and  C6_6 
REMARK    3  A    between atoms: C6_6  and  C7_7 
REMARK    4  A    between atoms: C7_7  and  S1_8 
ROOT
HETATM    1  S1  UNL     1      23.162  -0.330  53.730  1.00  0.00    -0.050 SA
HETATM    2  C8  UNL     1      22.634   0.590  52.317  1.00  0.00     0.091 A 
HETATM    3  N1  UNL     1      22.123  -0.091  53.245  1.00  0.00    -0.209 N 
HETATM    4  N2  UNL     1      20.922  -0.490  53.669  1.00  0.00    -0.173 NA
HETATM    5  C9  UNL     1      19.807  -0.078  53.210  1.00  0.00     0.151 C 
HETATM    6  C10 UNL     1      19.970   0.903  52.136  1.00  0.00    -0.017 C 
HETATM    7  C11 UNL     1      19.818   2.204  52.467  1.00  0.00     0.012 C 
HETATM    8  C12 UNL     1      20.536   3.314  51.813  1.00  0.00    -0.002 C 
HETATM    9  C13 UNL     1      21.496   3.244  50.895  1.00  0.00    -0.013 C 
HETATM   10  C14 UNL     1      22.141   2.041  50.309  1.00  0.00    -0.003 C 
HETATM   11  C15 UNL     1      22.847   2.498  49.041  1.00  0.00     0.024 C 
HETATM   12  C16 UNL     1      21.148   0.970  49.960  1.00  0.00    -0.012 C 
HETATM   13  C17 UNL     1      20.293   0.371  50.781  1.00  0.00     0.010 C 
HETATM   14  C18 UNL     1      23.146   1.378  51.229  1.00  0.00     0.085 C 
ENDROOT
BRANCH   1  15
HETATM   15  C7  UNL     1      24.902  -0.542  53.981  1.00  0.00     0.097 C 
BRANCH  15  16
HETATM   16  C6  UNL     1      25.785   0.652  53.775  1.00  0.00     0.038 C 
BRANCH  16  17
HETATM   17  C5  UNL     1      26.720   0.495  52.687  1.00  0.00    -0.026 C 
HETATM   18  C4  UNL     1      27.066   1.193  51.617  1.00  0.00    -0.004 C 
BRANCH  18  19
HETATM   19  C3  UNL     1      26.413   2.467  51.350  1.00  0.00    -0.005 C 
HETATM   20  C2  UNL     1      26.483   3.133  50.211  1.00  0.00    -0.031 C 
HETATM   21  C1  UNL     1      25.834   4.417  49.918  1.00  0.00     0.036 C 
ENDBRANCH  18  19
ENDBRANCH  16  17
ENDBRANCH  15  16
ENDBRANCH   1  15
TORSDOF 4
ENDMDL
MODEL 8
REMARK VINA RESULT:      -7.1      2.240      5.219
REMARK  4 active torsions:
REMARK  status: ('A' for Active; 'I' for Inactive)
REMARK    1  A    between atoms: C3_3  and  C4_4 
REMARK    2  A    between atoms: C5_5  and  C6_6 
REMARK    3  A    between atoms: C6_6  and  C7_7 
REMARK    4  A    between atoms: C7_7  and  S1_8 
ROOT
HETATM    1  S1  UNL     1      23.424   3.459  51.659  1.00  0.00    -0.050 SA
HETATM    2  C8  UNL     1      24.346   2.170  52.440  1.00  0.00     0.091 A 
HETATM    3  N1  UNL     1      24.477   2.978  51.484  1.00  0.00    -0.209 N 
HETATM    4  N2  UNL     1      25.369   3.305  50.545  1.00  0.00    -0.173 NA
HETATM    5  C9  UNL     1      26.565   2.871  50.486  1.00  0.00     0.151 C 
HETATM    6  C10 UNL     1      26.883   1.949  51.577  1.00  0.00    -0.017 C 
HETATM    7  C11 UNL     1      27.578   2.451  52.621  1.00  0.00     0.012 C 
HETATM    8  C12 UNL     1      27.440   1.980  54.011  1.00  0.00    -0.002 C 
HETATM    9  C13 UNL     1      26.576   1.092  54.497  1.00  0.00    -0.013 C 
HETATM   10  C14 UNL     1      25.488   0.367  53.791  1.00  0.00    -0.003 C 
HETATM   11  C15 UNL     1      25.095  -0.803  54.681  1.00  0.00     0.024 C 
HETATM   12  C16 UNL     1      25.923  -0.158  52.453  1.00  0.00    -0.012 C 
HETATM   13  C17 UNL     1      26.403   0.545  51.433  1.00  0.00     0.010 C 
HETATM   14  C18 UNL     1      24.265   1.218  53.515  1.00  0.00     0.085 C 
ENDROOT
BRANCH   1  15
HETATM   15  C7  UNL     1      21.760   3.733  52.197  1.00  0.00     0.097 C 
BRANCH  15  16
HETATM   16  C6  UNL     1      20.677   2.919  51.553  1.00  0.00     0.038 C 
BRANCH  16  17
HETATM   17  C5  UNL     1      21.173   1.770  50.834  1.00  0.00    -0.026 C 
HETATM   18  C4  UNL     1      21.315   0.478  51.081  1.00  0.00    -0.004 C 
BRANCH  18  19
HETATM   19  C3  UNL     1      20.906  -0.055  52.374  1.00  0.00    -0.005 C 
HETATM   20  C2  UNL     1      21.652  -0.818  53.152  1.00  0.00    -0.031 C 
HETATM   21  C1  UNL     1      21.262  -1.367  54.458  1.00  0.00     0.036 C 
ENDBRANCH  18  19
ENDBRANCH  16  17
ENDBRANCH  15  16
ENDBRANCH   1  15
TORSDOF 4
ENDMDL
MODEL 9
REMARK VINA RESULT:      -7.1      1.790      3.042
REMARK  4 active torsions:
REMARK  status: ('A' for Active; 'I' for Inactive)
REMARK    1  A    between atoms: C3_3  and  C4_4 
REMARK    2  A    between atoms: C5_5  and  C6_6 
REMARK    3  A    between atoms: C6_6  and  C7_7 
REMARK    4  A    between atoms: C7_7  and  S1_8 
ROOT
HETATM    1  S1  UNL     1      25.063   2.492  51.657  1.00  0.00    -0.050 SA
HETATM    2  C8  UNL     1      26.265   1.561  52.558  1.00  0.00     0.091 A 
HETATM    3  N1  UNL     1      25.016   1.587  52.399  1.00  0.00    -0.209 N 
HETATM    4  N2  UNL     1      23.926   0.939  52.815  1.00  0.00    -0.173 NA
HETATM    5  C9  UNL     1      23.927  -0.139  53.494  1.00  0.00     0.151 C 
HETATM    6  C10 UNL     1      25.279  -0.616  53.789  1.00  0.00    -0.017 C 
HETATM    7  C11 UNL     1      25.758  -1.615  53.017  1.00  0.00     0.012 C 
HETATM    8  C12 UNL     1      27.182  -1.788  52.676  1.00  0.00    -0.002 C 
HETATM    9  C13 UNL     1      28.200  -0.980  52.961  1.00  0.00    -0.013 C 
HETATM   10  C14 UNL     1      28.181   0.334  53.654  1.00  0.00    -0.003 C 
HETATM   11  C15 UNL     1      29.613   0.620  54.084  1.00  0.00     0.024 C 
HETATM   12  C16 UNL     1      27.296   0.330  54.867  1.00  0.00    -0.012 C 
HETATM   13  C17 UNL     1      25.998   0.051  54.911  1.00  0.00     0.010 C 
HETATM   14  C18 UNL     1      27.682   1.474  52.790  1.00  0.00     0.085 C 
ENDROOT
BRANCH   1  15
HETATM   15  C7  UNL     1      25.617   3.912  50.756  1.00  0.00     0.097 C 
BRANCH  15  16
HETATM   16  C6  UNL     1      25.410   3.918  49.271  1.00  0.00     0.038 C 
BRANCH  16  17
HETATM   17  C5  UNL     1      24.184   4.563  48.865  1.00  0.00    -0.026 C 
HETATM   18  C4  UNL     1      22.947   4.177  48.594  1.00  0.00    -0.004 C 
BRANCH  18  19
HETATM   19  C3  UNL     1      22.598   2.766  48.690  1.00  0.00    -0.005 C 
HETATM   20  C2  UNL     1      21.841   2.233  49.633  1.00  0.00    -0.031 C 
HETATM   21  C1  UNL     1      21.476   0.816  49.752  1.00  0.00     0.036 C 
ENDBRANCH  18  19
ENDBRANCH  16  17
ENDBRANCH  15  16
ENDBRANCH   1  15
TORSDOF 4
ENDMDL
