MODEL 1
REMARK VINA RESULT:      -7.6      0.000      0.000
REMARK  6 active torsions:
REMARK  status: ('A' for Active; 'I' for Inactive)
REMARK    1  A    between atoms: C2_2  and  N5_14 
REMARK    2  A    between atoms: C3_3  and  C4_4 
REMARK       I    between atoms: C4_4  and  N1_6 
REMARK    3  A    between atoms: N1_6  and  C5_7 
REMARK    4  A    between atoms: C5_7  and  C6_8 
REMARK    5  A    between atoms: C6_8  and  N2_9 
REMARK    6  A    between atoms: N5_14  and  C9_15 
ROOT
HETATM    1  C1  UNL     1      23.855   4.281  53.025  1.00  0.00     0.068 C 
HETATM    2  C2  UNL     1      23.949   2.886  52.555  1.00  0.00     0.011 C 
HETATM    3  C3  UNL     1      25.079   2.245  52.351  1.00  0.00     0.098 C 
ENDROOT
BRANCH   3   4
HETATM    4  C4  UNL     1      26.517   2.359  52.407  1.00  0.00     0.243 C 
HETATM    5  O1  UNL     1      27.523   2.458  51.617  1.00  0.00    -0.269 OA
HETATM    6  N1  UNL     1      27.127   2.380  53.699  1.00  0.00    -0.356 N 
HETATM    7  H5  UNL     1      26.650   2.320  54.641  1.00  0.00     0.162 HD
BRANCH   6   8
HETATM    8  C5  UNL     1      28.580   2.498  53.660  1.00  0.00     0.144 C 
BRANCH   8   9
HETATM    9  C6  UNL     1      29.194   1.570  54.697  1.00  0.00     0.165 C 
BRANCH   9  10
HETATM   10  N2  UNL     1      29.047   0.218  54.143  1.00  0.00    -0.282 N 
HETATM   11  C7  UNL     1      30.007  -0.532  53.532  1.00  0.00     0.128 A 
HETATM   12  C8  UNL     1      29.359  -1.708  53.203  1.00  0.00     0.154 A 
HETATM   13  N3  UNL     1      28.076  -1.615  53.620  1.00  0.00    -0.171 NA
HETATM   14  N4  UNL     1      27.900  -0.434  54.192  1.00  0.00     0.004 NA
ENDBRANCH   9  10
ENDBRANCH   8   9
ENDBRANCH   6   8
ENDBRANCH   3   4
BRANCH   2  15
HETATM   15  N5  UNL     1      22.744   2.177  52.302  1.00  0.00    -0.357 N 
HETATM   16  H12 UNL     1      22.208   2.581  51.517  1.00  0.00     0.166 HD
BRANCH  15  17
HETATM   17  C9  UNL     1      22.203   1.036  52.960  1.00  0.00     0.083 C 
HETATM   18  C10 UNL     1      22.987  -0.001  53.151  1.00  0.00     0.018 C 
HETATM   19  C11 UNL     1      22.583  -1.001  53.852  1.00  0.00    -0.011 C 
HETATM   20  C12 UNL     1      21.655  -0.857  54.773  1.00  0.00     0.016 C 
HETATM   21  C13 UNL     1      20.563   0.024  54.331  1.00  0.00     0.045 C 
HETATM   22  C14 UNL     1      20.802   0.978  53.429  1.00  0.00     0.143 C 
HETATM   23  F1  UNL     1      19.925   1.850  52.933  1.00  0.00    -0.204 F 
ENDBRANCH  15  17
ENDBRANCH   2  15
TORSDOF 6
ENDMDL
MODEL 2
REMARK VINA RESULT:      -7.5      1.421      2.110
REMARK  6 active torsions:
REMARK  status: ('A' for Active; 'I' for Inactive)
REMARK    1  A    between atoms: C2_2  and  N5_14 
REMARK    2  A    between atoms: C3_3  and  C4_4 
REMARK       I    between atoms: C4_4  and  N1_6 
REMARK    3  A    between atoms: N1_6  and  C5_7 
REMARK    4  A    between atoms: C5_7  and  C6_8 
REMARK    5  A    between atoms: C6_8  and  N2_9 
REMARK    6  A    between atoms: N5_14  and  C9_15 
ROOT
HETATM    1  C1  UNL     1      24.308  -0.345  53.300  1.00  0.00     0.068 C 
HETATM    2  C2  UNL     1      24.051   1.078  53.005  1.00  0.00     0.011 C 
HETATM    3  C3  UNL     1      24.989   1.967  52.763  1.00  0.00     0.098 C 
ENDROOT
BRANCH   3   4
HETATM    4  C4  UNL     1      26.415   2.164  52.645  1.00  0.00     0.243 C 
HETATM    5  O1  UNL     1      27.323   2.230  51.742  1.00  0.00    -0.269 OA
HETATM    6  N1  UNL     1      27.155   2.359  53.852  1.00  0.00    -0.356 N 
HETATM    7  H5  UNL     1      26.785   2.378  54.842  1.00  0.00     0.162 HD
BRANCH   6   8
HETATM    8  C5  UNL     1      28.584   2.550  53.638  1.00  0.00     0.144 C 
BRANCH   8   9
HETATM    9  C6  UNL     1      29.365   1.682  54.612  1.00  0.00     0.165 C 
BRANCH   9  10
HETATM   10  N2  UNL     1      29.207   0.307  54.120  1.00  0.00    -0.282 N 
HETATM   11  C7  UNL     1      30.139  -0.450  53.476  1.00  0.00     0.128 A 
HETATM   12  C8  UNL     1      29.493  -1.647  53.232  1.00  0.00     0.154 A 
HETATM   13  N3  UNL     1      28.237  -1.559  53.727  1.00  0.00    -0.171 NA
HETATM   14  N4  UNL     1      28.077  -0.360  54.266  1.00  0.00     0.004 NA
ENDBRANCH   9  10
ENDBRANCH   8   9
ENDBRANCH   6   8
ENDBRANCH   3   4
BRANCH   2  15
HETATM   15  N5  UNL     1      22.704   1.528  52.979  1.00  0.00    -0.357 N 
HETATM   16  H12 UNL     1      22.597   2.473  53.382  1.00  0.00     0.166 HD
BRANCH  15  17
HETATM   17  C9  UNL     1      21.535   0.877  52.491  1.00  0.00     0.083 C 
HETATM   18  C10 UNL     1      20.691   0.379  53.365  1.00  0.00     0.018 C 
HETATM   19  C11 UNL     1      19.563  -0.102  52.977  1.00  0.00    -0.011 C 
HETATM   20  C12 UNL     1      18.998   0.300  51.860  1.00  0.00     0.016 C 
HETATM   21  C13 UNL     1      19.971   0.455  50.767  1.00  0.00     0.045 C 
HETATM   22  C14 UNL     1      21.244   0.743  51.048  1.00  0.00     0.143 C 
HETATM   23  F1  UNL     1      22.237   0.915  50.176  1.00  0.00    -0.204 F 
ENDBRANCH  15  17
ENDBRANCH   2  15
TORSDOF 6
ENDMDL
MODEL 3
REMARK VINA RESULT:      -7.2      4.443      6.786
REMARK  6 active torsions:
REMARK  status: ('A' for Active; 'I' for Inactive)
REMARK    1  A    between atoms: C2_2  and  N5_14 
REMARK    2  A    between atoms: C3_3  and  C4_4 
REMARK       I    between atoms: C4_4  and  N1_6 
REMARK    3  A    between atoms: N1_6  and  C5_7 
REMARK    4  A    between atoms: C5_7  and  C6_8 
REMARK    5  A    between atoms: C6_8  and  N2_9 
REMARK    6  A    between atoms: N5_14  and  C9_15 
ROOT
HETATM    1  C1  UNL     1      24.591   2.410  53.144  1.00  0.00     0.068 C 
HETATM    2  C2  UNL     1      26.043   2.273  52.923  1.00  0.00     0.011 C 
HETATM    3  C3  UNL     1      26.661   2.615  51.814  1.00  0.00     0.098 C 
ENDROOT
BRANCH   3   4
HETATM    4  C4  UNL     1      26.476   3.166  50.492  1.00  0.00     0.243 C 
HETATM    5  O1  UNL     1      26.411   2.780  49.271  1.00  0.00    -0.269 OA
HETATM    6  N1  UNL     1      26.301   4.580  50.386  1.00  0.00    -0.356 N 
HETATM    7  H5  UNL     1      26.288   5.291  51.169  1.00  0.00     0.162 HD
BRANCH   6   8
HETATM    8  C5  UNL     1      26.121   5.048  49.017  1.00  0.00     0.144 C 
BRANCH   8   9
HETATM    9  C6  UNL     1      26.701   6.447  48.877  1.00  0.00     0.165 C 
BRANCH   9  10
HETATM   10  N2  UNL     1      28.097   6.250  48.466  1.00  0.00    -0.282 N 
HETATM   11  C7  UNL     1      28.988   7.209  48.088  1.00  0.00     0.128 A 
HETATM   12  C8  UNL     1      30.143   6.505  47.806  1.00  0.00     0.154 A 
HETATM   13  N3  UNL     1      29.902   5.192  48.021  1.00  0.00    -0.171 NA
HETATM   14  N4  UNL     1      28.648   5.051  48.424  1.00  0.00     0.004 NA
ENDBRANCH   9  10
ENDBRANCH   8   9
ENDBRANCH   6   8
ENDBRANCH   3   4
BRANCH   2  15
HETATM   15  N5  UNL     1      26.837   1.736  53.971  1.00  0.00    -0.357 N 
HETATM   16  H12 UNL     1      26.663   2.203  54.876  1.00  0.00     0.166 HD
BRANCH  15  17
HETATM   17  C9  UNL     1      27.798   0.685  53.940  1.00  0.00     0.083 C 
HETATM   18  C10 UNL     1      27.395  -0.515  53.591  1.00  0.00     0.018 C 
HETATM   19  C11 UNL     1      28.247  -1.464  53.424  1.00  0.00    -0.011 C 
HETATM   20  C12 UNL     1      29.498  -1.209  53.107  1.00  0.00     0.016 C 
HETATM   21  C13 UNL     1      30.040  -0.064  53.855  1.00  0.00     0.045 C 
HETATM   22  C14 UNL     1      29.220   0.898  54.284  1.00  0.00     0.143 C 
HETATM   23  F1  UNL     1      29.556   1.991  54.968  1.00  0.00    -0.204 F 
ENDBRANCH  15  17
ENDBRANCH   2  15
TORSDOF 6
ENDMDL
MODEL 4
REMARK VINA RESULT:      -7.2      3.766      6.368
REMARK  6 active torsions:
REMARK  status: ('A' for Active; 'I' for Inactive)
REMARK    1  A    between atoms: C2_2  and  N5_14 
REMARK    2  A    between atoms: C3_3  and  C4_4 
REMARK       I    between atoms: C4_4  and  N1_6 
REMARK    3  A    between atoms: N1_6  and  C5_7 
REMARK    4  A    between atoms: C5_7  and  C6_8 
REMARK    5  A    between atoms: C6_8  and  N2_9 
REMARK    6  A    between atoms: N5_14  and  C9_15 
ROOT
HETATM    1  C1  UNL     1      23.087   0.133  53.745  1.00  0.00     0.068 C 
HETATM    2  C2  UNL     1      24.477   0.241  53.263  1.00  0.00     0.011 C 
HETATM    3  C3  UNL     1      24.850   0.959  52.227  1.00  0.00     0.098 C 
ENDROOT
BRANCH   3   4
HETATM    4  C4  UNL     1      24.383   1.842  51.183  1.00  0.00     0.243 C 
HETATM    5  O1  UNL     1      23.319   2.085  50.511  1.00  0.00    -0.269 OA
HETATM    6  N1  UNL     1      25.314   2.787  50.654  1.00  0.00    -0.356 N 
HETATM    7  H5  UNL     1      26.325   2.927  50.935  1.00  0.00     0.162 HD
BRANCH   6   8
HETATM    8  C5  UNL     1      24.759   3.635  49.607  1.00  0.00     0.144 C 
BRANCH   8   9
HETATM    9  C6  UNL     1      25.114   5.088  49.886  1.00  0.00     0.165 C 
BRANCH   9  10
HETATM   10  N2  UNL     1      26.416   5.299  49.242  1.00  0.00    -0.282 N 
HETATM   11  C7  UNL     1      26.897   6.460  48.716  1.00  0.00     0.128 A 
HETATM   12  C8  UNL     1      28.151   6.123  48.241  1.00  0.00     0.154 A 
HETATM   13  N3  UNL     1      28.361   4.812  48.496  1.00  0.00    -0.171 NA
HETATM   14  N4  UNL     1      27.294   4.322  49.108  1.00  0.00     0.004 NA
ENDBRANCH   9  10
ENDBRANCH   8   9
ENDBRANCH   6   8
ENDBRANCH   3   4
BRANCH   2  15
HETATM   15  N5  UNL     1      25.489  -0.476  53.956  1.00  0.00    -0.357 N 
HETATM   16  H12 UNL     1      25.113  -1.015  54.753  1.00  0.00     0.166 HD
BRANCH  15  17
HETATM   17  C9  UNL     1      26.889  -0.546  53.708  1.00  0.00     0.083 C 
HETATM   18  C10 UNL     1      27.663   0.362  54.259  1.00  0.00     0.018 C 
HETATM   19  C11 UNL     1      28.943   0.265  54.169  1.00  0.00    -0.011 C 
HETATM   20  C12 UNL     1      29.528  -0.899  53.993  1.00  0.00     0.016 C 
HETATM   21  C13 UNL     1      28.811  -1.743  53.025  1.00  0.00     0.045 C 
HETATM   22  C14 UNL     1      27.495  -1.592  52.858  1.00  0.00     0.143 C 
HETATM   23  F1  UNL     1      26.709  -2.276  52.028  1.00  0.00    -0.204 F 
ENDBRANCH  15  17
ENDBRANCH   2  15
TORSDOF 6
ENDMDL
MODEL 5
REMARK VINA RESULT:      -7.2      3.956      6.130
REMARK  6 active torsions:
REMARK  status: ('A' for Active; 'I' for Inactive)
REMARK    1  A    between atoms: C2_2  and  N5_14 
REMARK    2  A    between atoms: C3_3  and  C4_4 
REMARK       I    between atoms: C4_4  and  N1_6 
REMARK    3  A    between atoms: N1_6  and  C5_7 
REMARK    4  A    between atoms: C5_7  and  C6_8 
REMARK    5  A    between atoms: C6_8  and  N2_9 
REMARK    6  A    between atoms: N5_14  and  C9_15 
ROOT
HETATM    1  C1  UNL     1      23.750   3.362  49.375  1.00  0.00     0.068 C 
HETATM    2  C2  UNL     1      24.522   3.906  50.509  1.00  0.00     0.011 C 
HETATM    3  C3  UNL     1      24.622   3.326  51.684  1.00  0.00     0.098 C 
ENDROOT
BRANCH   3   4
HETATM    4  C4  UNL     1      24.221   2.178  52.463  1.00  0.00     0.243 C 
HETATM    5  O1  UNL     1      23.183   1.708  53.053  1.00  0.00    -0.269 OA
HETATM    6  N1  UNL     1      25.210   1.180  52.723  1.00  0.00    -0.356 N 
HETATM    7  H5  UNL     1      26.221   1.175  52.412  1.00  0.00     0.162 HD
BRANCH   6   8
HETATM    8  C5  UNL     1      24.718   0.058  53.514  1.00  0.00     0.144 C 
BRANCH   8   9
HETATM    9  C6  UNL     1      25.805  -0.999  53.629  1.00  0.00     0.165 C 
BRANCH   9  10
HETATM   10  N2  UNL     1      27.033  -0.260  53.949  1.00  0.00    -0.282 N 
HETATM   11  C7  UNL     1      28.255  -0.399  53.362  1.00  0.00     0.128 A 
HETATM   12  C8  UNL     1      29.053   0.517  54.022  1.00  0.00     0.154 A 
HETATM   13  N3  UNL     1      28.296   1.147  54.949  1.00  0.00    -0.171 NA
HETATM   14  N4  UNL     1      27.065   0.662  54.893  1.00  0.00     0.004 NA
ENDBRANCH   9  10
ENDBRANCH   8   9
ENDBRANCH   6   8
ENDBRANCH   3   4
BRANCH   2  15
HETATM   15  N5  UNL     1      25.206   5.138  50.330  1.00  0.00    -0.357 N 
HETATM   16  H12 UNL     1      24.921   5.850  51.021  1.00  0.00     0.166 HD
BRANCH  15  17
HETATM   17  C9  UNL     1      26.188   5.502  49.365  1.00  0.00     0.083 C 
HETATM   18  C10 UNL     1      26.130   6.707  48.844  1.00  0.00     0.018 C 
HETATM   19  C11 UNL     1      27.067   7.125  48.068  1.00  0.00    -0.011 C 
HETATM   20  C12 UNL     1      28.285   6.636  48.146  1.00  0.00     0.016 C 
HETATM   21  C13 UNL     1      28.290   5.177  48.330  1.00  0.00     0.045 C 
HETATM   22  C14 UNL     1      27.260   4.580  48.934  1.00  0.00     0.143 C 
HETATM   23  F1  UNL     1      27.117   3.277  49.175  1.00  0.00    -0.204 F 
ENDBRANCH  15  17
ENDBRANCH   2  15
TORSDOF 6
ENDMDL
MODEL 6
REMARK VINA RESULT:      -7.1      3.047      7.513
REMARK  6 active torsions:
REMARK  status: ('A' for Active; 'I' for Inactive)
REMARK    1  A    between atoms: C2_2  and  N5_14 
REMARK    2  A    between atoms: C3_3  and  C4_4 
REMARK       I    between atoms: C4_4  and  N1_6 
REMARK    3  A    between atoms: N1_6  and  C5_7 
REMARK    4  A    between atoms: C5_7  and  C6_8 
REMARK    5  A    between atoms: C6_8  and  N2_9 
REMARK    6  A    between atoms: N5_14  and  C9_15 
ROOT
HETATM    1  C1  UNL     1      24.703   2.252  53.036  1.00  0.00     0.068 C 
HETATM    2  C2  UNL     1      24.969   0.813  52.844  1.00  0.00     0.011 C 
HETATM    3  C3  UNL     1      24.124  -0.145  53.156  1.00  0.00     0.098 C 
ENDROOT
BRANCH   3   4
HETATM    4  C4  UNL     1      22.817  -0.423  53.703  1.00  0.00     0.243 C 
HETATM    5  O1  UNL     1      22.277  -0.816  54.798  1.00  0.00    -0.269 OA
HETATM    6  N1  UNL     1      21.690  -0.237  52.845  1.00  0.00    -0.356 N 
HETATM    7  H5  UNL     1      21.691   0.085  51.837  1.00  0.00     0.162 HD
BRANCH   6   8
HETATM    8  C5  UNL     1      20.413  -0.540  53.479  1.00  0.00     0.144 C 
BRANCH   8   9
HETATM    9  C6  UNL     1      19.276  -0.116  52.563  1.00  0.00     0.165 C 
BRANCH   9  10
HETATM   10  N2  UNL     1      19.560   1.281  52.213  1.00  0.00    -0.282 N 
HETATM   11  C7  UNL     1      19.382   1.881  51.002  1.00  0.00     0.128 A 
HETATM   12  C8  UNL     1      19.796   3.184  51.206  1.00  0.00     0.154 A 
HETATM   13  N3  UNL     1      20.192   3.306  52.493  1.00  0.00    -0.171 NA
HETATM   14  N4  UNL     1      20.042   2.137  53.096  1.00  0.00     0.004 NA
ENDBRANCH   9  10
ENDBRANCH   8   9
ENDBRANCH   6   8
ENDBRANCH   3   4
BRANCH   2  15
HETATM   15  N5  UNL     1      26.216   0.426  52.287  1.00  0.00    -0.357 N 
HETATM   16  H12 UNL     1      26.195   0.400  51.255  1.00  0.00     0.166 HD
BRANCH  15  17
HETATM   17  C9  UNL     1      27.437   0.085  52.936  1.00  0.00     0.083 C 
HETATM   18  C10 UNL     1      27.782  -1.182  52.984  1.00  0.00     0.018 C 
HETATM   19  C11 UNL     1      28.934  -1.525  53.443  1.00  0.00    -0.011 C 
HETATM   20  C12 UNL     1      29.954  -0.696  53.415  1.00  0.00     0.016 C 
HETATM   21  C13 UNL     1      29.567   0.677  53.777  1.00  0.00     0.045 C 
HETATM   22  C14 UNL     1      28.320   1.097  53.552  1.00  0.00     0.143 C 
HETATM   23  F1  UNL     1      27.821   2.303  53.821  1.00  0.00    -0.204 F 
ENDBRANCH  15  17
ENDBRANCH   2  15
TORSDOF 6
ENDMDL
MODEL 7
REMARK VINA RESULT:      -7.1      3.102      7.177
REMARK  6 active torsions:
REMARK  status: ('A' for Active; 'I' for Inactive)
REMARK    1  A    between atoms: C2_2  and  N5_14 
REMARK    2  A    between atoms: C3_3  and  C4_4 
REMARK       I    between atoms: C4_4  and  N1_6 
REMARK    3  A    between atoms: N1_6  and  C5_7 
REMARK    4  A    between atoms: C5_7  and  C6_8 
REMARK    5  A    between atoms: C6_8  and  N2_9 
REMARK    6  A    between atoms: N5_14  and  C9_15 
ROOT
HETATM    1  C1  UNL     1      22.654  -0.532  54.070  1.00  0.00     0.068 C 
HETATM    2  C2  UNL     1      23.994  -0.148  53.587  1.00  0.00     0.011 C 
HETATM    3  C3  UNL     1      24.216   0.719  52.623  1.00  0.00     0.098 C 
ENDROOT
BRANCH   3   4
HETATM    4  C4  UNL     1      23.582   1.607  51.677  1.00  0.00     0.243 C 
HETATM    5  O1  UNL     1      22.890   1.556  50.599  1.00  0.00    -0.269 OA
HETATM    6  N1  UNL     1      23.694   3.011  51.914  1.00  0.00    -0.356 N 
HETATM    7  H5  UNL     1      24.194   3.495  52.711  1.00  0.00     0.162 HD
BRANCH   6   8
HETATM    8  C5  UNL     1      23.026   3.831  50.911  1.00  0.00     0.144 C 
BRANCH   8   9
HETATM    9  C6  UNL     1      22.152   4.867  51.600  1.00  0.00     0.165 C 
BRANCH   9  10
HETATM   10  N2  UNL     1      20.795   4.306  51.580  1.00  0.00    -0.282 N 
HETATM   11  C7  UNL     1      19.815   4.554  50.667  1.00  0.00     0.128 A 
HETATM   12  C8  UNL     1      18.749   3.787  51.099  1.00  0.00     0.154 A 
HETATM   13  N3  UNL     1      19.126   3.132  52.220  1.00  0.00    -0.171 NA
HETATM   14  N4  UNL     1      20.378   3.459  52.502  1.00  0.00     0.004 NA
ENDBRANCH   9  10
ENDBRANCH   8   9
ENDBRANCH   6   8
ENDBRANCH   3   4
BRANCH   2  15
HETATM   15  N5  UNL     1      25.128  -0.750  54.195  1.00  0.00    -0.357 N 
HETATM   16  H12 UNL     1      24.867  -1.463  54.895  1.00  0.00     0.166 HD
BRANCH  15  17
HETATM   17  C9  UNL     1      26.514  -0.508  53.977  1.00  0.00     0.083 C 
HETATM   18  C10 UNL     1      27.109   0.403  54.713  1.00  0.00     0.018 C 
HETATM   19  C11 UNL     1      28.384   0.565  54.642  1.00  0.00    -0.011 C 
HETATM   20  C12 UNL     1      29.175  -0.414  54.262  1.00  0.00     0.016 C 
HETATM   21  C13 UNL     1      28.621  -1.173  53.130  1.00  0.00     0.045 C 
HETATM   22  C14 UNL     1      27.298  -1.240  52.960  1.00  0.00     0.143 C 
HETATM   23  F1  UNL     1      26.647  -1.883  51.992  1.00  0.00    -0.204 F 
ENDBRANCH  15  17
ENDBRANCH   2  15
TORSDOF 6
ENDMDL
MODEL 8
REMARK VINA RESULT:      -7.1      2.829      6.342
REMARK  6 active torsions:
REMARK  status: ('A' for Active; 'I' for Inactive)
REMARK    1  A    between atoms: C2_2  and  N5_14 
REMARK    2  A    between atoms: C3_3  and  C4_4 
REMARK       I    between atoms: C4_4  and  N1_6 
REMARK    3  A    between atoms: N1_6  and  C5_7 
REMARK    4  A    between atoms: C5_7  and  C6_8 
REMARK    5  A    between atoms: C6_8  and  N2_9 
REMARK    6  A    between atoms: N5_14  and  C9_15 
ROOT
HETATM    1  C1  UNL     1      26.397   3.122  49.655  1.00  0.00     0.068 C 
HETATM    2  C2  UNL     1      26.098   2.798  51.063  1.00  0.00     0.011 C 
HETATM    3  C3  UNL     1      24.911   2.451  51.508  1.00  0.00     0.098 C 
ENDROOT
BRANCH   3   4
HETATM    4  C4  UNL     1      23.539   2.214  51.125  1.00  0.00     0.243 C 
HETATM    5  O1  UNL     1      22.851   1.901  50.089  1.00  0.00    -0.269 OA
HETATM    6  N1  UNL     1      22.540   2.337  52.140  1.00  0.00    -0.356 N 
HETATM    7  H5  UNL     1      22.681   2.586  53.159  1.00  0.00     0.162 HD
BRANCH   6   8
HETATM    8  C5  UNL     1      21.187   2.080  51.666  1.00  0.00     0.144 C 
BRANCH   8   9
HETATM    9  C6  UNL     1      20.316   1.632  52.829  1.00  0.00     0.165 C 
BRANCH   9  10
HETATM   10  N2  UNL     1      21.001   0.466  53.401  1.00  0.00    -0.282 N 
HETATM   11  C7  UNL     1      21.082   0.121  54.717  1.00  0.00     0.128 A 
HETATM   12  C8  UNL     1      21.827  -1.043  54.716  1.00  0.00     0.154 A 
HETATM   13  N3  UNL     1      22.152  -1.337  53.437  1.00  0.00    -0.171 NA
HETATM   14  N4  UNL     1      21.641  -0.406  52.645  1.00  0.00     0.004 NA
ENDBRANCH   9  10
ENDBRANCH   8   9
ENDBRANCH   6   8
ENDBRANCH   3   4
BRANCH   2  15
HETATM   15  N5  UNL     1      27.156   2.862  52.009  1.00  0.00    -0.357 N 
HETATM   16  H12 UNL     1      27.513   3.823  52.135  1.00  0.00     0.166 HD
BRANCH  15  17
HETATM   17  C9  UNL     1      27.761   1.822  52.771  1.00  0.00     0.083 C 
HETATM   18  C10 UNL     1      28.642   2.155  53.686  1.00  0.00     0.018 C 
HETATM   19  C11 UNL     1      29.118   1.265  54.484  1.00  0.00    -0.011 C 
HETATM   20  C12 UNL     1      28.444   0.172  54.766  1.00  0.00     0.016 C 
HETATM   21  C13 UNL     1      27.787  -0.400  53.580  1.00  0.00     0.045 C 
HETATM   22  C14 UNL     1      27.434   0.395  52.568  1.00  0.00     0.143 C 
HETATM   23  F1  UNL     1      26.835   0.031  51.434  1.00  0.00    -0.204 F 
ENDBRANCH  15  17
ENDBRANCH   2  15
TORSDOF 6
ENDMDL
MODEL 9
REMARK VINA RESULT:      -6.9      4.221      7.086
REMARK  6 active torsions:
REMARK  status: ('A' for Active; 'I' for Inactive)
REMARK    1  A    between atoms: C2_2  and  N5_14 
REMARK    2  A    between atoms: C3_3  and  C4_4 
REMARK       I    between atoms: C4_4  and  N1_6 
REMARK    3  A    between atoms: N1_6  and  C5_7 
REMARK    4  A    between atoms: C5_7  and  C6_8 
REMARK    5  A    between atoms: C6_8  and  N2_9 
REMARK    6  A    between atoms: N5_14  and  C9_15 
ROOT
HETATM    1  C1  UNL     1      24.352   1.537  52.548  1.00  0.00     0.068 C 
HETATM    2  C2  UNL     1      25.824   1.632  52.526  1.00  0.00     0.011 C 
HETATM    3  C3  UNL     1      26.508   2.368  51.678  1.00  0.00     0.098 C 
ENDROOT
BRANCH   3   4
HETATM    4  C4  UNL     1      26.398   3.281  50.565  1.00  0.00     0.243 C 
HETATM    5  O1  UNL     1      26.769   3.383  49.342  1.00  0.00    -0.269 OA
HETATM    6  N1  UNL     1      25.664   4.490  50.774  1.00  0.00    -0.356 N 
HETATM    7  H5  UNL     1      25.181   4.808  51.659  1.00  0.00     0.162 HD
BRANCH   6   8
HETATM    8  C5  UNL     1      25.605   5.350  49.599  1.00  0.00     0.144 C 
BRANCH   8   9
HETATM    9  C6  UNL     1      25.341   6.784  50.031  1.00  0.00     0.165 C 
BRANCH   9  10
HETATM   10  N2  UNL     1      26.540   7.535  49.635  1.00  0.00    -0.282 N 
HETATM   11  C7  UNL     1      26.912   8.776  50.058  1.00  0.00     0.128 A 
HETATM   12  C8  UNL     1      28.100   9.017  49.395  1.00  0.00     0.154 A 
HETATM   13  N3  UNL     1      28.382   7.941  48.626  1.00  0.00    -0.171 NA
HETATM   14  N4  UNL     1      27.420   7.044  48.783  1.00  0.00     0.004 NA
ENDBRANCH   9  10
ENDBRANCH   8   9
ENDBRANCH   6   8
ENDBRANCH   3   4
BRANCH   2  15
HETATM   15  N5  UNL     1      26.562   0.883  53.481  1.00  0.00    -0.357 N 
HETATM   16  H12 UNL     1      26.158   0.947  54.429  1.00  0.00     0.166 HD
BRANCH  15  17
HETATM   17  C9  UNL     1      27.733   0.091  53.310  1.00  0.00     0.083 C 
HETATM   18  C10 UNL     1      28.898   0.643  53.565  1.00  0.00     0.018 C 
HETATM   19  C11 UNL     1      29.971  -0.068  53.549  1.00  0.00    -0.011 C 
HETATM   20  C12 UNL     1      29.934  -1.363  53.772  1.00  0.00     0.016 C 
HETATM   21  C13 UNL     1      28.795  -2.012  53.103  1.00  0.00     0.045 C 
HETATM   22  C14 UNL     1      27.684  -1.315  52.858  1.00  0.00     0.143 C 
HETATM   23  F1  UNL     1      26.575  -1.757  52.266  1.00  0.00    -0.204 F 
ENDBRANCH  15  17
ENDBRANCH   2  15
TORSDOF 6
ENDMDL
