MODEL 1
REMARK VINA RESULT:      -7.1      0.000      0.000
REMARK  5 active torsions:
REMARK  status: ('A' for Active; 'I' for Inactive)
REMARK    1  A    between atoms: C2_2  and  C3_3 
REMARK    2  A    between atoms: C3_3  and  C4_4 
REMARK    3  A    between atoms: C5_5  and  C6_6 
REMARK    4  A    between atoms: C5_5  and  C7_8 
REMARK    5  A    between atoms: C7_8  and  N1_9 
ROOT
HETATM    1  N1  UNL     1      24.390   1.769  52.629  1.00  0.00     0.113 N 
HETATM    2  C8  UNL     1      24.542   3.001  53.333  1.00  0.00     0.417 C 
HETATM    3  N2  UNL     1      24.123   4.126  52.463  1.00  0.00    -0.272 NA
HETATM    4  C9  UNL     1      24.159   4.214  51.241  1.00  0.00     0.232 C 
HETATM    5  N3  UNL     1      24.286   4.112  49.755  1.00  0.00    -0.399 NA
HETATM    6  C10 UNL     1      23.526   3.248  49.103  1.00  0.00     0.409 C 
HETATM    7  N4  UNL     1      22.833   2.718  50.235  1.00  0.00    -0.388 N 
HETATM    8  C11 UNL     1      22.205   2.209  51.443  1.00  0.00     0.047 C 
HETATM    9  C12 UNL     1      21.538   3.400  52.175  1.00  0.00     0.116 C 
HETATM   10  C13 UNL     1      20.175   3.253  52.291  1.00  0.00    -0.018 C 
HETATM   11  C14 UNL     1      19.013   2.349  51.957  1.00  0.00     0.003 C 
HETATM   12  C15 UNL     1      19.640   1.351  51.301  1.00  0.00    -0.058 C 
HETATM   13  C16 UNL     1      18.633   0.342  50.892  1.00  0.00     0.048 C 
HETATM   14  C17 UNL     1      21.092   1.270  50.950  1.00  0.00    -0.051 C 
HETATM   15  C18 UNL     1      21.214   0.233  50.095  1.00  0.00     0.041 C 
HETATM   16  C19 UNL     1      23.077   1.376  52.321  1.00  0.00     0.303 C 
HETATM   17  H13 UNL     1      22.300   2.635  49.321  1.00  0.00     0.156 HD
ENDROOT
BRANCH   1  18
HETATM   18  C7  UNL     1      24.957   0.635  53.395  1.00  0.00     0.311 C 
BRANCH  18  19
HETATM   19  C5  UNL     1      26.440   0.630  53.379  1.00  0.00    -0.023 C 
HETATM   20  C4  UNL     1      26.859   0.573  54.615  1.00  0.00     0.015 C 
BRANCH  20  21
HETATM   21  C3  UNL     1      28.317   0.514  54.788  1.00  0.00     0.051 C 
BRANCH  21  22
HETATM   22  C2  UNL     1      28.868  -0.516  54.185  1.00  0.00    -0.155 C 
HETATM   23  C1  UNL     1      29.658  -1.308  53.457  1.00  0.00     0.096 C 
ENDBRANCH  21  22
ENDBRANCH  20  21
BRANCH  19  24
HETATM   24  C6  UNL     1      26.677   0.681  51.921  1.00  0.00     0.258 C 
HETATM   25  F1  UNL     1      26.793  -0.520  51.301  1.00  0.00    -0.251 F 
ENDBRANCH  19  24
ENDBRANCH  18  19
ENDBRANCH   1  18
TORSDOF 5
ENDMDL
MODEL 2
REMARK VINA RESULT:      -7.0      2.793      5.610
REMARK  5 active torsions:
REMARK  status: ('A' for Active; 'I' for Inactive)
REMARK    1  A    between atoms: C2_2  and  C3_3 
REMARK    2  A    between atoms: C3_3  and  C4_4 
REMARK    3  A    between atoms: C5_5  and  C6_6 
REMARK    4  A    between atoms: C5_5  and  C7_8 
REMARK    5  A    between atoms: C7_8  and  N1_9 
ROOT
HETATM    1  N1  UNL     1      21.298   1.709  50.481  1.00  0.00     0.113 N 
HETATM    2  C8  UNL     1      20.982   2.134  49.156  1.00  0.00     0.417 C 
HETATM    3  N2  UNL     1      21.276   3.581  49.015  1.00  0.00    -0.272 NA
HETATM    4  C9  UNL     1      21.253   4.462  49.867  1.00  0.00     0.232 C 
HETATM    5  N3  UNL     1      21.167   5.372  51.050  1.00  0.00    -0.399 NA
HETATM    6  C10 UNL     1      22.039   5.231  52.034  1.00  0.00     0.409 C 
HETATM    7  N4  UNL     1      22.771   4.136  51.478  1.00  0.00    -0.388 N 
HETATM    8  C11 UNL     1      23.434   3.001  50.859  1.00  0.00     0.047 C 
HETATM    9  C12 UNL     1      23.935   3.442  49.461  1.00  0.00     0.116 C 
HETATM   10  C13 UNL     1      25.303   3.364  49.341  1.00  0.00    -0.018 C 
HETATM   11  C14 UNL     1      26.574   3.012  50.075  1.00  0.00     0.003 C 
HETATM   12  C15 UNL     1      26.088   2.665  51.285  1.00  0.00    -0.058 C 
HETATM   13  C16 UNL     1      27.219   2.274  52.161  1.00  0.00     0.048 C 
HETATM   14  C17 UNL     1      24.664   2.726  51.740  1.00  0.00    -0.051 C 
HETATM   15  C18 UNL     1      24.687   2.524  53.074  1.00  0.00     0.041 C 
HETATM   16  C19 UNL     1      22.656   1.729  50.844  1.00  0.00     0.303 C 
HETATM   17  H13 UNL     1      23.327   4.730  52.160  1.00  0.00     0.156 HD
ENDROOT
BRANCH   1  18
HETATM   18  C7  UNL     1      20.861   0.314  50.719  1.00  0.00     0.311 C 
BRANCH  18  19
HETATM   19  C5  UNL     1      20.432   0.090  52.121  1.00  0.00    -0.023 C 
HETATM   20  C4  UNL     1      21.462  -0.347  52.795  1.00  0.00     0.015 C 
BRANCH  20  21
HETATM   21  C3  UNL     1      21.229  -0.582  54.227  1.00  0.00     0.051 C 
BRANCH  21  22
HETATM   22  C2  UNL     1      22.253  -1.141  54.833  1.00  0.00    -0.155 C 
HETATM   23  C1  UNL     1      23.280  -1.404  55.644  1.00  0.00     0.096 C 
ENDBRANCH  21  22
ENDBRANCH  20  21
BRANCH  19  24
HETATM   24  C6  UNL     1      19.017   0.504  52.021  1.00  0.00     0.258 C 
HETATM   25  F1  UNL     1      18.179  -0.397  51.448  1.00  0.00    -0.251 F 
ENDBRANCH  19  24
ENDBRANCH  18  19
ENDBRANCH   1  18
TORSDOF 5
ENDMDL
MODEL 3
REMARK VINA RESULT:      -6.9      3.325      5.193
REMARK  5 active torsions:
REMARK  status: ('A' for Active; 'I' for Inactive)
REMARK    1  A    between atoms: C2_2  and  C3_3 
REMARK    2  A    between atoms: C3_3  and  C4_4 
REMARK    3  A    between atoms: C5_5  and  C6_6 
REMARK    4  A    between atoms: C5_5  and  C7_8 
REMARK    5  A    between atoms: C7_8  and  N1_9 
ROOT
HETATM    1  N1  UNL     1      22.466   4.377  51.413  1.00  0.00     0.113 N 
HETATM    2  C8  UNL     1      21.143   4.911  51.391  1.00  0.00     0.417 C 
HETATM    3  N2  UNL     1      20.228   3.947  50.735  1.00  0.00    -0.272 NA
HETATM    4  C9  UNL     1      20.471   3.117  49.866  1.00  0.00     0.232 C 
HETATM    5  N3  UNL     1      20.981   2.180  48.818  1.00  0.00    -0.399 NA
HETATM    6  C10 UNL     1      21.830   1.228  49.167  1.00  0.00     0.409 C 
HETATM    7  N4  UNL     1      21.907   1.547  50.558  1.00  0.00    -0.388 N 
HETATM    8  C11 UNL     1      21.956   1.963  51.949  1.00  0.00     0.047 C 
HETATM    9  C12 UNL     1      20.513   1.932  52.511  1.00  0.00     0.116 C 
HETATM   10  C13 UNL     1      20.369   1.044  53.551  1.00  0.00    -0.018 C 
HETATM   11  C14 UNL     1      21.097   0.026  54.396  1.00  0.00     0.003 C 
HETATM   12  C15 UNL     1      22.331   0.072  53.852  1.00  0.00    -0.058 C 
HETATM   13  C16 UNL     1      23.208  -0.881  54.574  1.00  0.00     0.048 C 
HETATM   14  C17 UNL     1      22.769   0.872  52.665  1.00  0.00    -0.051 C 
HETATM   15  C18 UNL     1      23.998   0.419  52.340  1.00  0.00     0.041 C 
HETATM   16  C19 UNL     1      22.677   3.242  52.214  1.00  0.00     0.303 C 
HETATM   17  H13 UNL     1      22.126   0.533  50.331  1.00  0.00     0.156 HD
ENDROOT
BRANCH   1  18
HETATM   18  C7  UNL     1      23.444   5.376  51.903  1.00  0.00     0.311 C 
BRANCH  18  19
HETATM   19  C5  UNL     1      24.173   6.041  50.796  1.00  0.00    -0.023 C 
HETATM   20  C4  UNL     1      24.741   5.114  50.070  1.00  0.00     0.015 C 
BRANCH  20  21
HETATM   21  C3  UNL     1      25.476   5.594  48.892  1.00  0.00     0.051 C 
BRANCH  21  22
HETATM   22  C2  UNL     1      26.719   5.170  48.850  1.00  0.00    -0.155 C 
HETATM   23  C1  UNL     1      28.017   5.015  48.576  1.00  0.00     0.096 C 
ENDBRANCH  21  22
ENDBRANCH  20  21
BRANCH  19  24
HETATM   24  C6  UNL     1      23.855   7.453  51.096  1.00  0.00     0.258 C 
HETATM   25  F1  UNL     1      23.823   8.289  50.027  1.00  0.00    -0.251 F 
ENDBRANCH  19  24
ENDBRANCH  18  19
ENDBRANCH   1  18
TORSDOF 5
ENDMDL
MODEL 4
REMARK VINA RESULT:      -6.8      2.568      6.234
REMARK  5 active torsions:
REMARK  status: ('A' for Active; 'I' for Inactive)
REMARK    1  A    between atoms: C2_2  and  C3_3 
REMARK    2  A    between atoms: C3_3  and  C4_4 
REMARK    3  A    between atoms: C5_5  and  C6_6 
REMARK    4  A    between atoms: C5_5  and  C7_8 
REMARK    5  A    between atoms: C7_8  and  N1_9 
ROOT
HETATM    1  N1  UNL     1      22.362   2.632  49.551  1.00  0.00     0.113 N 
HETATM    2  C8  UNL     1      23.123   3.398  48.620  1.00  0.00     0.417 C 
HETATM    3  N2  UNL     1      23.938   4.400  49.349  1.00  0.00    -0.272 NA
HETATM    4  C9  UNL     1      23.711   4.953  50.419  1.00  0.00     0.232 C 
HETATM    5  N3  UNL     1      23.243   5.504  51.728  1.00  0.00    -0.399 NA
HETATM    6  C10 UNL     1      23.183   4.701  52.777  1.00  0.00     0.409 C 
HETATM    7  N4  UNL     1      23.640   3.512  52.129  1.00  0.00    -0.388 N 
HETATM    8  C11 UNL     1      24.075   2.343  51.384  1.00  0.00     0.047 C 
HETATM    9  C12 UNL     1      25.453   2.661  50.753  1.00  0.00     0.116 C 
HETATM   10  C13 UNL     1      26.448   1.825  51.207  1.00  0.00    -0.018 C 
HETATM   11  C14 UNL     1      26.743   0.671  52.134  1.00  0.00     0.003 C 
HETATM   12  C15 UNL     1      25.526   0.455  52.675  1.00  0.00    -0.058 C 
HETATM   13  C16 UNL     1      25.622  -0.676  53.630  1.00  0.00     0.048 C 
HETATM   14  C17 UNL     1      24.277   1.246  52.443  1.00  0.00    -0.051 C 
HETATM   15  C18 UNL     1      23.388   0.824  53.366  1.00  0.00     0.041 C 
HETATM   16  C19 UNL     1      23.084   1.790  50.416  1.00  0.00     0.303 C 
HETATM   17  H13 UNL     1      23.815   3.532  53.177  1.00  0.00     0.156 HD
ENDROOT
BRANCH   1  18
HETATM   18  C7  UNL     1      21.405   1.736  48.860  1.00  0.00     0.311 C 
BRANCH  18  19
HETATM   19  C5  UNL     1      20.094   1.673  49.551  1.00  0.00    -0.023 C 
HETATM   20  C4  UNL     1      20.081   0.600  50.297  1.00  0.00     0.015 C 
BRANCH  20  21
HETATM   21  C3  UNL     1      18.864   0.399  51.096  1.00  0.00     0.051 C 
BRANCH  21  22
HETATM   22  C2  UNL     1      19.099  -0.141  52.270  1.00  0.00    -0.155 C 
HETATM   23  C1  UNL     1      19.650  -0.509  53.429  1.00  0.00     0.096 C 
ENDBRANCH  21  22
ENDBRANCH  20  21
BRANCH  19  24
HETATM   24  C6  UNL     1      19.472   2.905  49.024  1.00  0.00     0.258 C 
HETATM   25  F1  UNL     1      19.520   3.059  47.677  1.00  0.00    -0.251 F 
ENDBRANCH  19  24
ENDBRANCH  18  19
ENDBRANCH   1  18
TORSDOF 5
ENDMDL
MODEL 5
REMARK VINA RESULT:      -6.8      3.159      6.013
REMARK  5 active torsions:
REMARK  status: ('A' for Active; 'I' for Inactive)
REMARK    1  A    between atoms: C2_2  and  C3_3 
REMARK    2  A    between atoms: C3_3  and  C4_4 
REMARK    3  A    between atoms: C5_5  and  C6_6 
REMARK    4  A    between atoms: C5_5  and  C7_8 
REMARK    5  A    between atoms: C7_8  and  N1_9 
ROOT
HETATM    1  N1  UNL     1      23.205   5.688  50.779  1.00  0.00     0.113 N 
HETATM    2  C8  UNL     1      21.940   5.656  51.437  1.00  0.00     0.417 C 
HETATM    3  N2  UNL     1      21.226   4.407  51.080  1.00  0.00    -0.272 NA
HETATM    4  C9  UNL     1      21.299   3.740  50.053  1.00  0.00     0.232 C 
HETATM    5  N3  UNL     1      21.541   3.079  48.735  1.00  0.00    -0.399 NA
HETATM    6  C10 UNL     1      22.724   2.541  48.493  1.00  0.00     0.409 C 
HETATM    7  N4  UNL     1      23.336   2.867  49.744  1.00  0.00    -0.388 N 
HETATM    8  C11 UNL     1      23.890   3.271  51.024  1.00  0.00     0.047 C 
HETATM    9  C12 UNL     1      23.000   2.673  52.143  1.00  0.00     0.116 C 
HETATM   10  C13 UNL     1      23.689   1.801  52.956  1.00  0.00    -0.018 C 
HETATM   11  C14 UNL     1      25.033   1.156  53.192  1.00  0.00     0.003 C 
HETATM   12  C15 UNL     1      25.755   1.685  52.183  1.00  0.00    -0.058 C 
HETATM   13  C16 UNL     1      27.139   1.157  52.259  1.00  0.00     0.048 C 
HETATM   14  C17 UNL     1      25.267   2.591  51.097  1.00  0.00    -0.051 C 
HETATM   15  C18 UNL     1      26.264   2.661  50.189  1.00  0.00     0.041 C 
HETATM   16  C19 UNL     1      24.152   4.731  51.182  1.00  0.00     0.303 C 
HETATM   17  H13 UNL     1      23.758   2.022  49.259  1.00  0.00     0.156 HD
ENDROOT
BRANCH   1  18
HETATM   18  C7  UNL     1      23.880   6.993  50.970  1.00  0.00     0.311 C 
BRANCH  18  19
HETATM   19  C5  UNL     1      24.734   7.360  49.814  1.00  0.00    -0.023 C 
HETATM   20  C4  UNL     1      25.946   7.569  50.255  1.00  0.00     0.015 C 
BRANCH  20  21
HETATM   21  C3  UNL     1      26.945   7.902  49.229  1.00  0.00     0.051 C 
BRANCH  21  22
HETATM   22  C2  UNL     1      27.461   6.843  48.648  1.00  0.00    -0.155 C 
HETATM   23  C1  UNL     1      27.889   5.609  48.369  1.00  0.00     0.096 C 
ENDBRANCH  21  22
ENDBRANCH  20  21
BRANCH  19  24
HETATM   24  C6  UNL     1      23.734   7.284  48.728  1.00  0.00     0.258 C 
HETATM   25  F1  UNL     1      24.045   6.454  47.700  1.00  0.00    -0.251 F 
ENDBRANCH  19  24
ENDBRANCH  18  19
ENDBRANCH   1  18
TORSDOF 5
ENDMDL
MODEL 6
REMARK VINA RESULT:      -6.6      2.510      6.418
REMARK  5 active torsions:
REMARK  status: ('A' for Active; 'I' for Inactive)
REMARK    1  A    between atoms: C2_2  and  C3_3 
REMARK    2  A    between atoms: C3_3  and  C4_4 
REMARK    3  A    between atoms: C5_5  and  C6_6 
REMARK    4  A    between atoms: C5_5  and  C7_8 
REMARK    5  A    between atoms: C7_8  and  N1_9 
ROOT
HETATM    1  N1  UNL     1      21.492   1.545  50.720  1.00  0.00     0.113 N 
HETATM    2  C8  UNL     1      21.153   2.035  49.424  1.00  0.00     0.417 C 
HETATM    3  N2  UNL     1      21.441   3.488  49.351  1.00  0.00    -0.272 NA
HETATM    4  C9  UNL     1      21.430   4.325  50.246  1.00  0.00     0.232 C 
HETATM    5  N3  UNL     1      21.362   5.175  51.474  1.00  0.00    -0.399 NA
HETATM    6  C10 UNL     1      22.250   4.987  52.436  1.00  0.00     0.409 C 
HETATM    7  N4  UNL     1      22.975   3.923  51.814  1.00  0.00    -0.388 N 
HETATM    8  C11 UNL     1      23.631   2.823  51.128  1.00  0.00     0.047 C 
HETATM    9  C12 UNL     1      24.108   3.335  49.746  1.00  0.00     0.116 C 
HETATM   10  C13 UNL     1      25.474   3.267  49.601  1.00  0.00    -0.018 C 
HETATM   11  C14 UNL     1      26.758   2.882  50.296  1.00  0.00     0.003 C 
HETATM   12  C15 UNL     1      26.292   2.474  51.494  1.00  0.00    -0.058 C 
HETATM   13  C16 UNL     1      27.438   2.043  52.331  1.00  0.00     0.048 C 
HETATM   14  C17 UNL     1      24.875   2.508  51.974  1.00  0.00    -0.051 C 
HETATM   15  C18 UNL     1      24.920   2.239  53.297  1.00  0.00     0.041 C 
HETATM   16  C19 UNL     1      22.855   1.550  51.062  1.00  0.00     0.303 C 
HETATM   17  H13 UNL     1      23.541   4.484  52.516  1.00  0.00     0.156 HD
ENDROOT
BRANCH   1  18
HETATM   18  C7  UNL     1      21.061   0.138  50.896  1.00  0.00     0.311 C 
BRANCH  18  19
HETATM   19  C5  UNL     1      20.128  -0.027  52.036  1.00  0.00    -0.023 C 
HETATM   20  C4  UNL     1      18.921  -0.172  51.554  1.00  0.00     0.015 C 
BRANCH  20  21
HETATM   21  C3  UNL     1      17.864  -0.394  52.550  1.00  0.00     0.051 C 
BRANCH  21  22
HETATM   22  C2  UNL     1      17.873  -1.610  53.051  1.00  0.00    -0.155 C 
HETATM   23  C1  UNL     1      17.679  -2.687  53.815  1.00  0.00     0.096 C 
ENDBRANCH  21  22
ENDBRANCH  20  21
BRANCH  19  24
HETATM   24  C6  UNL     1      21.085   0.050  53.160  1.00  0.00     0.258 C 
HETATM   25  F1  UNL     1      20.578   0.507  54.333  1.00  0.00    -0.251 F 
ENDBRANCH  19  24
ENDBRANCH  18  19
ENDBRANCH   1  18
TORSDOF 5
ENDMDL
MODEL 7
REMARK VINA RESULT:      -6.5      2.331      4.634
REMARK  5 active torsions:
REMARK  status: ('A' for Active; 'I' for Inactive)
REMARK    1  A    between atoms: C2_2  and  C3_3 
REMARK    2  A    between atoms: C3_3  and  C4_4 
REMARK    3  A    between atoms: C5_5  and  C6_6 
REMARK    4  A    between atoms: C5_5  and  C7_8 
REMARK    5  A    between atoms: C7_8  and  N1_9 
ROOT
HETATM    1  N1  UNL     1      25.101   2.728  51.102  1.00  0.00     0.113 N 
HETATM    2  C8  UNL     1      24.109   1.770  50.734  1.00  0.00     0.417 C 
HETATM    3  N2  UNL     1      22.760   2.360  50.910  1.00  0.00    -0.272 NA
HETATM    4  C9  UNL     1      22.388   3.221  51.699  1.00  0.00     0.232 C 
HETATM    5  N3  UNL     1      22.150   4.275  52.732  1.00  0.00    -0.399 NA
HETATM    6  C10 UNL     1      22.713   5.462  52.581  1.00  0.00     0.409 C 
HETATM    7  N4  UNL     1      23.391   5.191  51.352  1.00  0.00    -0.388 N 
HETATM    8  C11 UNL     1      24.076   4.819  50.126  1.00  0.00     0.047 C 
HETATM    9  C12 UNL     1      23.010   4.351  49.104  1.00  0.00     0.116 C 
HETATM   10  C13 UNL     1      22.980   5.137  47.975  1.00  0.00    -0.018 C 
HETATM   11  C14 UNL     1      23.598   6.344  47.312  1.00  0.00     0.003 C 
HETATM   12  C15 UNL     1      24.491   6.726  48.248  1.00  0.00    -0.058 C 
HETATM   13  C16 UNL     1      25.215   7.924  47.757  1.00  0.00     0.048 C 
HETATM   14  C17 UNL     1      24.697   6.124  49.602  1.00  0.00    -0.051 C 
HETATM   15  C18 UNL     1      25.507   6.972  50.271  1.00  0.00     0.041 C 
HETATM   16  C19 UNL     1      25.213   3.867  50.286  1.00  0.00     0.303 C 
HETATM   17  H13 UNL     1      23.174   6.218  51.512  1.00  0.00     0.156 HD
ENDROOT
BRANCH   1  18
HETATM   18  C7  UNL     1      26.456   2.128  51.106  1.00  0.00     0.311 C 
BRANCH  18  19
HETATM   19  C5  UNL     1      26.683   1.261  52.287  1.00  0.00    -0.023 C 
HETATM   20  C4  UNL     1      26.805   0.029  51.868  1.00  0.00     0.015 C 
BRANCH  20  21
HETATM   21  C3  UNL     1      27.083  -0.970  52.909  1.00  0.00     0.051 C 
BRANCH  21  22
HETATM   22  C2  UNL     1      28.322  -0.933  53.344  1.00  0.00    -0.155 C 
HETATM   23  C1  UNL     1      29.638  -1.100  53.492  1.00  0.00     0.096 C 
ENDBRANCH  21  22
ENDBRANCH  20  21
BRANCH  19  24
HETATM   24  C6  UNL     1      26.665   2.280  53.357  1.00  0.00     0.258 C 
HETATM   25  F1  UNL     1      27.877   2.641  53.848  1.00  0.00    -0.251 F 
ENDBRANCH  19  24
ENDBRANCH  18  19
ENDBRANCH   1  18
TORSDOF 5
ENDMDL
MODEL 8
REMARK VINA RESULT:      -6.4      1.969      3.386
REMARK  5 active torsions:
REMARK  status: ('A' for Active; 'I' for Inactive)
REMARK    1  A    between atoms: C2_2  and  C3_3 
REMARK    2  A    between atoms: C3_3  and  C4_4 
REMARK    3  A    between atoms: C5_5  and  C6_6 
REMARK    4  A    between atoms: C5_5  and  C7_8 
REMARK    5  A    between atoms: C7_8  and  N1_9 
ROOT
HETATM    1  N1  UNL     1      24.269   1.495  53.395  1.00  0.00     0.113 N 
HETATM    2  C8  UNL     1      24.784   0.212  53.041  1.00  0.00     0.417 C 
HETATM    3  N2  UNL     1      23.711  -0.804  53.162  1.00  0.00    -0.272 NA
HETATM    4  C9  UNL     1      22.737  -0.818  53.908  1.00  0.00     0.232 C 
HETATM    5  N3  UNL     1      21.628  -0.636  54.893  1.00  0.00    -0.399 NA
HETATM    6  C10 UNL     1      20.760   0.345  54.708  1.00  0.00     0.409 C 
HETATM    7  N4  UNL     1      21.328   0.873  53.507  1.00  0.00    -0.388 N 
HETATM    8  C11 UNL     1      21.991   1.368  52.314  1.00  0.00     0.047 C 
HETATM    9  C12 UNL     1      22.056   0.211  51.285  1.00  0.00     0.116 C 
HETATM   10  C13 UNL     1      21.371   0.496  50.126  1.00  0.00    -0.018 C 
HETATM   11  C14 UNL     1      20.529   1.538  49.431  1.00  0.00     0.003 C 
HETATM   12  C15 UNL     1      20.481   2.503  50.373  1.00  0.00    -0.058 C 
HETATM   13  C16 UNL     1      19.680   3.638  49.853  1.00  0.00     0.048 C 
HETATM   14  C17 UNL     1      21.054   2.451  51.754  1.00  0.00    -0.051 C 
HETATM   15  C18 UNL     1      20.555   3.521  52.408  1.00  0.00     0.041 C 
HETATM   16  C19 UNL     1      23.301   2.046  52.538  1.00  0.00     0.303 C 
HETATM   17  H13 UNL     1      20.290   1.070  53.622  1.00  0.00     0.156 HD
ENDROOT
BRANCH   1  18
HETATM   18  C7  UNL     1      25.346   2.511  53.455  1.00  0.00     0.311 C 
BRANCH  18  19
HETATM   19  C5  UNL     1      26.667   1.954  53.076  1.00  0.00    -0.023 C 
HETATM   20  C4  UNL     1      27.176   1.368  54.128  1.00  0.00     0.015 C 
BRANCH  20  21
HETATM   21  C3  UNL     1      28.477   0.716  53.922  1.00  0.00     0.051 C 
BRANCH  21  22
HETATM   22  C2  UNL     1      28.373  -0.506  53.449  1.00  0.00    -0.155 C 
HETATM   23  C1  UNL     1      28.600  -1.776  53.107  1.00  0.00     0.096 C 
ENDBRANCH  21  22
ENDBRANCH  20  21
BRANCH  19  24
HETATM   24  C6  UNL     1      26.714   2.358  51.655  1.00  0.00     0.258 C 
HETATM   25  F1  UNL     1      26.867   1.348  50.762  1.00  0.00    -0.251 F 
ENDBRANCH  19  24
ENDBRANCH  18  19
ENDBRANCH   1  18
TORSDOF 5
ENDMDL
MODEL 9
REMARK VINA RESULT:      -6.4      2.962      6.521
REMARK  5 active torsions:
REMARK  status: ('A' for Active; 'I' for Inactive)
REMARK    1  A    between atoms: C2_2  and  C3_3 
REMARK    2  A    between atoms: C3_3  and  C4_4 
REMARK    3  A    between atoms: C5_5  and  C6_6 
REMARK    4  A    between atoms: C5_5  and  C7_8 
REMARK    5  A    between atoms: C7_8  and  N1_9 
ROOT
HETATM    1  N1  UNL     1      22.738   2.695  49.346  1.00  0.00     0.113 N 
HETATM    2  C8  UNL     1      24.101   2.979  49.039  1.00  0.00     0.417 C 
HETATM    3  N2  UNL     1      24.727   3.699  50.174  1.00  0.00    -0.272 NA
HETATM    4  C9  UNL     1      24.209   4.447  50.996  1.00  0.00     0.232 C 
HETATM    5  N3  UNL     1      23.384   5.316  51.890  1.00  0.00    -0.399 NA
HETATM    6  C10 UNL     1      22.474   4.756  52.669  1.00  0.00     0.409 C 
HETATM    7  N4  UNL     1      22.695   3.402  52.270  1.00  0.00    -0.388 N 
HETATM    8  C11 UNL     1      22.958   2.060  51.780  1.00  0.00     0.047 C 
HETATM    9  C12 UNL     1      24.457   1.746  52.019  1.00  0.00     0.116 C 
HETATM   10  C13 UNL     1      24.644   0.676  52.864  1.00  0.00    -0.018 C 
HETATM   11  C14 UNL     1      23.930  -0.356  53.702  1.00  0.00     0.003 C 
HETATM   12  C15 UNL     1      22.641  -0.023  53.482  1.00  0.00    -0.058 C 
HETATM   13  C16 UNL     1      21.771  -0.956  54.239  1.00  0.00     0.048 C 
HETATM   14  C17 UNL     1      22.128   1.133  52.683  1.00  0.00    -0.051 C 
HETATM   15  C18 UNL     1      20.806   1.212  52.944  1.00  0.00     0.041 C 
HETATM   16  C19 UNL     1      22.501   1.781  50.387  1.00  0.00     0.303 C 
HETATM   17  H13 UNL     1      22.286   3.508  53.245  1.00  0.00     0.156 HD
ENDROOT
BRANCH   1  18
HETATM   18  C7  UNL     1      22.027   2.129  48.176  1.00  0.00     0.311 C 
BRANCH  18  19
HETATM   19  C5  UNL     1      21.417   3.181  47.326  1.00  0.00    -0.023 C 
HETATM   20  C4  UNL     1      22.115   3.267  46.225  1.00  0.00     0.015 C 
BRANCH  20  21
HETATM   21  C3  UNL     1      21.622   4.238  45.237  1.00  0.00     0.051 C 
BRANCH  21  22
HETATM   22  C2  UNL     1      21.954   5.477  45.520  1.00  0.00    -0.155 C 
HETATM   23  C1  UNL     1      22.592   6.576  45.931  1.00  0.00     0.096 C 
ENDBRANCH  21  22
ENDBRANCH  20  21
BRANCH  19  24
HETATM   24  C6  UNL     1      20.292   3.587  48.195  1.00  0.00     0.258 C 
HETATM   25  F1  UNL     1      20.342   4.858  48.666  1.00  0.00    -0.251 F 
ENDBRANCH  19  24
ENDBRANCH  18  19
ENDBRANCH   1  18
TORSDOF 5
ENDMDL
