MODEL 1
REMARK VINA RESULT:      -6.6      0.000      0.000
REMARK  10 active torsions:
REMARK  status: ('A' for Active; 'I' for Inactive)
REMARK    1  A    between atoms: O1_1  and  C1_2 
REMARK    2  A    between atoms: C6_7  and  C7_8 
REMARK    3  A    between atoms: C7_8  and  N1_9 
REMARK    4  A    between atoms: N1_9  and  O2_10 
REMARK    5  A    between atoms: O2_10  and  C8_11 
REMARK    6  A    between atoms: C11_14  and  N2_15 
REMARK    7  A    between atoms: N2_15  and  C12_16 
REMARK    8  A    between atoms: N2_15  and  C14_19 
REMARK    9  A    between atoms: C12_16  and  C13_17 
REMARK   10  A    between atoms: C14_19  and  C15_20 
ROOT
HETATM    1  C8  UNL     1      26.265   3.134  50.401  1.00  0.00     0.075 A 
HETATM    2  C9  UNL     1      26.454   4.216  49.635  1.00  0.00     0.036 A 
HETATM    3  C10 UNL     1      25.157   4.610  49.102  1.00  0.00     0.027 A 
HETATM    4  C11 UNL     1      24.208   3.787  49.537  1.00  0.00     0.013 A 
HETATM    5  C16 UNL     1      24.815   2.753  50.413  1.00  0.00     0.123 A 
ENDROOT
BRANCH   1   6
HETATM    6  O2  UNL     1      27.176   2.378  51.131  1.00  0.00    -0.268 OA
BRANCH   6   7
HETATM    7  N1  UNL     1      27.594   2.802  52.355  1.00  0.00    -0.196 NA
HETATM    8  H8  UNL     1      28.629   2.897  52.432  1.00  0.00     0.154 HD
BRANCH   7   9
HETATM    9  C7  UNL     1      27.091   1.905  53.408  1.00  0.00     0.159 C 
BRANCH   9  10
HETATM   10  C6  UNL     1      27.773   0.601  53.342  1.00  0.00    -0.010 A 
HETATM   11  C1  UNL     1      29.101   0.618  53.693  1.00  0.00     0.073 A 
HETATM   12  C2  UNL     1      29.868  -0.530  53.679  1.00  0.00     0.037 A 
HETATM   13  C3  UNL     1      29.220  -1.696  53.291  1.00  0.00     0.003 A 
HETATM   14  C4  UNL     1      27.871  -1.724  52.932  1.00  0.00     0.001 A 
HETATM   15  C5  UNL     1      27.138  -0.554  52.959  1.00  0.00     0.011 A 
BRANCH  11  16
HETATM   16  O1  UNL     1      29.773   1.789  54.089  1.00  0.00    -0.360 OA
HETATM   17  H1  UNL     1      29.809   1.953  55.093  1.00  0.00     0.217 HD
ENDBRANCH  11  16
ENDBRANCH   9  10
ENDBRANCH   7   9
ENDBRANCH   6   7
ENDBRANCH   1   6
BRANCH   4  18
HETATM   18  N2  UNL     1      22.894   4.077  49.078  1.00  0.00    -0.382 N 
BRANCH  18  19
HETATM   19  C12 UNL     1      22.078   3.630  47.966  1.00  0.00     0.137 C 
BRANCH  19  20
HETATM   20  C13 UNL     1      22.399   2.173  47.701  1.00  0.00     0.134 C 
HETATM   21 CL1  UNL     1      21.468   1.175  48.827  1.00  0.00    -0.129 Cl
ENDBRANCH  19  20
ENDBRANCH  18  19
BRANCH  18  22
HETATM   22  C14 UNL     1      22.149   5.032  49.866  1.00  0.00     0.137 C 
BRANCH  22  23
HETATM   23  C15 UNL     1      21.551   4.388  51.101  1.00  0.00     0.134 C 
HETATM   24 CL2  UNL     1      22.489   4.800  52.558  1.00  0.00    -0.129 Cl
ENDBRANCH  22  23
ENDBRANCH  18  22
ENDBRANCH   4  18
TORSDOF 10
ENDMDL
MODEL 2
REMARK VINA RESULT:      -6.6      0.273      2.168
REMARK  10 active torsions:
REMARK  status: ('A' for Active; 'I' for Inactive)
REMARK    1  A    between atoms: O1_1  and  C1_2 
REMARK    2  A    between atoms: C6_7  and  C7_8 
REMARK    3  A    between atoms: C7_8  and  N1_9 
REMARK    4  A    between atoms: N1_9  and  O2_10 
REMARK    5  A    between atoms: O2_10  and  C8_11 
REMARK    6  A    between atoms: C11_14  and  N2_15 
REMARK    7  A    between atoms: N2_15  and  C12_16 
REMARK    8  A    between atoms: N2_15  and  C14_19 
REMARK    9  A    between atoms: C12_16  and  C13_17 
REMARK   10  A    between atoms: C14_19  and  C15_20 
ROOT
HETATM    1  C8  UNL     1      26.193   3.073  50.414  1.00  0.00     0.075 A 
HETATM    2  C9  UNL     1      26.293   4.126  49.593  1.00  0.00     0.036 A 
HETATM    3  C10 UNL     1      24.948   4.485  49.169  1.00  0.00     0.027 A 
HETATM    4  C11 UNL     1      24.055   3.668  49.721  1.00  0.00     0.013 A 
HETATM    5  C16 UNL     1      24.756   2.677  50.575  1.00  0.00     0.123 A 
ENDROOT
BRANCH   1   6
HETATM    6  O2  UNL     1      27.178   2.356  51.084  1.00  0.00    -0.268 OA
BRANCH   6   7
HETATM    7  N1  UNL     1      27.610   2.764  52.308  1.00  0.00    -0.196 NA
HETATM    8  H8  UNL     1      28.646   2.836  52.383  1.00  0.00     0.154 HD
BRANCH   7   9
HETATM    9  C7  UNL     1      27.091   1.872  53.359  1.00  0.00     0.159 C 
BRANCH   9  10
HETATM   10  C6  UNL     1      27.773   0.566  53.306  1.00  0.00    -0.010 A 
HETATM   11  C1  UNL     1      29.094   0.581  53.685  1.00  0.00     0.073 A 
HETATM   12  C2  UNL     1      29.859  -0.567  53.687  1.00  0.00     0.037 A 
HETATM   13  C3  UNL     1      29.217  -1.732  53.286  1.00  0.00     0.003 A 
HETATM   14  C4  UNL     1      27.876  -1.759  52.900  1.00  0.00     0.001 A 
HETATM   15  C5  UNL     1      27.144  -0.588  52.911  1.00  0.00     0.011 A 
BRANCH  11  16
HETATM   16  O1  UNL     1      29.759   1.752  54.094  1.00  0.00    -0.360 OA
HETATM   17  H1  UNL     1      30.572   1.607  54.689  1.00  0.00     0.217 HD
ENDBRANCH  11  16
ENDBRANCH   9  10
ENDBRANCH   7   9
ENDBRANCH   6   7
ENDBRANCH   1   6
BRANCH   4  18
HETATM   18  N2  UNL     1      22.700   3.926  49.376  1.00  0.00    -0.382 N 
BRANCH  18  19
HETATM   19  C12 UNL     1      21.555   4.476  50.073  1.00  0.00     0.137 C 
BRANCH  19  20
HETATM   20  C13 UNL     1      21.479   3.829  51.441  1.00  0.00     0.134 C 
HETATM   21 CL1  UNL     1      22.402   4.815  52.585  1.00  0.00    -0.129 Cl
ENDBRANCH  19  20
ENDBRANCH  18  19
BRANCH  18  22
HETATM   22  C14 UNL     1      22.318   3.580  48.025  1.00  0.00     0.137 C 
BRANCH  22  23
HETATM   23  C15 UNL     1      22.468   2.094  47.769  1.00  0.00     0.134 C 
HETATM   24 CL2  UNL     1      21.330   1.153  48.765  1.00  0.00    -0.129 Cl
ENDBRANCH  22  23
ENDBRANCH  18  22
ENDBRANCH   4  18
TORSDOF 10
ENDMDL
MODEL 3
REMARK VINA RESULT:      -6.6      2.554      3.330
REMARK  10 active torsions:
REMARK  status: ('A' for Active; 'I' for Inactive)
REMARK    1  A    between atoms: O1_1  and  C1_2 
REMARK    2  A    between atoms: C6_7  and  C7_8 
REMARK    3  A    between atoms: C7_8  and  N1_9 
REMARK    4  A    between atoms: N1_9  and  O2_10 
REMARK    5  A    between atoms: O2_10  and  C8_11 
REMARK    6  A    between atoms: C11_14  and  N2_15 
REMARK    7  A    between atoms: N2_15  and  C12_16 
REMARK    8  A    between atoms: N2_15  and  C14_19 
REMARK    9  A    between atoms: C12_16  and  C13_17 
REMARK   10  A    between atoms: C14_19  and  C15_20 
ROOT
HETATM    1  C8  UNL     1      24.761   2.530  52.372  1.00  0.00     0.075 A 
HETATM    2  C9  UNL     1      23.906   3.528  52.631  1.00  0.00     0.036 A 
HETATM    3  C10 UNL     1      22.574   3.078  52.253  1.00  0.00     0.027 A 
HETATM    4  C11 UNL     1      22.622   1.836  51.778  1.00  0.00     0.013 A 
HETATM    5  C16 UNL     1      24.026   1.354  51.802  1.00  0.00     0.123 A 
ENDROOT
BRANCH   1   6
HETATM    6  O2  UNL     1      26.137   2.454  52.552  1.00  0.00    -0.268 OA
BRANCH   6   7
HETATM    7  N1  UNL     1      26.662   2.398  53.806  1.00  0.00    -0.196 NA
HETATM    8  H8  UNL     1      27.689   2.571  53.836  1.00  0.00     0.154 HD
BRANCH   7   9
HETATM    9  C7  UNL     1      26.351   1.104  54.436  1.00  0.00     0.159 C 
BRANCH   9  10
HETATM   10  C6  UNL     1      27.275   0.062  53.953  1.00  0.00    -0.010 A 
HETATM   11  C1  UNL     1      28.589   0.234  54.314  1.00  0.00     0.073 A 
HETATM   12  C2  UNL     1      29.567  -0.664  53.934  1.00  0.00     0.037 A 
HETATM   13  C3  UNL     1      29.144  -1.743  53.169  1.00  0.00     0.003 A 
HETATM   14  C4  UNL     1      27.811  -1.927  52.796  1.00  0.00     0.001 A 
HETATM   15  C5  UNL     1      26.863  -1.006  53.197  1.00  0.00     0.011 A 
BRANCH  11  16
HETATM   16  O1  UNL     1      29.034   1.321  55.088  1.00  0.00    -0.360 OA
HETATM   17  H1  UNL     1      28.884   2.240  54.677  1.00  0.00     0.217 HD
ENDBRANCH  11  16
ENDBRANCH   9  10
ENDBRANCH   7   9
ENDBRANCH   6   7
ENDBRANCH   1   6
BRANCH   4  18
HETATM   18  N2  UNL     1      21.372   1.290  51.376  1.00  0.00    -0.382 N 
BRANCH  18  19
HETATM   19  C12 UNL     1      20.454   0.320  51.937  1.00  0.00     0.137 C 
BRANCH  19  20
HETATM   20  C13 UNL     1      20.496   0.447  53.446  1.00  0.00     0.134 C 
HETATM   21 CL1  UNL     1      20.840  -1.145  54.138  1.00  0.00    -0.129 Cl
ENDBRANCH  19  20
ENDBRANCH  18  19
BRANCH  18  22
HETATM   22  C14 UNL     1      20.844   1.782  50.124  1.00  0.00     0.137 C 
BRANCH  22  23
HETATM   23  C15 UNL     1      21.453   1.056  48.940  1.00  0.00     0.134 C 
HETATM   24 CL2  UNL     1      22.546   2.125  48.025  1.00  0.00    -0.129 Cl
ENDBRANCH  22  23
ENDBRANCH  18  22
ENDBRANCH   4  18
TORSDOF 10
ENDMDL
MODEL 4
REMARK VINA RESULT:      -6.5      1.133      1.188
REMARK  10 active torsions:
REMARK  status: ('A' for Active; 'I' for Inactive)
REMARK    1  A    between atoms: O1_1  and  C1_2 
REMARK    2  A    between atoms: C6_7  and  C7_8 
REMARK    3  A    between atoms: C7_8  and  N1_9 
REMARK    4  A    between atoms: N1_9  and  O2_10 
REMARK    5  A    between atoms: O2_10  and  C8_11 
REMARK    6  A    between atoms: C11_14  and  N2_15 
REMARK    7  A    between atoms: N2_15  and  C12_16 
REMARK    8  A    between atoms: N2_15  and  C14_19 
REMARK    9  A    between atoms: C12_16  and  C13_17 
REMARK   10  A    between atoms: C14_19  and  C15_20 
ROOT
HETATM    1  C8  UNL     1      26.224   3.378  50.130  1.00  0.00     0.075 A 
HETATM    2  C9  UNL     1      26.598   4.454  49.425  1.00  0.00     0.036 A 
HETATM    3  C10 UNL     1      25.391   5.083  48.907  1.00  0.00     0.027 A 
HETATM    4  C11 UNL     1      24.314   4.403  49.290  1.00  0.00     0.013 A 
HETATM    5  C16 UNL     1      24.731   3.239  50.112  1.00  0.00     0.123 A 
ENDROOT
BRANCH   1   6
HETATM    6  O2  UNL     1      26.988   2.446  50.822  1.00  0.00    -0.268 OA
BRANCH   6   7
HETATM    7  N1  UNL     1      27.592   2.788  51.994  1.00  0.00    -0.196 NA
HETATM    8  H8  UNL     1      28.631   2.721  51.962  1.00  0.00     0.154 HD
BRANCH   7   9
HETATM    9  C7  UNL     1      27.068   1.969  53.099  1.00  0.00     0.159 C 
BRANCH   9  10
HETATM   10  C6  UNL     1      27.780   0.681  53.167  1.00  0.00    -0.010 A 
HETATM   11  C1  UNL     1      29.071   0.751  53.631  1.00  0.00     0.073 A 
HETATM   12  C2  UNL     1      29.859  -0.376  53.749  1.00  0.00     0.037 A 
HETATM   13  C3  UNL     1      29.272  -1.578  53.372  1.00  0.00     0.003 A 
HETATM   14  C4  UNL     1      27.962  -1.660  52.899  1.00  0.00     0.001 A 
HETATM   15  C5  UNL     1      27.205  -0.509  52.796  1.00  0.00     0.011 A 
BRANCH  11  16
HETATM   16  O1  UNL     1      29.681   1.959  54.017  1.00  0.00    -0.360 OA
HETATM   17  H1  UNL     1      29.076   2.617  54.503  1.00  0.00     0.217 HD
ENDBRANCH  11  16
ENDBRANCH   9  10
ENDBRANCH   7   9
ENDBRANCH   6   7
ENDBRANCH   1   6
BRANCH   4  18
HETATM   18  N2  UNL     1      23.071   4.928  48.840  1.00  0.00    -0.382 N 
BRANCH  18  19
HETATM   19  C12 UNL     1      21.809   4.350  48.424  1.00  0.00     0.137 C 
BRANCH  19  20
HETATM   20  C13 UNL     1      22.089   3.332  47.338  1.00  0.00     0.134 C 
HETATM   21 CL1  UNL     1      22.094   1.718  48.064  1.00  0.00    -0.129 Cl
ENDBRANCH  19  20
ENDBRANCH  18  19
BRANCH  18  22
HETATM   22  C14 UNL     1      22.989   6.369  48.760  1.00  0.00     0.137 C 
BRANCH  22  23
HETATM   23  C15 UNL     1      22.493   6.970  50.060  1.00  0.00     0.134 C 
HETATM   24 CL2  UNL     1      23.841   7.642  51.011  1.00  0.00    -0.129 Cl
ENDBRANCH  22  23
ENDBRANCH  18  22
ENDBRANCH   4  18
TORSDOF 10
ENDMDL
MODEL 5
REMARK VINA RESULT:      -6.4      3.234      4.319
REMARK  10 active torsions:
REMARK  status: ('A' for Active; 'I' for Inactive)
REMARK    1  A    between atoms: O1_1  and  C1_2 
REMARK    2  A    between atoms: C6_7  and  C7_8 
REMARK    3  A    between atoms: C7_8  and  N1_9 
REMARK    4  A    between atoms: N1_9  and  O2_10 
REMARK    5  A    between atoms: O2_10  and  C8_11 
REMARK    6  A    between atoms: C11_14  and  N2_15 
REMARK    7  A    between atoms: N2_15  and  C12_16 
REMARK    8  A    between atoms: N2_15  and  C14_19 
REMARK    9  A    between atoms: C12_16  and  C13_17 
REMARK   10  A    between atoms: C14_19  and  C15_20 
ROOT
HETATM    1  C8  UNL     1      26.802   4.550  49.200  1.00  0.00     0.075 A 
HETATM    2  C9  UNL     1      27.872   5.066  48.583  1.00  0.00     0.036 A 
HETATM    3  C10 UNL     1      27.501   6.381  48.080  1.00  0.00     0.027 A 
HETATM    4  C11 UNL     1      26.236   6.654  48.387  1.00  0.00     0.013 A 
HETATM    5  C16 UNL     1      25.653   5.512  49.135  1.00  0.00     0.123 A 
ENDROOT
BRANCH   1   6
HETATM    6  O2  UNL     1      26.635   3.329  49.844  1.00  0.00    -0.268 OA
BRANCH   6   7
HETATM    7  N1  UNL     1      27.145   3.137  51.091  1.00  0.00    -0.196 NA
HETATM    8  H8  UNL     1      28.101   2.722  51.091  1.00  0.00     0.154 HD
BRANCH   7   9
HETATM    9  C7  UNL     1      26.235   2.305  51.896  1.00  0.00     0.159 C 
BRANCH   9  10
HETATM   10  C6  UNL     1      26.971   1.186  52.511  1.00  0.00    -0.010 A 
HETATM   11  C1  UNL     1      27.861   1.543  53.494  1.00  0.00     0.073 A 
HETATM   12  C2  UNL     1      28.619   0.601  54.160  1.00  0.00     0.037 A 
HETATM   13  C3  UNL     1      28.430  -0.721  53.778  1.00  0.00     0.003 A 
HETATM   14  C4  UNL     1      27.528  -1.094  52.780  1.00  0.00     0.001 A 
HETATM   15  C5  UNL     1      26.788  -0.121  52.137  1.00  0.00     0.011 A 
BRANCH  11  16
HETATM   16  O1  UNL     1      28.065   2.877  53.894  1.00  0.00    -0.360 OA
HETATM   17  H1  UNL     1      29.038   3.170  53.954  1.00  0.00     0.217 HD
ENDBRANCH  11  16
ENDBRANCH   9  10
ENDBRANCH   7   9
ENDBRANCH   6   7
ENDBRANCH   1   6
BRANCH   4  18
HETATM   18  N2  UNL     1      25.762   7.919  47.944  1.00  0.00    -0.382 N 
BRANCH  18  19
HETATM   19  C12 UNL     1      25.621   9.227  48.552  1.00  0.00     0.137 C 
BRANCH  19  20
HETATM   20  C13 UNL     1      25.829   9.079  50.046  1.00  0.00     0.134 C 
HETATM   21 CL1  UNL     1      27.544   9.327  50.404  1.00  0.00    -0.129 Cl
ENDBRANCH  19  20
ENDBRANCH  18  19
BRANCH  18  22
HETATM   22  C14 UNL     1      25.303   7.974  46.575  1.00  0.00     0.137 C 
BRANCH  22  23
HETATM   23  C15 UNL     1      23.800   8.154  46.499  1.00  0.00     0.134 C 
HETATM   24 CL2  UNL     1      22.958   6.596  46.695  1.00  0.00    -0.129 Cl
ENDBRANCH  22  23
ENDBRANCH  18  22
ENDBRANCH   4  18
TORSDOF 10
ENDMDL
MODEL 6
REMARK VINA RESULT:      -6.4      2.668      3.507
REMARK  10 active torsions:
REMARK  status: ('A' for Active; 'I' for Inactive)
REMARK    1  A    between atoms: O1_1  and  C1_2 
REMARK    2  A    between atoms: C6_7  and  C7_8 
REMARK    3  A    between atoms: C7_8  and  N1_9 
REMARK    4  A    between atoms: N1_9  and  O2_10 
REMARK    5  A    between atoms: O2_10  and  C8_11 
REMARK    6  A    between atoms: C11_14  and  N2_15 
REMARK    7  A    between atoms: N2_15  and  C12_16 
REMARK    8  A    between atoms: N2_15  and  C14_19 
REMARK    9  A    between atoms: C12_16  and  C13_17 
REMARK   10  A    between atoms: C14_19  and  C15_20 
ROOT
HETATM    1  C8  UNL     1      23.592   0.722  52.634  1.00  0.00     0.075 A 
HETATM    2  C9  UNL     1      22.437   1.332  52.925  1.00  0.00     0.036 A 
HETATM    3  C10 UNL     1      22.458   2.644  52.295  1.00  0.00     0.027 A 
HETATM    4  C11 UNL     1      23.601   2.823  51.637  1.00  0.00     0.013 A 
HETATM    5  C16 UNL     1      24.449   1.614  51.785  1.00  0.00     0.123 A 
ENDROOT
BRANCH   1   6
HETATM    6  O2  UNL     1      24.062  -0.537  52.991  1.00  0.00    -0.268 OA
BRANCH   6   7
HETATM    7  N1  UNL     1      25.242  -0.664  53.656  1.00  0.00    -0.196 NA
HETATM    8  H8  UNL     1      25.642   0.244  53.975  1.00  0.00     0.154 HD
BRANCH   7   9
HETATM    9  C7  UNL     1      26.224  -1.382  52.826  1.00  0.00     0.159 C 
BRANCH   9  10
HETATM   10  C6  UNL     1      27.588  -0.900  53.112  1.00  0.00    -0.010 A 
HETATM   11  C1  UNL     1      28.555  -1.874  53.147  1.00  0.00     0.073 A 
HETATM   12  C2  UNL     1      29.878  -1.571  53.401  1.00  0.00     0.037 A 
HETATM   13  C3  UNL     1      30.169  -0.231  53.619  1.00  0.00     0.003 A 
HETATM   14  C4  UNL     1      29.193   0.767  53.586  1.00  0.00     0.001 A 
HETATM   15  C5  UNL     1      27.881   0.423  53.328  1.00  0.00     0.011 A 
BRANCH  11  16
HETATM   16  O1  UNL     1      28.278  -3.237  52.928  1.00  0.00    -0.360 OA
HETATM   17  H1  UNL     1      27.314  -3.451  52.681  1.00  0.00     0.217 HD
ENDBRANCH  11  16
ENDBRANCH   9  10
ENDBRANCH   7   9
ENDBRANCH   6   7
ENDBRANCH   1   6
BRANCH   4  18
HETATM   18  N2  UNL     1      23.734   4.077  50.979  1.00  0.00    -0.382 N 
BRANCH  18  19
HETATM   19  C12 UNL     1      24.247   4.506  49.694  1.00  0.00     0.137 C 
BRANCH  19  20
HETATM   20  C13 UNL     1      25.731   4.773  49.843  1.00  0.00     0.134 C 
HETATM   21 CL1  UNL     1      26.617   3.313  49.377  1.00  0.00    -0.129 Cl
ENDBRANCH  19  20
ENDBRANCH  18  19
BRANCH  18  22
HETATM   22  C14 UNL     1      23.261   5.227  51.716  1.00  0.00     0.137 C 
BRANCH  22  23
HETATM   23  C15 UNL     1      22.380   6.113  50.857  1.00  0.00     0.134 C 
HETATM   24 CL2  UNL     1      20.731   5.451  50.733  1.00  0.00    -0.129 Cl
ENDBRANCH  22  23
ENDBRANCH  18  22
ENDBRANCH   4  18
TORSDOF 10
ENDMDL
MODEL 7
REMARK VINA RESULT:      -6.4      2.946      3.881
REMARK  10 active torsions:
REMARK  status: ('A' for Active; 'I' for Inactive)
REMARK    1  A    between atoms: O1_1  and  C1_2 
REMARK    2  A    between atoms: C6_7  and  C7_8 
REMARK    3  A    between atoms: C7_8  and  N1_9 
REMARK    4  A    between atoms: N1_9  and  O2_10 
REMARK    5  A    between atoms: O2_10  and  C8_11 
REMARK    6  A    between atoms: C11_14  and  N2_15 
REMARK    7  A    between atoms: N2_15  and  C12_16 
REMARK    8  A    between atoms: N2_15  and  C14_19 
REMARK    9  A    between atoms: C12_16  and  C13_17 
REMARK   10  A    between atoms: C14_19  and  C15_20 
ROOT
HETATM    1  C8  UNL     1      26.699   4.408  49.459  1.00  0.00     0.075 A 
HETATM    2  C9  UNL     1      27.653   4.930  48.678  1.00  0.00     0.036 A 
HETATM    3  C10 UNL     1      27.221   6.264  48.285  1.00  0.00     0.027 A 
HETATM    4  C11 UNL     1      26.034   6.541  48.816  1.00  0.00     0.013 A 
HETATM    5  C16 UNL     1      25.572   5.383  49.623  1.00  0.00     0.123 A 
ENDROOT
BRANCH   1   6
HETATM    6  O2  UNL     1      26.628   3.170  50.088  1.00  0.00    -0.268 OA
BRANCH   6   7
HETATM    7  N1  UNL     1      27.174   2.996  51.323  1.00  0.00    -0.196 NA
HETATM    8  H8  UNL     1      28.170   2.690  51.299  1.00  0.00     0.154 HD
BRANCH   7   9
HETATM    9  C7  UNL     1      26.373   2.043  52.109  1.00  0.00     0.159 C 
BRANCH   9  10
HETATM   10  C6  UNL     1      27.242   1.012  52.705  1.00  0.00    -0.010 A 
HETATM   11  C1  UNL     1      28.166   1.478  53.608  1.00  0.00     0.073 A 
HETATM   12  C2  UNL     1      29.045   0.627  54.247  1.00  0.00     0.037 A 
HETATM   13  C3  UNL     1      28.941  -0.719  53.924  1.00  0.00     0.003 A 
HETATM   14  C4  UNL     1      28.005  -1.203  53.008  1.00  0.00     0.001 A 
HETATM   15  C5  UNL     1      27.142  -0.319  52.389  1.00  0.00     0.011 A 
BRANCH  11  16
HETATM   16  O1  UNL     1      28.286   2.839  53.948  1.00  0.00    -0.360 OA
HETATM   17  H1  UNL     1      29.028   3.060  54.608  1.00  0.00     0.217 HD
ENDBRANCH  11  16
ENDBRANCH   9  10
ENDBRANCH   7   9
ENDBRANCH   6   7
ENDBRANCH   1   6
BRANCH   4  18
HETATM   18  N2  UNL     1      25.510   7.824  48.499  1.00  0.00    -0.382 N 
BRANCH  18  19
HETATM   19  C12 UNL     1      24.215   8.461  48.635  1.00  0.00     0.137 C 
BRANCH  19  20
HETATM   20  C13 UNL     1      23.775   8.331  50.079  1.00  0.00     0.134 C 
HETATM   21 CL1  UNL     1      22.388   7.233  50.149  1.00  0.00    -0.129 Cl
ENDBRANCH  19  20
ENDBRANCH  18  19
BRANCH  18  22
HETATM   22  C14 UNL     1      26.441   8.753  47.900  1.00  0.00     0.137 C 
BRANCH  22  23
HETATM   23  C15 UNL     1      26.746   9.911  48.830  1.00  0.00     0.134 C 
HETATM   24 CL2  UNL     1      27.419   9.332  50.375  1.00  0.00    -0.129 Cl
ENDBRANCH  22  23
ENDBRANCH  18  22
ENDBRANCH   4  18
TORSDOF 10
ENDMDL
MODEL 8
REMARK VINA RESULT:      -6.3      3.834      4.574
REMARK  10 active torsions:
REMARK  status: ('A' for Active; 'I' for Inactive)
REMARK    1  A    between atoms: O1_1  and  C1_2 
REMARK    2  A    between atoms: C6_7  and  C7_8 
REMARK    3  A    between atoms: C7_8  and  N1_9 
REMARK    4  A    between atoms: N1_9  and  O2_10 
REMARK    5  A    between atoms: O2_10  and  C8_11 
REMARK    6  A    between atoms: C11_14  and  N2_15 
REMARK    7  A    between atoms: N2_15  and  C12_16 
REMARK    8  A    between atoms: N2_15  and  C14_19 
REMARK    9  A    between atoms: C12_16  and  C13_17 
REMARK   10  A    between atoms: C14_19  and  C15_20 
ROOT
HETATM    1  C8  UNL     1      26.915   4.506  49.222  1.00  0.00     0.075 A 
HETATM    2  C9  UNL     1      28.013   4.944  48.593  1.00  0.00     0.036 A 
HETATM    3  C10 UNL     1      27.720   6.269  48.066  1.00  0.00     0.027 A 
HETATM    4  C11 UNL     1      26.475   6.624  48.370  1.00  0.00     0.013 A 
HETATM    5  C16 UNL     1      25.826   5.534  49.141  1.00  0.00     0.123 A 
ENDROOT
BRANCH   1   6
HETATM    6  O2  UNL     1      26.676   3.310  49.890  1.00  0.00    -0.268 OA
BRANCH   6   7
HETATM    7  N1  UNL     1      27.144   3.127  51.155  1.00  0.00    -0.196 NA
HETATM    8  H8  UNL     1      28.116   2.755  51.190  1.00  0.00     0.154 HD
BRANCH   7   9
HETATM    9  C7  UNL     1      26.241   2.246  51.914  1.00  0.00     0.159 C 
BRANCH   9  10
HETATM   10  C6  UNL     1      27.000   1.150  52.543  1.00  0.00    -0.010 A 
HETATM   11  C1  UNL     1      27.865   1.536  53.538  1.00  0.00     0.073 A 
HETATM   12  C2  UNL     1      28.641   0.618  54.218  1.00  0.00     0.037 A 
HETATM   13  C3  UNL     1      28.496  -0.709  53.836  1.00  0.00     0.003 A 
HETATM   14  C4  UNL     1      27.621  -1.112  52.826  1.00  0.00     0.001 A 
HETATM   15  C5  UNL     1      26.861  -0.163  52.170  1.00  0.00     0.011 A 
BRANCH  11  16
HETATM   16  O1  UNL     1      28.024   2.876  53.937  1.00  0.00    -0.360 OA
HETATM   17  H1  UNL     1      27.250   3.495  53.703  1.00  0.00     0.217 HD
ENDBRANCH  11  16
ENDBRANCH   9  10
ENDBRANCH   7   9
ENDBRANCH   6   7
ENDBRANCH   1   6
BRANCH   4  18
HETATM   18  N2  UNL     1      26.077   7.907  47.903  1.00  0.00    -0.382 N 
BRANCH  18  19
HETATM   19  C12 UNL     1      25.859   8.496  46.597  1.00  0.00     0.137 C 
BRANCH  19  20
HETATM   20  C13 UNL     1      27.019   9.425  46.299  1.00  0.00     0.134 C 
HETATM   21 CL1  UNL     1      28.235   8.532  45.374  1.00  0.00    -0.129 Cl
ENDBRANCH  19  20
ENDBRANCH  18  19
BRANCH  18  22
HETATM   22  C14 UNL     1      25.811   8.893  48.925  1.00  0.00     0.137 C 
BRANCH  22  23
HETATM   23  C15 UNL     1      26.780   8.768  50.084  1.00  0.00     0.134 C 
HETATM   24 CL2  UNL     1      28.354   9.502  49.686  1.00  0.00    -0.129 Cl
ENDBRANCH  22  23
ENDBRANCH  18  22
ENDBRANCH   4  18
TORSDOF 10
ENDMDL
MODEL 9
REMARK VINA RESULT:      -6.3      2.506      3.164
REMARK  10 active torsions:
REMARK  status: ('A' for Active; 'I' for Inactive)
REMARK    1  A    between atoms: O1_1  and  C1_2 
REMARK    2  A    between atoms: C6_7  and  C7_8 
REMARK    3  A    between atoms: C7_8  and  N1_9 
REMARK    4  A    between atoms: N1_9  and  O2_10 
REMARK    5  A    between atoms: O2_10  and  C8_11 
REMARK    6  A    between atoms: C11_14  and  N2_15 
REMARK    7  A    between atoms: N2_15  and  C12_16 
REMARK    8  A    between atoms: N2_15  and  C14_19 
REMARK    9  A    between atoms: C12_16  and  C13_17 
REMARK   10  A    between atoms: C14_19  and  C15_20 
ROOT
HETATM    1  C8  UNL     1      23.696   2.545  52.753  1.00  0.00     0.075 A 
HETATM    2  C9  UNL     1      23.175   3.727  52.398  1.00  0.00     0.036 A 
HETATM    3  C10 UNL     1      21.973   3.463  51.619  1.00  0.00     0.027 A 
HETATM    4  C11 UNL     1      21.772   2.153  51.507  1.00  0.00     0.013 A 
HETATM    5  C16 UNL     1      22.853   1.426  52.220  1.00  0.00     0.123 A 
ENDROOT
BRANCH   1   6
HETATM    6  O2  UNL     1      24.832   2.250  53.498  1.00  0.00    -0.268 OA
BRANCH   6   7
HETATM    7  N1  UNL     1      26.027   2.817  53.179  1.00  0.00    -0.196 NA
HETATM    8  H8  UNL     1      25.959   3.830  52.944  1.00  0.00     0.154 HD
BRANCH   7   9
HETATM    9  C7  UNL     1      26.662   2.085  52.070  1.00  0.00     0.159 C 
BRANCH   9  10
HETATM   10  C6  UNL     1      27.452   0.953  52.588  1.00  0.00    -0.010 A 
HETATM   11  C1  UNL     1      28.636   1.296  53.194  1.00  0.00     0.073 A 
HETATM   12  C2  UNL     1      29.478   0.341  53.727  1.00  0.00     0.037 A 
HETATM   13  C3  UNL     1      29.060  -0.978  53.613  1.00  0.00     0.003 A 
HETATM   14  C4  UNL     1      27.860  -1.338  52.998  1.00  0.00     0.001 A 
HETATM   15  C5  UNL     1      27.044  -0.352  52.477  1.00  0.00     0.011 A 
BRANCH  11  16
HETATM   16  O1  UNL     1      29.074   2.628  53.319  1.00  0.00    -0.360 OA
HETATM   17  H1  UNL     1      29.946   2.754  53.829  1.00  0.00     0.217 HD
ENDBRANCH  11  16
ENDBRANCH   9  10
ENDBRANCH   7   9
ENDBRANCH   6   7
ENDBRANCH   1   6
BRANCH   4  18
HETATM   18  N2  UNL     1      20.621   1.775  50.763  1.00  0.00    -0.382 N 
BRANCH  18  19
HETATM   19  C12 UNL     1      20.338   1.562  49.357  1.00  0.00     0.137 C 
BRANCH  19  20
HETATM   20  C13 UNL     1      21.586   1.005  48.703  1.00  0.00     0.134 C 
HETATM   21 CL1  UNL     1      22.478   2.341  47.960  1.00  0.00    -0.129 Cl
ENDBRANCH  19  20
ENDBRANCH  18  19
BRANCH  18  22
HETATM   22  C14 UNL     1      19.424   1.531  51.535  1.00  0.00     0.137 C 
BRANCH  22  23
HETATM   23  C15 UNL     1      19.281   0.063  51.888  1.00  0.00     0.134 C 
HETATM   24 CL2  UNL     1      17.595  -0.480  51.697  1.00  0.00    -0.129 Cl
ENDBRANCH  22  23
ENDBRANCH  18  22
ENDBRANCH   4  18
TORSDOF 10
ENDMDL
