MODEL 1
REMARK VINA RESULT:      -7.8      0.000      0.000
REMARK  2 active torsions:
REMARK  status: ('A' for Active; 'I' for Inactive)
REMARK       I    between atoms: C10_14  and  N4_15 
REMARK    1  A    between atoms: N4_15  and  C11_16 
REMARK    2  A    between atoms: C17_23  and  N6_24 
ROOT
HETATM    1  C1  UNL     1      20.461   5.687  49.165  1.00  0.00     0.040 C 
HETATM    2  C2  UNL     1      20.444   4.543  50.132  1.00  0.00     0.175 C 
HETATM    3  N1  UNL     1      20.972   3.354  49.700  1.00  0.00    -0.189 NA
HETATM    4  N2  UNL     1      20.693   2.627  48.751  1.00  0.00    -0.193 NA
HETATM    5  C3  UNL     1      21.562   1.379  48.657  1.00  0.00     0.211 C 
HETATM    6  C4  UNL     1      22.422   1.549  49.903  1.00  0.00    -0.037 A 
HETATM    7  C5  UNL     1      22.043   0.825  50.994  1.00  0.00     0.012 A 
HETATM    8  C6  UNL     1      22.671   1.205  52.159  1.00  0.00     0.040 A 
HETATM    9  C7  UNL     1      23.543   2.237  51.941  1.00  0.00     0.099 A 
HETATM   10  C8  UNL     1      23.890   2.925  50.803  1.00  0.00     0.040 A 
HETATM   11  C9  UNL     1      23.284   2.577  49.618  1.00  0.00     0.012 A 
HETATM   12  O1  UNL     1      24.333   2.882  52.941  1.00  0.00    -0.224 OA
HETATM   13  N3  UNL     1      23.874   4.205  53.240  1.00  0.00    -0.089 N 
HETATM   14  C10 UNL     1      23.241   5.109  52.265  1.00  0.00     0.722 C 
HETATM   15  N4  UNL     1      24.280   6.088  51.972  1.00  0.00    -0.189 N 
HETATM   16  N5  UNL     1      22.250   5.517  51.553  1.00  0.00    -0.073 NA
HETATM   17  C17 UNL     1      20.963   4.975  51.506  1.00  0.00     0.296 C 
HETATM   18  H11 UNL     1      23.961   4.638  54.207  1.00  0.00     0.213 HD
HETATM   19  H12 UNL     1      24.943   6.456  52.741  1.00  0.00     0.184 HD
ENDROOT
BRANCH  15  20
HETATM   20  C11 UNL     1      24.575   6.681  50.693  1.00  0.00     0.049 A 
HETATM   21  C12 UNL     1      24.173   7.937  50.299  1.00  0.00     0.030 A 
HETATM   22  C13 UNL     1      24.458   8.526  49.090  1.00  0.00     0.002 A 
HETATM   23  C14 UNL     1      25.205   7.819  48.182  1.00  0.00     0.000 A 
HETATM   24  C15 UNL     1      25.627   6.560  48.533  1.00  0.00     0.002 A 
HETATM   25  C16 UNL     1      25.319   6.008  49.756  1.00  0.00     0.030 A 
ENDBRANCH  15  20
BRANCH  17  26
HETATM   26  N6  UNL     1      20.724   3.858  52.377  1.00  0.00    -0.170 NA
HETATM   27  N7  UNL     1      19.659   3.254  52.426  1.00  0.00    -0.206 NA
HETATM   28  H19 UNL     1      18.856   3.536  51.814  1.00  0.00     0.211 HD
ENDBRANCH  17  26
TORSDOF 2
ENDMDL
MODEL 2
REMARK VINA RESULT:      -7.6      2.311      5.013
REMARK  2 active torsions:
REMARK  status: ('A' for Active; 'I' for Inactive)
REMARK       I    between atoms: C10_14  and  N4_15 
REMARK    1  A    between atoms: N4_15  and  C11_16 
REMARK    2  A    between atoms: C17_23  and  N6_24 
ROOT
HETATM    1  C1  UNL     1      22.325   1.549  49.121  1.00  0.00     0.040 C 
HETATM    2  C2  UNL     1      22.233   3.026  48.879  1.00  0.00     0.175 C 
HETATM    3  N1  UNL     1      21.505   3.760  49.780  1.00  0.00    -0.189 NA
HETATM    4  N2  UNL     1      20.334   3.691  50.140  1.00  0.00    -0.193 NA
HETATM    5  C3  UNL     1      19.948   4.733  51.183  1.00  0.00     0.211 C 
HETATM    6  C4  UNL     1      21.257   5.508  51.290  1.00  0.00    -0.037 A 
HETATM    7  C5  UNL     1      21.317   6.678  50.595  1.00  0.00     0.012 A 
HETATM    8  C6  UNL     1      22.586   7.204  50.500  1.00  0.00     0.040 A 
HETATM    9  C7  UNL     1      23.502   6.413  51.140  1.00  0.00     0.099 A 
HETATM   10  C8  UNL     1      23.374   5.236  51.837  1.00  0.00     0.040 A 
HETATM   11  C9  UNL     1      22.123   4.677  51.955  1.00  0.00     0.012 A 
HETATM   12  O1  UNL     1      24.907   6.659  51.208  1.00  0.00    -0.224 OA
HETATM   13  N3  UNL     1      25.667   5.750  50.403  1.00  0.00    -0.089 N 
HETATM   14  C10 UNL     1      25.289   4.351  50.142  1.00  0.00     0.722 C 
HETATM   15  N4  UNL     1      26.208   3.582  50.970  1.00  0.00    -0.189 N 
HETATM   16  N5  UNL     1      24.601   3.440  49.549  1.00  0.00    -0.073 NA
HETATM   17  C17 UNL     1      23.611   3.622  48.582  1.00  0.00     0.296 C 
HETATM   18  H11 UNL     1      26.578   6.027  49.929  1.00  0.00     0.213 HD
HETATM   19  H12 UNL     1      27.239   3.878  51.097  1.00  0.00     0.184 HD
ENDROOT
BRANCH  15  20
HETATM   20  C11 UNL     1      25.910   2.383  51.710  1.00  0.00     0.049 A 
HETATM   21  C12 UNL     1      24.848   2.236  52.573  1.00  0.00     0.030 A 
HETATM   22  C13 UNL     1      24.539   1.096  53.276  1.00  0.00     0.002 A 
HETATM   23  C14 UNL     1      25.345  -0.003  53.119  1.00  0.00     0.000 A 
HETATM   24  C15 UNL     1      26.418   0.098  52.267  1.00  0.00     0.002 A 
HETATM   25  C16 UNL     1      26.690   1.260  51.583  1.00  0.00     0.030 A 
ENDBRANCH  15  20
BRANCH  17  26
HETATM   26  N6  UNL     1      23.365   4.983  48.190  1.00  0.00    -0.170 NA
HETATM   27  N7  UNL     1      22.498   5.310  47.388  1.00  0.00    -0.206 NA
HETATM   28  H19 UNL     1      21.882   4.588  46.943  1.00  0.00     0.211 HD
ENDBRANCH  17  26
TORSDOF 2
ENDMDL
MODEL 3
REMARK VINA RESULT:      -7.6      2.395      5.817
REMARK  2 active torsions:
REMARK  status: ('A' for Active; 'I' for Inactive)
REMARK       I    between atoms: C10_14  and  N4_15 
REMARK    1  A    between atoms: N4_15  and  C11_16 
REMARK    2  A    between atoms: C17_23  and  N6_24 
ROOT
HETATM    1  C1  UNL     1      24.078   3.939  53.493  1.00  0.00     0.040 C 
HETATM    2  C2  UNL     1      23.533   4.716  52.332  1.00  0.00     0.175 C 
HETATM    3  N1  UNL     1      23.983   4.368  51.085  1.00  0.00    -0.189 NA
HETATM    4  N2  UNL     1      25.109   4.329  50.598  1.00  0.00    -0.193 NA
HETATM    5  C3  UNL     1      25.136   3.876  49.144  1.00  0.00     0.211 C 
HETATM    6  C4  UNL     1      23.644   3.717  48.879  1.00  0.00    -0.037 A 
HETATM    7  C5  UNL     1      23.040   4.748  48.224  1.00  0.00     0.012 A 
HETATM    8  C6  UNL     1      21.664   4.690  48.243  1.00  0.00     0.040 A 
HETATM    9  C7  UNL     1      21.222   3.590  48.928  1.00  0.00     0.099 A 
HETATM   10  C8  UNL     1      21.890   2.573  49.567  1.00  0.00     0.040 A 
HETATM   11  C9  UNL     1      23.265   2.594  49.571  1.00  0.00     0.012 A 
HETATM   12  O1  UNL     1      19.854   3.250  49.156  1.00  0.00    -0.224 OA
HETATM   13  N3  UNL     1      19.456   3.439  50.519  1.00  0.00    -0.089 N 
HETATM   14  C10 UNL     1      20.346   3.264  51.679  1.00  0.00     0.722 C 
HETATM   15  N4  UNL     1      19.911   2.003  52.264  1.00  0.00    -0.189 N 
HETATM   16  N5  UNL     1      21.284   3.644  52.474  1.00  0.00    -0.073 NA
HETATM   17  C17 UNL     1      22.009   4.836  52.417  1.00  0.00     0.296 C 
HETATM   18  H11 UNL     1      18.470   3.724  50.794  1.00  0.00     0.213 HD
HETATM   19  H12 UNL     1      18.867   1.727  52.301  1.00  0.00     0.184 HD
ENDROOT
BRANCH  15  20
HETATM   20  C11 UNL     1      20.747   0.984  52.846  1.00  0.00     0.049 A 
HETATM   21  C12 UNL     1      21.776   0.346  52.193  1.00  0.00     0.030 A 
HETATM   22  C13 UNL     1      22.593  -0.617  52.737  1.00  0.00     0.002 A 
HETATM   23  C14 UNL     1      22.384  -0.988  54.041  1.00  0.00     0.000 A 
HETATM   24  C15 UNL     1      21.366  -0.376  54.731  1.00  0.00     0.002 A 
HETATM   25  C16 UNL     1      20.571   0.584  54.148  1.00  0.00     0.030 A 
ENDBRANCH  15  20
BRANCH  17  26
HETATM   26  N6  UNL     1      21.636   5.744  51.369  1.00  0.00    -0.170 NA
HETATM   27  N7  UNL     1      22.023   6.906  51.310  1.00  0.00    -0.206 NA
HETATM   28  H19 UNL     1      22.662   7.294  52.045  1.00  0.00     0.211 HD
ENDBRANCH  17  26
TORSDOF 2
ENDMDL
MODEL 4
REMARK VINA RESULT:      -7.4      1.785      2.196
REMARK  2 active torsions:
REMARK  status: ('A' for Active; 'I' for Inactive)
REMARK       I    between atoms: C10_14  and  N4_15 
REMARK    1  A    between atoms: N4_15  and  C11_16 
REMARK    2  A    between atoms: C17_23  and  N6_24 
ROOT
HETATM    1  C1  UNL     1      22.597   6.540  47.147  1.00  0.00     0.040 C 
HETATM    2  C2  UNL     1      21.884   5.732  48.188  1.00  0.00     0.175 C 
HETATM    3  N1  UNL     1      22.164   4.390  48.233  1.00  0.00    -0.189 NA
HETATM    4  N2  UNL     1      22.062   3.500  47.394  1.00  0.00    -0.193 NA
HETATM    5  C3  UNL     1      22.496   2.129  47.896  1.00  0.00     0.211 C 
HETATM    6  C4  UNL     1      22.835   2.462  49.344  1.00  0.00    -0.037 A 
HETATM    7  C5  UNL     1      21.881   2.154  50.267  1.00  0.00     0.012 A 
HETATM    8  C6  UNL     1      22.108   2.708  51.508  1.00  0.00     0.040 A 
HETATM    9  C7  UNL     1      23.258   3.449  51.519  1.00  0.00     0.099 A 
HETATM   10  C8  UNL     1      24.191   3.717  50.546  1.00  0.00     0.040 A 
HETATM   11  C9  UNL     1      24.001   3.183  49.293  1.00  0.00     0.012 A 
HETATM   12  O1  UNL     1      23.766   4.175  52.639  1.00  0.00    -0.224 OA
HETATM   13  N3  UNL     1      23.637   5.594  52.483  1.00  0.00    -0.089 N 
HETATM   14  C10 UNL     1      23.711   6.301  51.194  1.00  0.00     0.722 C 
HETATM   15  N4  UNL     1      25.020   6.938  51.220  1.00  0.00    -0.189 N 
HETATM   16  N5  UNL     1      23.225   6.684  50.066  1.00  0.00    -0.073 NA
HETATM   17  C17 UNL     1      21.953   6.413  49.557  1.00  0.00     0.296 C 
HETATM   18  H11 UNL     1      23.478   6.249  53.305  1.00  0.00     0.213 HD
HETATM   19  H12 UNL     1      25.423   7.366  52.127  1.00  0.00     0.184 HD
ENDROOT
BRANCH  15  20
HETATM   20  C11 UNL     1      25.933   7.089  50.116  1.00  0.00     0.049 A 
HETATM   21  C12 UNL     1      26.374   6.059  49.316  1.00  0.00     0.030 A 
HETATM   22  C13 UNL     1      27.232   6.186  48.250  1.00  0.00     0.002 A 
HETATM   23  C14 UNL     1      27.702   7.436  47.937  1.00  0.00     0.000 A 
HETATM   24  C15 UNL     1      27.288   8.494  48.710  1.00  0.00     0.002 A 
HETATM   25  C16 UNL     1      26.427   8.322  49.770  1.00  0.00     0.030 A 
ENDBRANCH  15  20
BRANCH  17  26
HETATM   26  N6  UNL     1      21.089   5.648  50.412  1.00  0.00    -0.170 NA
HETATM   27  N7  UNL     1      19.954   5.307  50.098  1.00  0.00    -0.206 NA
HETATM   28  H19 UNL     1      19.557   5.569  49.164  1.00  0.00     0.211 HD
ENDBRANCH  17  26
TORSDOF 2
ENDMDL
MODEL 5
REMARK VINA RESULT:      -7.2      2.453      5.192
REMARK  2 active torsions:
REMARK  status: ('A' for Active; 'I' for Inactive)
REMARK       I    between atoms: C10_14  and  N4_15 
REMARK    1  A    between atoms: N4_15  and  C11_16 
REMARK    2  A    between atoms: C17_23  and  N6_24 
ROOT
HETATM    1  C1  UNL     1      23.416   4.753  52.871  1.00  0.00     0.040 C 
HETATM    2  C2  UNL     1      22.268   4.758  51.906  1.00  0.00     0.175 C 
HETATM    3  N1  UNL     1      22.578   4.711  50.571  1.00  0.00    -0.189 NA
HETATM    4  N2  UNL     1      23.251   5.449  49.858  1.00  0.00    -0.193 NA
HETATM    5  C3  UNL     1      23.321   5.002  48.402  1.00  0.00     0.211 C 
HETATM    6  C4  UNL     1      22.408   3.781  48.448  1.00  0.00    -0.037 A 
HETATM    7  C5  UNL     1      21.134   3.972  48.005  1.00  0.00     0.012 A 
HETATM    8  C6  UNL     1      20.279   2.936  48.309  1.00  0.00     0.040 A 
HETATM    9  C7  UNL     1      20.924   1.943  48.996  1.00  0.00     0.099 A 
HETATM   10  C8  UNL     1      22.227   1.806  49.410  1.00  0.00     0.040 A 
HETATM   11  C9  UNL     1      23.114   2.820  49.126  1.00  0.00     0.012 A 
HETATM   12  O1  UNL     1      20.321   0.744  49.483  1.00  0.00    -0.224 OA
HETATM   13  N3  UNL     1      20.183   0.733  50.909  1.00  0.00    -0.089 N 
HETATM   14  C10 UNL     1      21.116   1.387  51.842  1.00  0.00     0.722 C 
HETATM   15  N4  UNL     1      21.865   0.279  52.419  1.00  0.00    -0.189 N 
HETATM   16  N5  UNL     1      21.605   2.413  52.445  1.00  0.00    -0.073 NA
HETATM   17  C17 UNL     1      21.199   3.742  52.317  1.00  0.00     0.296 C 
HETATM   18  H11 UNL     1      19.382   0.241  51.404  1.00  0.00     0.213 HD
HETATM   19  H12 UNL     1      21.391  -0.662  52.655  1.00  0.00     0.184 HD
ENDROOT
BRANCH  15  20
HETATM   20  C11 UNL     1      23.269   0.257  52.742  1.00  0.00     0.049 A 
HETATM   21  C12 UNL     1      24.238   0.976  52.080  1.00  0.00     0.030 A 
HETATM   22  C13 UNL     1      25.579   0.980  52.384  1.00  0.00     0.002 A 
HETATM   23  C14 UNL     1      26.010   0.209  53.433  1.00  0.00     0.000 A 
HETATM   24  C15 UNL     1      25.077  -0.526  54.122  1.00  0.00     0.002 A 
HETATM   25  C16 UNL     1      23.743  -0.501  53.784  1.00  0.00     0.030 A 
ENDBRANCH  15  20
BRANCH  17  26
HETATM   26  N6  UNL     1      20.089   3.974  51.435  1.00  0.00    -0.170 NA
HETATM   27  N7  UNL     1      18.920   3.795  51.756  1.00  0.00    -0.206 NA
HETATM   28  H19 UNL     1      18.676   3.457  52.718  1.00  0.00     0.211 HD
ENDBRANCH  17  26
TORSDOF 2
ENDMDL
MODEL 6
REMARK VINA RESULT:      -7.1      6.478      8.917
REMARK  2 active torsions:
REMARK  status: ('A' for Active; 'I' for Inactive)
REMARK       I    between atoms: C10_14  and  N4_15 
REMARK    1  A    between atoms: N4_15  and  C11_16 
REMARK    2  A    between atoms: C17_23  and  N6_24 
ROOT
HETATM    1  C1  UNL     1      28.595  12.196  47.786  1.00  0.00     0.040 C 
HETATM    2  C2  UNL     1      27.906  11.036  48.441  1.00  0.00     0.175 C 
HETATM    3  N1  UNL     1      27.169  10.212  47.631  1.00  0.00    -0.189 NA
HETATM    4  N2  UNL     1      26.216  10.428  46.888  1.00  0.00    -0.193 NA
HETATM    5  C3  UNL     1      25.702   9.186  46.169  1.00  0.00     0.211 C 
HETATM    6  C4  UNL     1      26.615   8.125  46.772  1.00  0.00    -0.037 A 
HETATM    7  C5  UNL     1      26.082   7.381  47.782  1.00  0.00     0.012 A 
HETATM    8  C6  UNL     1      27.009   6.631  48.470  1.00  0.00     0.040 A 
HETATM    9  C7  UNL     1      28.269   6.812  47.967  1.00  0.00     0.099 A 
HETATM   10  C8  UNL     1      28.745   7.579  46.930  1.00  0.00     0.040 A 
HETATM   11  C9  UNL     1      27.851   8.344  46.217  1.00  0.00     0.012 A 
HETATM   12  O1  UNL     1      29.459   6.203  48.469  1.00  0.00    -0.224 OA
HETATM   13  N3  UNL     1      30.312   7.131  49.149  1.00  0.00    -0.089 N 
HETATM   14  C10 UNL     1      30.438   8.556  48.801  1.00  0.00     0.722 C 
HETATM   15  N4  UNL     1      31.733   8.639  48.140  1.00  0.00    -0.189 N 
HETATM   16  N5  UNL     1      30.031   9.777  48.796  1.00  0.00    -0.073 NA
HETATM   17  C17 UNL     1      28.862  10.281  49.369  1.00  0.00     0.296 C 
HETATM   18  H11 UNL     1      30.927   6.850  49.969  1.00  0.00     0.213 HD
HETATM   19  H12 UNL     1      32.580   8.059  48.478  1.00  0.00     0.184 HD
ENDROOT
BRANCH  15  20
HETATM   20  C11 UNL     1      32.073   9.452  47.000  1.00  0.00     0.049 A 
HETATM   21  C12 UNL     1      32.666  10.692  47.068  1.00  0.00     0.030 A 
HETATM   22  C13 UNL     1      33.011  11.474  45.991  1.00  0.00     0.002 A 
HETATM   23  C14 UNL     1      32.751  10.998  44.731  1.00  0.00     0.000 A 
HETATM   24  C15 UNL     1      32.159   9.764  44.616  1.00  0.00     0.002 A 
HETATM   25  C16 UNL     1      31.830   9.013  45.721  1.00  0.00     0.030 A 
ENDBRANCH  15  20
BRANCH  17  26
HETATM   26  N6  UNL     1      28.046   9.325  50.066  1.00  0.00    -0.170 NA
HETATM   27  N7  UNL     1      27.207   9.635  50.903  1.00  0.00    -0.206 NA
HETATM   28  H19 UNL     1      27.045  10.641  51.152  1.00  0.00     0.211 HD
ENDBRANCH  17  26
TORSDOF 2
ENDMDL
MODEL 7
REMARK VINA RESULT:      -7.1      3.034      5.714
REMARK  2 active torsions:
REMARK  status: ('A' for Active; 'I' for Inactive)
REMARK       I    between atoms: C10_14  and  N4_15 
REMARK    1  A    between atoms: N4_15  and  C11_16 
REMARK    2  A    between atoms: C17_23  and  N6_24 
ROOT
HETATM    1  C1  UNL     1      23.880   3.646  51.683  1.00  0.00     0.040 C 
HETATM    2  C2  UNL     1      22.703   4.012  50.830  1.00  0.00     0.175 C 
HETATM    3  N1  UNL     1      22.533   3.305  49.668  1.00  0.00    -0.189 NA
HETATM    4  N2  UNL     1      23.258   3.141  48.692  1.00  0.00    -0.193 NA
HETATM    5  C3  UNL     1      22.645   2.260  47.610  1.00  0.00     0.211 C 
HETATM    6  C4  UNL     1      21.273   1.995  48.219  1.00  0.00    -0.037 A 
HETATM    7  C5  UNL     1      20.250   2.758  47.742  1.00  0.00     0.012 A 
HETATM    8  C6  UNL     1      19.100   2.678  48.495  1.00  0.00     0.040 A 
HETATM    9  C7  UNL     1      19.260   1.836  49.562  1.00  0.00     0.099 A 
HETATM   10  C8  UNL     1      20.327   1.082  49.988  1.00  0.00     0.040 A 
HETATM   11  C9  UNL     1      21.495   1.133  49.264  1.00  0.00     0.012 A 
HETATM   12  O1  UNL     1      18.270   1.553  50.552  1.00  0.00    -0.224 OA
HETATM   13  N3  UNL     1      18.570   2.147  51.820  1.00  0.00    -0.089 N 
HETATM   14  C10 UNL     1      19.931   2.360  52.340  1.00  0.00     0.722 C 
HETATM   15  N4  UNL     1      20.078   1.333  53.363  1.00  0.00    -0.189 N 
HETATM   16  N5  UNL     1      21.053   2.988  52.397  1.00  0.00    -0.073 NA
HETATM   17  C17 UNL     1      21.427   4.119  51.669  1.00  0.00     0.296 C 
HETATM   18  H11 UNL     1      17.815   2.481  52.490  1.00  0.00     0.213 HD
HETATM   19  H12 UNL     1      19.258   1.059  54.011  1.00  0.00     0.184 HD
ENDROOT
BRANCH  15  20
HETATM   20  C11 UNL     1      21.260   0.564  53.655  1.00  0.00     0.049 A 
HETATM   21  C12 UNL     1      21.395  -0.293  54.723  1.00  0.00     0.030 A 
HETATM   22  C13 UNL     1      22.509  -1.046  55.009  1.00  0.00     0.002 A 
HETATM   23  C14 UNL     1      23.591  -0.951  54.171  1.00  0.00     0.000 A 
HETATM   24  C15 UNL     1      23.500  -0.107  53.091  1.00  0.00     0.002 A 
HETATM   25  C16 UNL     1      22.365   0.629  52.842  1.00  0.00     0.030 A 
ENDBRANCH  15  20
BRANCH  17  26
HETATM   26  N6  UNL     1      20.427   4.649  50.783  1.00  0.00    -0.170 NA
HETATM   27  N7  UNL     1      20.601   5.639  50.081  1.00  0.00    -0.206 NA
HETATM   28  H19 UNL     1      21.515   6.152  50.099  1.00  0.00     0.211 HD
ENDBRANCH  17  26
TORSDOF 2
ENDMDL
MODEL 8
REMARK VINA RESULT:      -7.1      2.242      5.366
REMARK  2 active torsions:
REMARK  status: ('A' for Active; 'I' for Inactive)
REMARK       I    between atoms: C10_14  and  N4_15 
REMARK    1  A    between atoms: N4_15  and  C11_16 
REMARK    2  A    between atoms: C17_23  and  N6_24 
ROOT
HETATM    1  C1  UNL     1      23.716   5.016  53.550  1.00  0.00     0.040 C 
HETATM    2  C2  UNL     1      22.983   5.228  52.260  1.00  0.00     0.175 C 
HETATM    3  N1  UNL     1      23.744   5.406  51.134  1.00  0.00    -0.189 NA
HETATM    4  N2  UNL     1      24.602   6.234  50.844  1.00  0.00    -0.193 NA
HETATM    5  C3  UNL     1      25.194   6.047  49.453  1.00  0.00     0.211 C 
HETATM    6  C4  UNL     1      24.364   4.868  48.959  1.00  0.00    -0.037 A 
HETATM    7  C5  UNL     1      23.322   5.175  48.136  1.00  0.00     0.012 A 
HETATM    8  C6  UNL     1      22.448   4.130  47.933  1.00  0.00     0.040 A 
HETATM    9  C7  UNL     1      22.841   3.012  48.617  1.00  0.00     0.099 A 
HETATM   10  C8  UNL     1      23.918   2.762  49.433  1.00  0.00     0.040 A 
HETATM   11  C9  UNL     1      24.815   3.780  49.662  1.00  0.00     0.012 A 
HETATM   12  O1  UNL     1      22.143   1.766  48.642  1.00  0.00    -0.224 OA
HETATM   13  N3  UNL     1      21.512   1.510  49.902  1.00  0.00    -0.089 N 
HETATM   14  C10 UNL     1      22.035   1.960  51.204  1.00  0.00     0.722 C 
HETATM   15  N4  UNL     1      22.567   0.744  51.804  1.00  0.00    -0.189 N 
HETATM   16  N5  UNL     1      22.247   2.847  52.110  1.00  0.00    -0.073 NA
HETATM   17  C17 UNL     1      21.870   4.192  52.083  1.00  0.00     0.296 C 
HETATM   18  H11 UNL     1      20.603   0.965  49.989  1.00  0.00     0.213 HD
HETATM   19  H12 UNL     1      22.070  -0.208  51.689  1.00  0.00     0.184 HD
ENDROOT
BRANCH  15  20
HETATM   20  C11 UNL     1      23.767   0.620  52.592  1.00  0.00     0.049 A 
HETATM   21  C12 UNL     1      24.835   1.486  52.537  1.00  0.00     0.030 A 
HETATM   22  C13 UNL     1      25.980   1.393  53.291  1.00  0.00     0.002 A 
HETATM   23  C14 UNL     1      26.089   0.356  54.183  1.00  0.00     0.000 A 
HETATM   24  C15 UNL     1      25.046  -0.534  54.270  1.00  0.00     0.002 A 
HETATM   25  C16 UNL     1      23.917  -0.403  53.495  1.00  0.00     0.030 A 
ENDBRANCH  15  20
BRANCH  17  26
HETATM   26  N6  UNL     1      21.136   4.610  50.921  1.00  0.00    -0.170 NA
HETATM   27  N7  UNL     1      20.822   5.774  50.701  1.00  0.00    -0.206 NA
HETATM   28  H19 UNL     1      21.086   6.535  51.373  1.00  0.00     0.211 HD
ENDBRANCH  17  26
TORSDOF 2
ENDMDL
MODEL 9
REMARK VINA RESULT:      -7.0      2.721      4.632
REMARK  2 active torsions:
REMARK  status: ('A' for Active; 'I' for Inactive)
REMARK       I    between atoms: C10_14  and  N4_15 
REMARK    1  A    between atoms: N4_15  and  C11_16 
REMARK    2  A    between atoms: C17_23  and  N6_24 
ROOT
HETATM    1  C1  UNL     1      23.222   4.533  51.075  1.00  0.00     0.040 C 
HETATM    2  C2  UNL     1      21.794   4.079  51.107  1.00  0.00     0.175 C 
HETATM    3  N1  UNL     1      21.364   3.304  50.060  1.00  0.00    -0.189 NA
HETATM    4  N2  UNL     1      21.331   3.503  48.850  1.00  0.00    -0.193 NA
HETATM    5  C3  UNL     1      20.757   2.339  48.050  1.00  0.00     0.211 C 
HETATM    6  C4  UNL     1      20.388   1.387  49.181  1.00  0.00    -0.037 A 
HETATM    7  C5  UNL     1      19.075   1.376  49.549  1.00  0.00     0.012 A 
HETATM    8  C6  UNL     1      18.834   0.715  50.732  1.00  0.00     0.040 A 
HETATM    9  C7  UNL     1      19.991   0.216  51.268  1.00  0.00     0.099 A 
HETATM   10  C8  UNL     1      21.296   0.255  50.840  1.00  0.00     0.040 A 
HETATM   11  C9  UNL     1      21.580   0.906  49.662  1.00  0.00     0.012 A 
HETATM   12  O1  UNL     1      20.094  -0.497  52.501  1.00  0.00    -0.224 OA
HETATM   13  N3  UNL     1      20.725   0.270  53.533  1.00  0.00    -0.089 N 
HETATM   14  C10 UNL     1      21.778   1.272  53.301  1.00  0.00     0.722 C 
HETATM   15  N4  UNL     1      22.994   0.612  53.757  1.00  0.00    -0.189 N 
HETATM   16  N5  UNL     1      22.198   2.434  52.940  1.00  0.00    -0.073 NA
HETATM   17  C17 UNL     1      21.429   3.504  52.478  1.00  0.00     0.296 C 
HETATM   18  H11 UNL     1      20.473   0.166  54.561  1.00  0.00     0.213 HD
HETATM   19  H12 UNL     1      22.998  -0.027  54.629  1.00  0.00     0.184 HD
ENDROOT
BRANCH  15  20
HETATM   20  C11 UNL     1      24.301   0.693  53.156  1.00  0.00     0.049 A 
HETATM   21  C12 UNL     1      24.942   1.865  52.827  1.00  0.00     0.030 A 
HETATM   22  C13 UNL     1      26.195   1.962  52.268  1.00  0.00     0.002 A 
HETATM   23  C14 UNL     1      26.883   0.805  52.008  1.00  0.00     0.000 A 
HETATM   24  C15 UNL     1      26.280  -0.390  52.320  1.00  0.00     0.002 A 
HETATM   25  C16 UNL     1      25.024  -0.441  52.879  1.00  0.00     0.030 A 
ENDBRANCH  15  20
BRANCH  17  26
HETATM   26  N6  UNL     1      20.011   3.282  52.438  1.00  0.00    -0.170 NA
HETATM   27  N7  UNL     1      19.224   4.035  51.875  1.00  0.00    -0.206 NA
HETATM   28  H19 UNL     1      19.565   4.896  51.385  1.00  0.00     0.211 HD
ENDBRANCH  17  26
TORSDOF 2
ENDMDL
