MODEL 1
REMARK VINA RESULT:      -7.8      0.000      0.000
REMARK  5 active torsions:
REMARK  status: ('A' for Active; 'I' for Inactive)
REMARK    1  A    between atoms: C6_8  and  O3_9 
REMARK    2  A    between atoms: O3_9  and  C7_10 
REMARK    3  A    between atoms: C7_10  and  C9_13 
REMARK    4  A    between atoms: C8_11  and  O4_12 
REMARK    5  A    between atoms: C16_20  and  O5_21 
ROOT
HETATM    1  O1  UNL     1      26.767  -1.482  52.245  1.00  0.00    -0.290 OA
HETATM    2  C1  UNL     1      27.159  -0.483  52.964  1.00  0.00     0.188 C 
HETATM    3  C2  UNL     1      27.983   0.316  54.015  1.00  0.00     0.252 C 
HETATM    4  O2  UNL     1      26.951   1.103  54.657  1.00  0.00    -0.371 OA
HETATM    5  C3  UNL     1      26.576   2.187  53.869  1.00  0.00     0.182 C 
HETATM    6  C4  UNL     1      25.131   2.572  53.798  1.00  0.00     0.069 C 
HETATM    7  C5  UNL     1      24.387   1.899  52.626  1.00  0.00     0.014 C 
HETATM    8  C6  UNL     1      24.796   0.608  52.679  1.00  0.00     0.089 C 
HETATM    9  C15 UNL     1      26.315   0.716  52.600  1.00  0.00     0.077 C 
HETATM   10  C16 UNL     1      26.967   1.911  52.462  1.00  0.00     0.089 C 
ENDROOT
BRANCH   8  11
HETATM   11  O3  UNL     1      24.201  -0.652  52.768  1.00  0.00    -0.307 OA
BRANCH  11  12
HETATM   12  C7  UNL     1      23.100  -0.729  53.613  1.00  0.00     0.107 C 
HETATM   13  C8  UNL     1      23.430  -0.999  54.862  1.00  0.00     0.169 C 
BRANCH  13  14
HETATM   14  O4  UNL     1      24.764  -1.164  55.168  1.00  0.00    -0.370 OA
HETATM   15  H8  UNL     1      25.485  -0.594  54.726  1.00  0.00     0.216 HD
ENDBRANCH  13  14
BRANCH  12  16
HETATM   16  C9  UNL     1      21.736  -0.532  53.157  1.00  0.00    -0.000 A 
HETATM   17  C10 UNL     1      21.533   0.096  51.956  1.00  0.00     0.014 A 
HETATM   18  C11 UNL     1      20.260   0.310  51.473  1.00  0.00     0.001 A 
HETATM   19  C12 UNL     1      19.208  -0.144  52.264  1.00  0.00     0.000 A 
HETATM   20  C13 UNL     1      19.415  -0.784  53.487  1.00  0.00     0.001 A 
HETATM   21  C14 UNL     1      20.713  -0.986  53.950  1.00  0.00     0.014 A 
ENDBRANCH  12  16
ENDBRANCH  11  12
ENDBRANCH   8  11
BRANCH  10  22
HETATM   22  O5  UNL     1      27.702   2.849  51.760  1.00  0.00    -0.361 OA
HETATM   23  H14 UNL     1      27.678   3.844  51.882  1.00  0.00     0.217 HD
ENDBRANCH  10  22
TORSDOF 5
ENDMDL
MODEL 2
REMARK VINA RESULT:      -7.7      2.359      5.608
REMARK  5 active torsions:
REMARK  status: ('A' for Active; 'I' for Inactive)
REMARK    1  A    between atoms: C6_8  and  O3_9 
REMARK    2  A    between atoms: O3_9  and  C7_10 
REMARK    3  A    between atoms: C7_10  and  C9_13 
REMARK    4  A    between atoms: C8_11  and  O4_12 
REMARK    5  A    between atoms: C16_20  and  O5_21 
ROOT
HETATM    1  O1  UNL     1      20.346  -0.867  53.497  1.00  0.00    -0.290 OA
HETATM    2  C1  UNL     1      20.303  -0.060  52.489  1.00  0.00     0.188 C 
HETATM    3  C2  UNL     1      19.843   0.545  51.131  1.00  0.00     0.252 C 
HETATM    4  O2  UNL     1      21.110   0.905  50.528  1.00  0.00    -0.371 OA
HETATM    5  C3  UNL     1      21.618   2.077  51.078  1.00  0.00     0.182 C 
HETATM    6  C4  UNL     1      23.089   2.186  51.333  1.00  0.00     0.069 C 
HETATM    7  C5  UNL     1      23.486   1.749  52.759  1.00  0.00     0.014 C 
HETATM    8  C6  UNL     1      22.795   0.598  52.951  1.00  0.00     0.089 C 
HETATM    9  C15 UNL     1      21.349   1.010  52.701  1.00  0.00     0.077 C 
HETATM   10  C16 UNL     1      20.984   2.295  52.405  1.00  0.00     0.089 C 
ENDROOT
BRANCH   8  11
HETATM   11  O3  UNL     1      23.082  -0.722  53.298  1.00  0.00    -0.307 OA
BRANCH  11  12
HETATM   12  C7  UNL     1      24.057  -0.880  54.276  1.00  0.00     0.107 C 
HETATM   13  C8  UNL     1      23.565  -1.295  55.428  1.00  0.00     0.169 C 
BRANCH  13  14
HETATM   14  O4  UNL     1      22.207  -1.513  55.522  1.00  0.00    -0.370 OA
HETATM   15  H8  UNL     1      21.535  -0.776  55.311  1.00  0.00     0.216 HD
ENDBRANCH  13  14
BRANCH  12  16
HETATM   16  C9  UNL     1      25.465  -0.613  54.043  1.00  0.00    -0.000 A 
HETATM   17  C10 UNL     1      26.024  -1.040  52.866  1.00  0.00     0.014 A 
HETATM   18  C11 UNL     1      27.355  -0.813  52.591  1.00  0.00     0.001 A 
HETATM   19  C12 UNL     1      28.088  -0.135  53.562  1.00  0.00     0.000 A 
HETATM   20  C13 UNL     1      27.517   0.299  54.759  1.00  0.00     0.001 A 
HETATM   21  C14 UNL     1      26.170   0.057  55.011  1.00  0.00     0.014 A 
ENDBRANCH  12  16
ENDBRANCH  11  12
ENDBRANCH   8  11
BRANCH  10  22
HETATM   22  O5  UNL     1      20.402   3.517  52.692  1.00  0.00    -0.361 OA
HETATM   23  H14 UNL     1      20.263   3.917  53.601  1.00  0.00     0.217 HD
ENDBRANCH  10  22
TORSDOF 5
ENDMDL
MODEL 3
REMARK VINA RESULT:      -7.5      2.319      3.997
REMARK  5 active torsions:
REMARK  status: ('A' for Active; 'I' for Inactive)
REMARK    1  A    between atoms: C6_8  and  O3_9 
REMARK    2  A    between atoms: O3_9  and  C7_10 
REMARK    3  A    between atoms: C7_10  and  C9_13 
REMARK    4  A    between atoms: C8_11  and  O4_12 
REMARK    5  A    between atoms: C16_20  and  O5_21 
ROOT
HETATM    1  O1  UNL     1      22.895  -0.336  53.792  1.00  0.00    -0.290 OA
HETATM    2  C1  UNL     1      24.097  -0.559  54.206  1.00  0.00     0.188 C 
HETATM    3  C2  UNL     1      25.250  -1.001  55.155  1.00  0.00     0.252 C 
HETATM    4  O2  UNL     1      26.215   0.060  54.955  1.00  0.00    -0.371 OA
HETATM    5  C3  UNL     1      26.904  -0.100  53.757  1.00  0.00     0.182 C 
HETATM    6  C4  UNL     1      27.218   1.106  52.929  1.00  0.00     0.069 C 
HETATM    7  C5  UNL     1      26.136   1.407  51.871  1.00  0.00     0.014 C 
HETATM    8  C6  UNL     1      24.970   1.271  52.549  1.00  0.00     0.089 C 
HETATM    9  C15 UNL     1      25.053  -0.143  53.112  1.00  0.00     0.077 C 
HETATM   10  C16 UNL     1      26.107  -0.980  52.862  1.00  0.00     0.089 C 
ENDROOT
BRANCH   8  11
HETATM   11  O3  UNL     1      23.839   2.047  52.806  1.00  0.00    -0.307 OA
BRANCH  11  12
HETATM   12  C7  UNL     1      23.441   2.878  51.765  1.00  0.00     0.107 C 
HETATM   13  C8  UNL     1      23.630   4.157  52.028  1.00  0.00     0.169 C 
BRANCH  13  14
HETATM   14  O4  UNL     1      24.175   4.503  53.247  1.00  0.00    -0.370 OA
HETATM   15  H8  UNL     1      25.183   4.500  53.399  1.00  0.00     0.216 HD
ENDBRANCH  13  14
BRANCH  12  16
HETATM   16  C9  UNL     1      22.877   2.379  50.524  1.00  0.00    -0.000 A 
HETATM   17  C10 UNL     1      21.948   1.373  50.587  1.00  0.00     0.014 A 
HETATM   18  C11 UNL     1      21.379   0.860  49.441  1.00  0.00     0.001 A 
HETATM   19  C12 UNL     1      21.796   1.416  48.234  1.00  0.00     0.000 A 
HETATM   20  C13 UNL     1      22.741   2.441  48.171  1.00  0.00     0.001 A 
HETATM   21  C14 UNL     1      23.299   2.939  49.345  1.00  0.00     0.014 A 
ENDBRANCH  12  16
ENDBRANCH  11  12
ENDBRANCH   8  11
BRANCH  10  22
HETATM   22  O5  UNL     1      26.705  -2.079  52.273  1.00  0.00    -0.361 OA
HETATM   23  H14 UNL     1      27.573  -2.505  52.540  1.00  0.00     0.217 HD
ENDBRANCH  10  22
TORSDOF 5
ENDMDL
MODEL 4
REMARK VINA RESULT:      -7.4      2.445      5.412
REMARK  5 active torsions:
REMARK  status: ('A' for Active; 'I' for Inactive)
REMARK    1  A    between atoms: C6_8  and  O3_9 
REMARK    2  A    between atoms: O3_9  and  C7_10 
REMARK    3  A    between atoms: C7_10  and  C9_13 
REMARK    4  A    between atoms: C8_11  and  O4_12 
REMARK    5  A    between atoms: C16_20  and  O5_21 
ROOT
HETATM    1  O1  UNL     1      22.048   1.257  53.062  1.00  0.00    -0.290 OA
HETATM    2  C1  UNL     1      22.333   2.031  52.068  1.00  0.00     0.188 C 
HETATM    3  C2  UNL     1      22.139   2.834  50.749  1.00  0.00     0.252 C 
HETATM    4  O2  UNL     1      23.395   2.589  50.071  1.00  0.00    -0.371 OA
HETATM    5  C3  UNL     1      24.418   3.369  50.600  1.00  0.00     0.182 C 
HETATM    6  C4  UNL     1      25.781   2.772  50.762  1.00  0.00     0.069 C 
HETATM    7  C5  UNL     1      26.002   2.145  52.154  1.00  0.00     0.014 C 
HETATM    8  C6  UNL     1      24.866   1.439  52.377  1.00  0.00     0.089 C 
HETATM    9  C15 UNL     1      23.766   2.484  52.224  1.00  0.00     0.077 C 
HETATM   10  C16 UNL     1      24.027   3.803  51.967  1.00  0.00     0.089 C 
ENDROOT
BRANCH   8  11
HETATM   11  O3  UNL     1      24.523   0.123  52.689  1.00  0.00    -0.307 OA
BRANCH  11  12
HETATM   12  C7  UNL     1      25.211  -0.430  53.763  1.00  0.00     0.107 C 
HETATM   13  C8  UNL     1      24.409  -0.897  54.701  1.00  0.00     0.169 C 
BRANCH  13  14
HETATM   14  O4  UNL     1      23.047  -0.787  54.515  1.00  0.00    -0.370 OA
HETATM   15  H8  UNL     1      22.603  -1.089  53.648  1.00  0.00     0.216 HD
ENDBRANCH  13  14
BRANCH  12  16
HETATM   16  C9  UNL     1      26.660  -0.482  53.833  1.00  0.00    -0.000 A 
HETATM   17  C10 UNL     1      27.295   0.265  54.791  1.00  0.00     0.014 A 
HETATM   18  C11 UNL     1      28.668   0.254  54.904  1.00  0.00     0.001 A 
HETATM   19  C12 UNL     1      29.363  -0.548  54.003  1.00  0.00     0.000 A 
HETATM   20  C13 UNL     1      28.716  -1.309  53.028  1.00  0.00     0.001 A 
HETATM   21  C14 UNL     1      27.327  -1.278  52.937  1.00  0.00     0.014 A 
ENDBRANCH  12  16
ENDBRANCH  11  12
ENDBRANCH   8  11
BRANCH  10  22
HETATM   22  O5  UNL     1      24.097   5.142  52.305  1.00  0.00    -0.361 OA
HETATM   23  H14 UNL     1      23.417   5.667  52.823  1.00  0.00     0.217 HD
ENDBRANCH  10  22
TORSDOF 5
ENDMDL
MODEL 5
REMARK VINA RESULT:      -7.3      2.278      4.101
REMARK  5 active torsions:
REMARK  status: ('A' for Active; 'I' for Inactive)
REMARK    1  A    between atoms: C6_8  and  O3_9 
REMARK    2  A    between atoms: O3_9  and  C7_10 
REMARK    3  A    between atoms: C7_10  and  C9_13 
REMARK    4  A    between atoms: C8_11  and  O4_12 
REMARK    5  A    between atoms: C16_20  and  O5_21 
ROOT
HETATM    1  O1  UNL     1      27.642   2.513  54.068  1.00  0.00    -0.290 OA
HETATM    2  C1  UNL     1      27.488   1.262  53.791  1.00  0.00     0.188 C 
HETATM    3  C2  UNL     1      27.857  -0.187  53.356  1.00  0.00     0.252 C 
HETATM    4  O2  UNL     1      26.728  -0.535  52.517  1.00  0.00    -0.371 OA
HETATM    5  C3  UNL     1      25.612  -0.862  53.280  1.00  0.00     0.182 C 
HETATM    6  C4  UNL     1      24.260  -0.409  52.825  1.00  0.00     0.069 C 
HETATM    7  C5  UNL     1      23.848   0.952  53.426  1.00  0.00     0.014 C 
HETATM    8  C6  UNL     1      24.958   1.717  53.289  1.00  0.00     0.089 C 
HETATM    9  C15 UNL     1      26.034   0.910  54.006  1.00  0.00     0.077 C 
HETATM   10  C16 UNL     1      25.774  -0.277  54.637  1.00  0.00     0.089 C 
ENDROOT
BRANCH   8  11
HETATM   11  O3  UNL     1      25.292   2.944  52.713  1.00  0.00    -0.307 OA
BRANCH  11  12
HETATM   12  C7  UNL     1      24.917   3.095  51.382  1.00  0.00     0.107 C 
HETATM   13  C8  UNL     1      25.948   3.243  50.572  1.00  0.00     0.169 C 
BRANCH  13  14
HETATM   14  O4  UNL     1      27.216   3.231  51.115  1.00  0.00    -0.370 OA
HETATM   15  H8  UNL     1      27.414   3.671  52.013  1.00  0.00     0.216 HD
ENDBRANCH  13  14
BRANCH  12  16
HETATM   16  C9  UNL     1      23.533   3.089  50.943  1.00  0.00    -0.000 A 
HETATM   17  C10 UNL     1      23.153   2.176  49.994  1.00  0.00     0.014 A 
HETATM   18  C11 UNL     1      21.853   2.125  49.540  1.00  0.00     0.001 A 
HETATM   19  C12 UNL     1      20.962   3.040  50.093  1.00  0.00     0.000 A 
HETATM   20  C13 UNL     1      21.349   3.969  51.060  1.00  0.00     0.001 A 
HETATM   21  C14 UNL     1      22.670   3.998  51.500  1.00  0.00     0.014 A 
ENDBRANCH  12  16
ENDBRANCH  11  12
ENDBRANCH   8  11
BRANCH  10  22
HETATM   22  O5  UNL     1      25.611  -1.079  55.751  1.00  0.00    -0.361 OA
HETATM   23  H14 UNL     1      24.899  -0.995  56.453  1.00  0.00     0.217 HD
ENDBRANCH  10  22
TORSDOF 5
ENDMDL
MODEL 6
REMARK VINA RESULT:      -6.9      1.540      2.308
REMARK  5 active torsions:
REMARK  status: ('A' for Active; 'I' for Inactive)
REMARK    1  A    between atoms: C6_8  and  O3_9 
REMARK    2  A    between atoms: O3_9  and  C7_10 
REMARK    3  A    between atoms: C7_10  and  C9_13 
REMARK    4  A    between atoms: C8_11  and  O4_12 
REMARK    5  A    between atoms: C16_20  and  O5_21 
ROOT
HETATM    1  O1  UNL     1      24.585  -1.379  55.038  1.00  0.00    -0.290 OA
HETATM    2  C1  UNL     1      25.482  -0.499  54.745  1.00  0.00     0.188 C 
HETATM    3  C2  UNL     1      26.752   0.389  54.897  1.00  0.00     0.252 C 
HETATM    4  O2  UNL     1      26.277   1.664  54.401  1.00  0.00    -0.371 OA
HETATM    5  C3  UNL     1      26.221   1.678  53.011  1.00  0.00     0.182 C 
HETATM    6  C4  UNL     1      25.071   2.359  52.335  1.00  0.00     0.069 C 
HETATM    7  C5  UNL     1      23.900   1.401  52.032  1.00  0.00     0.014 C 
HETATM    8  C6  UNL     1      23.755   0.692  53.178  1.00  0.00     0.089 C 
HETATM    9  C15 UNL     1      25.138   0.089  53.396  1.00  0.00     0.077 C 
HETATM   10  C16 UNL     1      26.174   0.275  52.522  1.00  0.00     0.089 C 
ENDROOT
BRANCH   8  11
HETATM   11  O3  UNL     1      22.735   0.415  54.089  1.00  0.00    -0.307 OA
BRANCH  11  12
HETATM   12  C7  UNL     1      21.527   0.020  53.524  1.00  0.00     0.107 C 
HETATM   13  C8  UNL     1      21.081  -1.122  54.012  1.00  0.00     0.169 C 
BRANCH  13  14
HETATM   14  O4  UNL     1      21.830  -1.760  54.979  1.00  0.00    -0.370 OA
HETATM   15  H8  UNL     1      22.842  -1.648  55.026  1.00  0.00     0.216 HD
ENDBRANCH  13  14
BRANCH  12  16
HETATM   16  C9  UNL     1      20.838   0.792  52.505  1.00  0.00    -0.000 A 
HETATM   17  C10 UNL     1      20.422   2.060  52.817  1.00  0.00     0.014 A 
HETATM   18  C11 UNL     1      19.764   2.838  51.889  1.00  0.00     0.001 A 
HETATM   19  C12 UNL     1      19.551   2.271  50.636  1.00  0.00     0.000 A 
HETATM   20  C13 UNL     1      19.976   0.979  50.319  1.00  0.00     0.001 A 
HETATM   21  C14 UNL     1      20.638   0.216  51.276  1.00  0.00     0.014 A 
ENDBRANCH  12  16
ENDBRANCH  11  12
ENDBRANCH   8  11
BRANCH  10  22
HETATM   22  O5  UNL     1      27.067  -0.139  51.550  1.00  0.00    -0.361 OA
HETATM   23  H14 UNL     1      27.466   0.423  50.822  1.00  0.00     0.217 HD
ENDBRANCH  10  22
TORSDOF 5
ENDMDL
MODEL 7
REMARK VINA RESULT:      -6.9      2.594      6.186
REMARK  5 active torsions:
REMARK  status: ('A' for Active; 'I' for Inactive)
REMARK    1  A    between atoms: C6_8  and  O3_9 
REMARK    2  A    between atoms: O3_9  and  C7_10 
REMARK    3  A    between atoms: C7_10  and  C9_13 
REMARK    4  A    between atoms: C8_11  and  O4_12 
REMARK    5  A    between atoms: C16_20  and  O5_21 
ROOT
HETATM    1  O1  UNL     1      21.811   2.868  49.857  1.00  0.00    -0.290 OA
HETATM    2  C1  UNL     1      20.965   2.735  50.824  1.00  0.00     0.188 C 
HETATM    3  C2  UNL     1      19.820   3.099  51.815  1.00  0.00     0.252 C 
HETATM    4  O2  UNL     1      20.331   2.562  53.059  1.00  0.00    -0.371 OA
HETATM    5  C3  UNL     1      20.177   1.181  53.116  1.00  0.00     0.182 C 
HETATM    6  C4  UNL     1      21.269   0.349  53.715  1.00  0.00     0.069 C 
HETATM    7  C5  UNL     1      22.287  -0.150  52.669  1.00  0.00     0.014 C 
HETATM    8  C6  UNL     1      22.538   0.945  51.910  1.00  0.00     0.089 C 
HETATM    9  C15 UNL     1      21.154   1.361  51.425  1.00  0.00     0.077 C 
HETATM   10  C16 UNL     1      20.019   0.661  51.732  1.00  0.00     0.089 C 
ENDROOT
BRANCH   8  11
HETATM   11  O3  UNL     1      23.654   1.682  51.513  1.00  0.00    -0.307 OA
BRANCH  11  12
HETATM   12  C7  UNL     1      24.541   2.011  52.532  1.00  0.00     0.107 C 
HETATM   13  C8  UNL     1      24.294   3.191  53.067  1.00  0.00     0.169 C 
BRANCH  13  14
HETATM   14  O4  UNL     1      23.235   3.925  52.576  1.00  0.00    -0.370 OA
HETATM   15  H8  UNL     1      22.636   4.472  53.193  1.00  0.00     0.216 HD
ENDBRANCH  13  14
BRANCH  12  16
HETATM   16  C9  UNL     1      25.622   1.138  52.953  1.00  0.00    -0.000 A 
HETATM   17  C10 UNL     1      26.138   0.251  52.043  1.00  0.00     0.014 A 
HETATM   18  C11 UNL     1      27.165  -0.601  52.388  1.00  0.00     0.001 A 
HETATM   19  C12 UNL     1      27.641  -0.510  53.693  1.00  0.00     0.000 A 
HETATM   20  C13 UNL     1      27.115   0.393  54.619  1.00  0.00     0.001 A 
HETATM   21  C14 UNL     1      26.078   1.242  54.243  1.00  0.00     0.014 A 
ENDBRANCH  12  16
ENDBRANCH  11  12
ENDBRANCH   8  11
BRANCH  10  22
HETATM   22  O5  UNL     1      18.955  -0.170  51.432  1.00  0.00    -0.361 OA
HETATM   23  H14 UNL     1      18.244  -0.487  52.064  1.00  0.00     0.217 HD
ENDBRANCH  10  22
TORSDOF 5
ENDMDL
MODEL 8
REMARK VINA RESULT:      -6.8      2.339      5.210
REMARK  5 active torsions:
REMARK  status: ('A' for Active; 'I' for Inactive)
REMARK    1  A    between atoms: C6_8  and  O3_9 
REMARK    2  A    between atoms: O3_9  and  C7_10 
REMARK    3  A    between atoms: C7_10  and  C9_13 
REMARK    4  A    between atoms: C8_11  and  O4_12 
REMARK    5  A    between atoms: C16_20  and  O5_21 
ROOT
HETATM    1  O1  UNL     1      24.507   2.922  53.351  1.00  0.00    -0.290 OA
HETATM    2  C1  UNL     1      23.517   3.273  52.599  1.00  0.00     0.188 C 
HETATM    3  C2  UNL     1      22.454   4.194  51.932  1.00  0.00     0.252 C 
HETATM    4  O2  UNL     1      21.275   3.353  51.972  1.00  0.00    -0.371 OA
HETATM    5  C3  UNL     1      21.312   2.381  50.977  1.00  0.00     0.182 C 
HETATM    6  C4  UNL     1      20.823   1.001  51.288  1.00  0.00     0.069 C 
HETATM    7  C5  UNL     1      21.946   0.060  51.773  1.00  0.00     0.014 C 
HETATM    8  C6  UNL     1      22.633   0.809  52.670  1.00  0.00     0.089 C 
HETATM    9  C15 UNL     1      23.026   2.045  51.868  1.00  0.00     0.077 C 
HETATM   10  C16 UNL     1      22.722   2.197  50.543  1.00  0.00     0.089 C 
ENDROOT
BRANCH   8  11
HETATM   11  O3  UNL     1      23.024   0.705  54.005  1.00  0.00    -0.307 OA
BRANCH  11  12
HETATM   12  C7  UNL     1      23.853  -0.372  54.298  1.00  0.00     0.107 C 
HETATM   13  C8  UNL     1      23.223  -1.353  54.914  1.00  0.00     0.169 C 
BRANCH  13  14
HETATM   14  O4  UNL     1      21.879  -1.204  55.182  1.00  0.00    -0.370 OA
HETATM   15  H8  UNL     1      21.443  -0.282  55.218  1.00  0.00     0.216 HD
ENDBRANCH  13  14
BRANCH  12  16
HETATM   16  C9  UNL     1      25.265  -0.400  53.957  1.00  0.00    -0.000 A 
HETATM   17  C10 UNL     1      26.160   0.151  54.836  1.00  0.00     0.014 A 
HETATM   18  C11 UNL     1      27.511   0.152  54.565  1.00  0.00     0.001 A 
HETATM   19  C12 UNL     1      27.908  -0.430  53.364  1.00  0.00     0.000 A 
HETATM   20  C13 UNL     1      26.995  -0.991  52.469  1.00  0.00     0.001 A 
HETATM   21  C14 UNL     1      25.636  -0.978  52.770  1.00  0.00     0.014 A 
ENDBRANCH  12  16
ENDBRANCH  11  12
ENDBRANCH   8  11
BRANCH  10  22
HETATM   22  O5  UNL     1      23.036   2.255  49.197  1.00  0.00    -0.361 OA
HETATM   23  H14 UNL     1      22.788   2.983  48.554  1.00  0.00     0.217 HD
ENDBRANCH  10  22
TORSDOF 5
ENDMDL
MODEL 9
REMARK VINA RESULT:      -6.7      3.574      5.296
REMARK  5 active torsions:
REMARK  status: ('A' for Active; 'I' for Inactive)
REMARK    1  A    between atoms: C6_8  and  O3_9 
REMARK    2  A    between atoms: O3_9  and  C7_10 
REMARK    3  A    between atoms: C7_10  and  C9_13 
REMARK    4  A    between atoms: C8_11  and  O4_12 
REMARK    5  A    between atoms: C16_20  and  O5_21 
ROOT
HETATM    1  O1  UNL     1      20.513   5.103  51.120  1.00  0.00    -0.290 OA
HETATM    2  C1  UNL     1      21.622   5.333  50.500  1.00  0.00     0.188 C 
HETATM    3  C2  UNL     1      22.585   5.754  49.352  1.00  0.00     0.252 C 
HETATM    4  O2  UNL     1      23.602   4.727  49.433  1.00  0.00    -0.371 OA
HETATM    5  C3  UNL     1      24.477   4.961  50.489  1.00  0.00     0.182 C 
HETATM    6  C4  UNL     1      24.963   3.804  51.305  1.00  0.00     0.069 C 
HETATM    7  C5  UNL     1      24.083   3.530  52.542  1.00  0.00     0.014 C 
HETATM    8  C6  UNL     1      22.816   3.606  52.065  1.00  0.00     0.089 C 
HETATM    9  C15 UNL     1      22.760   4.993  51.434  1.00  0.00     0.077 C 
HETATM   10  C16 UNL     1      23.814   5.865  51.465  1.00  0.00     0.089 C 
ENDROOT
BRANCH   8  11
HETATM   11  O3  UNL     1      21.683   2.793  52.037  1.00  0.00    -0.307 OA
BRANCH  11  12
HETATM   12  C7  UNL     1      21.928   1.439  51.837  1.00  0.00     0.107 C 
HETATM   13  C8  UNL     1      21.921   1.099  50.562  1.00  0.00     0.169 C 
BRANCH  13  14
HETATM   14  O4  UNL     1      21.681   2.079  49.622  1.00  0.00    -0.370 OA
HETATM   15  H8  UNL     1      21.290   2.983  49.886  1.00  0.00     0.216 HD
ENDBRANCH  13  14
BRANCH  12  16
HETATM   16  C9  UNL     1      22.167   0.508  52.925  1.00  0.00    -0.000 A 
HETATM   17  C10 UNL     1      21.107   0.138  53.712  1.00  0.00     0.014 A 
HETATM   18  C11 UNL     1      21.274  -0.742  54.759  1.00  0.00     0.001 A 
HETATM   19  C12 UNL     1      22.563  -1.228  54.967  1.00  0.00     0.000 A 
HETATM   20  C13 UNL     1      23.641  -0.852  54.164  1.00  0.00     0.001 A 
HETATM   21  C14 UNL     1      23.442   0.040  53.114  1.00  0.00     0.014 A 
ENDBRANCH  12  16
ENDBRANCH  11  12
ENDBRANCH   8  11
BRANCH  10  22
HETATM   22  O5  UNL     1      24.468   7.005  51.896  1.00  0.00    -0.361 OA
HETATM   23  H14 UNL     1      24.626   7.284  52.846  1.00  0.00     0.217 HD
ENDBRANCH  10  22
TORSDOF 5
ENDMDL
