MODEL 1
REMARK VINA RESULT:      -8.3      0.000      0.000
REMARK  3 active torsions:
REMARK  status: ('A' for Active; 'I' for Inactive)
REMARK    1  A    between atoms: C2_2  and  C3_3 
REMARK       I    between atoms: C3_3  and  N1_5 
REMARK    2  A    between atoms: C7_9  and  C8_10 
REMARK    3  A    between atoms: C17_21  and  N3_22 
ROOT
HETATM    1  C3  UNL     1      28.292   7.130  48.542  1.00  0.00     0.242 C 
HETATM    2  O1  UNL     1      29.115   6.165  48.509  1.00  0.00    -0.271 OA
HETATM    3  N1  UNL     1      26.983   6.581  48.627  1.00  0.00    -0.313 N 
HETATM    4  C4  UNL     1      26.865   5.159  48.655  1.00  0.00     0.167 C 
HETATM    5  C5  UNL     1      25.958   4.703  49.757  1.00  0.00    -0.030 A 
HETATM    6  C6  UNL     1      26.033   3.492  50.296  1.00  0.00     0.041 A 
HETATM    7  C7  UNL     1      25.134   3.080  51.367  1.00  0.00     0.062 A 
HETATM    8  N2  UNL     1      24.232   3.861  51.840  1.00  0.00    -0.284 NA
HETATM    9  C14 UNL     1      23.998   5.212  51.382  1.00  0.00     0.188 A 
HETATM   10  C15 UNL     1      24.934   5.587  50.294  1.00  0.00    -0.030 A 
HETATM   11  C16 UNL     1      24.837   6.796  49.777  1.00  0.00     0.038 C 
HETATM   12  C17 UNL     1      25.711   7.289  48.689  1.00  0.00     0.346 C 
ENDROOT
BRANCH   1  13
HETATM   13  C2  UNL     1      28.689   8.546  48.498  1.00  0.00     0.107 C 
HETATM   14  C1  UNL     1      28.046   9.265  49.665  1.00  0.00     0.039 C 
HETATM   15  C18 UNL     1      28.254   9.241  47.234  1.00  0.00     0.037 C 
HETATM   16  C19 UNL     1      29.364   9.395  46.224  1.00  0.00     0.049 C 
HETATM   17  C20 UNL     1      30.497  10.210  46.693  1.00  0.00     0.098 C 
HETATM   18  N4  UNL     1      31.104   9.981  47.805  1.00  0.00    -0.231 NA
HETATM   19  S1  UNL     1      30.483   8.614  48.730  1.00  0.00    -0.011 SA
ENDBRANCH   1  13
BRANCH  12  20
HETATM   20  N3  UNL     1      25.000   7.130  47.434  1.00  0.00     0.105 N 
HETATM   21  H15 UNL     1      24.198   7.792  47.353  1.00  0.00     0.315 HD
HETATM   22  H16 UNL     1      24.700   6.143  47.299  1.00  0.00     0.315 HD
ENDBRANCH  12  20
BRANCH   7  23
HETATM   23  C8  UNL     1      25.221   1.749  51.956  1.00  0.00    -0.006 A 
HETATM   24  C9  UNL     1      26.360   0.998  51.803  1.00  0.00     0.014 A 
HETATM   25  C10 UNL     1      26.519  -0.264  52.327  1.00  0.00     0.002 A 
HETATM   26  C11 UNL     1      25.489  -0.822  53.051  1.00  0.00     0.019 A 
HETATM   27  C12 UNL     1      24.327  -0.105  53.230  1.00  0.00     0.011 A 
HETATM   28 BR1  UNL     1      22.865  -0.835  54.227  1.00  0.00    -0.051 Br
HETATM   29  C13 UNL     1      24.218   1.150  52.686  1.00  0.00     0.032 A 
ENDBRANCH   7  23
TORSDOF 3
ENDMDL
MODEL 2
REMARK VINA RESULT:      -8.3      4.791      8.706
REMARK  3 active torsions:
REMARK  status: ('A' for Active; 'I' for Inactive)
REMARK    1  A    between atoms: C2_2  and  C3_3 
REMARK       I    between atoms: C3_3  and  N1_5 
REMARK    2  A    between atoms: C7_9  and  C8_10 
REMARK    3  A    between atoms: C17_21  and  N3_22 
ROOT
HETATM    1  C3  UNL     1      26.085   1.364  53.754  1.00  0.00     0.242 C 
HETATM    2  O1  UNL     1      26.750   2.437  53.873  1.00  0.00    -0.271 OA
HETATM    3  N1  UNL     1      24.846   1.688  53.136  1.00  0.00    -0.313 N 
HETATM    4  C4  UNL     1      24.616   3.057  52.798  1.00  0.00     0.167 C 
HETATM    5  C5  UNL     1      24.119   3.200  51.391  1.00  0.00    -0.030 A 
HETATM    6  C6  UNL     1      24.270   4.315  50.687  1.00  0.00     0.041 A 
HETATM    7  C7  UNL     1      23.774   4.423  49.320  1.00  0.00     0.062 A 
HETATM    8  N2  UNL     1      23.172   3.452  48.733  1.00  0.00    -0.284 NA
HETATM    9  C14 UNL     1      22.916   2.164  49.337  1.00  0.00     0.188 A 
HETATM   10  C15 UNL     1      23.437   2.101  50.725  1.00  0.00    -0.030 A 
HETATM   11  C16 UNL     1      23.275   0.982  51.402  1.00  0.00     0.038 C 
HETATM   12  C17 UNL     1      23.748   0.794  52.791  1.00  0.00     0.346 C 
ENDROOT
BRANCH   1  13
HETATM   13  C2  UNL     1      26.567   0.047  54.198  1.00  0.00     0.107 C 
HETATM   14  C1  UNL     1      25.618  -0.486  55.251  1.00  0.00     0.039 C 
HETATM   15  C18 UNL     1      27.945   0.097  54.804  1.00  0.00     0.037 C 
HETATM   16  C19 UNL     1      29.031  -0.357  53.861  1.00  0.00     0.049 C 
HETATM   17  C20 UNL     1      28.900  -1.755  53.418  1.00  0.00     0.098 C 
HETATM   18  N4  UNL     1      27.815  -2.223  52.908  1.00  0.00    -0.231 NA
HETATM   19  S1  UNL     1      26.491  -1.067  52.773  1.00  0.00    -0.011 SA
ENDBRANCH   1  13
BRANCH  12  20
HETATM   20  N3  UNL     1      22.628   1.027  53.684  1.00  0.00     0.105 N 
HETATM   21  H15 UNL     1      22.807   1.821  54.336  1.00  0.00     0.315 HD
HETATM   22  H16 UNL     1      22.375   0.157  54.197  1.00  0.00     0.315 HD
ENDBRANCH  12  20
BRANCH   7  23
HETATM   23  C8  UNL     1      23.942   5.649  48.550  1.00  0.00    -0.006 A 
HETATM   24  C9  UNL     1      22.929   6.102  47.741  1.00  0.00     0.014 A 
HETATM   25  C10 UNL     1      23.011   7.248  46.984  1.00  0.00     0.002 A 
HETATM   26  C11 UNL     1      24.165   7.999  47.029  1.00  0.00     0.019 A 
HETATM   27  C12 UNL     1      25.207   7.583  47.828  1.00  0.00     0.011 A 
HETATM   28 BR1  UNL     1      26.832   8.589  47.925  1.00  0.00    -0.051 Br
HETATM   29  C13 UNL     1      25.076   6.432  48.563  1.00  0.00     0.032 A 
ENDBRANCH   7  23
TORSDOF 3
ENDMDL
MODEL 3
REMARK VINA RESULT:      -8.1      4.436      6.367
REMARK  3 active torsions:
REMARK  status: ('A' for Active; 'I' for Inactive)
REMARK    1  A    between atoms: C2_2  and  C3_3 
REMARK       I    between atoms: C3_3  and  N1_5 
REMARK    2  A    between atoms: C7_9  and  C8_10 
REMARK    3  A    between atoms: C17_21  and  N3_22 
ROOT
HETATM    1  C3  UNL     1      22.930   5.384  50.200  1.00  0.00     0.242 C 
HETATM    2  O1  UNL     1      21.764   5.507  49.716  1.00  0.00    -0.271 OA
HETATM    3  N1  UNL     1      22.818   4.668  51.424  1.00  0.00    -0.313 N 
HETATM    4  C4  UNL     1      21.512   4.262  51.833  1.00  0.00     0.167 C 
HETATM    5  C5  UNL     1      21.486   2.819  52.239  1.00  0.00    -0.030 A 
HETATM    6  C6  UNL     1      20.381   2.084  52.207  1.00  0.00     0.041 A 
HETATM    7  C7  UNL     1      20.389   0.683  52.609  1.00  0.00     0.062 A 
HETATM    8  N2  UNL     1      21.457   0.093  53.010  1.00  0.00    -0.284 NA
HETATM    9  C14 UNL     1      22.752   0.728  53.112  1.00  0.00     0.188 A 
HETATM   10  C15 UNL     1      22.696   2.150  52.693  1.00  0.00    -0.030 A 
HETATM   11  C16 UNL     1      23.807   2.857  52.734  1.00  0.00     0.038 C 
HETATM   12  C17 UNL     1      23.881   4.282  52.343  1.00  0.00     0.346 C 
ENDROOT
BRANCH   1  13
HETATM   13  C2  UNL     1      24.144   5.911  49.557  1.00  0.00     0.107 C 
HETATM   14  C1  UNL     1      25.064   4.753  49.237  1.00  0.00     0.039 C 
HETATM   15  C18 UNL     1      24.902   6.874  50.431  1.00  0.00     0.037 C 
HETATM   16  C19 UNL     1      24.665   8.321  50.076  1.00  0.00     0.049 C 
HETATM   17  C20 UNL     1      25.089   8.685  48.714  1.00  0.00     0.098 C 
HETATM   18  N4  UNL     1      24.711   8.031  47.671  1.00  0.00    -0.231 NA
HETATM   19  S1  UNL     1      23.642   6.666  47.990  1.00  0.00    -0.011 SA
ENDBRANCH   1  13
BRANCH  12  20
HETATM   20  N3  UNL     1      23.799   5.085  53.550  1.00  0.00     0.105 N 
HETATM   21  H15 UNL     1      23.245   5.956  53.403  1.00  0.00     0.315 HD
HETATM   22  H16 UNL     1      24.748   5.291  53.923  1.00  0.00     0.315 HD
ENDBRANCH  12  20
BRANCH   7  23
HETATM   23  C8  UNL     1      19.174  -0.121  52.573  1.00  0.00    -0.006 A 
HETATM   24  C9  UNL     1      19.004  -1.160  53.454  1.00  0.00     0.014 A 
HETATM   25  C10 UNL     1      17.887  -1.963  53.483  1.00  0.00     0.002 A 
HETATM   26  C11 UNL     1      16.870  -1.726  52.585  1.00  0.00     0.019 A 
HETATM   27  C12 UNL     1      16.996  -0.694  51.682  1.00  0.00     0.011 A 
HETATM   28 BR1  UNL     1      15.612  -0.324  50.413  1.00  0.00    -0.051 Br
HETATM   29  C13 UNL     1      18.131   0.078  51.694  1.00  0.00     0.032 A 
ENDBRANCH   7  23
TORSDOF 3
ENDMDL
MODEL 4
REMARK VINA RESULT:      -8.1      5.482      8.169
REMARK  3 active torsions:
REMARK  status: ('A' for Active; 'I' for Inactive)
REMARK    1  A    between atoms: C2_2  and  C3_3 
REMARK       I    between atoms: C3_3  and  N1_5 
REMARK    2  A    between atoms: C7_9  and  C8_10 
REMARK    3  A    between atoms: C17_21  and  N3_22 
ROOT
HETATM    1  C3  UNL     1      20.585   2.619  51.480  1.00  0.00     0.242 C 
HETATM    2  O1  UNL     1      20.632   1.733  52.386  1.00  0.00    -0.271 OA
HETATM    3  N1  UNL     1      21.760   3.414  51.589  1.00  0.00    -0.313 N 
HETATM    4  C4  UNL     1      22.688   3.080  52.621  1.00  0.00     0.167 C 
HETATM    5  C5  UNL     1      24.090   3.006  52.097  1.00  0.00    -0.030 A 
HETATM    6  C6  UNL     1      25.040   2.290  52.686  1.00  0.00     0.041 A 
HETATM    7  C7  UNL     1      26.396   2.241  52.151  1.00  0.00     0.062 A 
HETATM    8  N2  UNL     1      26.736   2.881  51.092  1.00  0.00    -0.284 NA
HETATM    9  C14 UNL     1      25.843   3.712  50.316  1.00  0.00     0.188 A 
HETATM   10  C15 UNL     1      24.477   3.732  50.897  1.00  0.00    -0.030 A 
HETATM   11  C16 UNL     1      23.553   4.451  50.292  1.00  0.00     0.038 C 
HETATM   12  C17 UNL     1      22.157   4.553  50.772  1.00  0.00     0.346 C 
ENDROOT
BRANCH   1  13
HETATM   13  C2  UNL     1      19.481   2.748  50.516  1.00  0.00     0.107 C 
HETATM   14  C1  UNL     1      20.053   2.697  49.115  1.00  0.00     0.039 C 
HETATM   15  C18 UNL     1      18.724   4.042  50.656  1.00  0.00     0.037 C 
HETATM   16  C19 UNL     1      17.419   3.895  51.401  1.00  0.00     0.049 C 
HETATM   17  C20 UNL     1      16.451   2.998  50.750  1.00  0.00     0.098 C 
HETATM   18  N4  UNL     1      16.750   1.800  50.385  1.00  0.00    -0.231 NA
HETATM   19  S1  UNL     1      18.408   1.305  50.726  1.00  0.00    -0.011 SA
ENDBRANCH   1  13
BRANCH  12  20
HETATM   20  N3  UNL     1      22.034   5.776  51.544  1.00  0.00     0.105 N 
HETATM   21  H15 UNL     1      21.745   6.584  50.951  1.00  0.00     0.315 HD
HETATM   22  H16 UNL     1      22.912   5.975  52.065  1.00  0.00     0.315 HD
ENDBRANCH  12  20
BRANCH   7  23
HETATM   23  C8  UNL     1      27.435   1.453  52.801  1.00  0.00    -0.006 A 
HETATM   24  C9  UNL     1      28.371   2.064  53.599  1.00  0.00     0.014 A 
HETATM   25  C10 UNL     1      29.382   1.391  54.245  1.00  0.00     0.002 A 
HETATM   26  C11 UNL     1      29.477   0.025  54.097  1.00  0.00     0.019 A 
HETATM   27  C12 UNL     1      28.560  -0.631  53.307  1.00  0.00     0.011 A 
HETATM   28 BR1  UNL     1      28.648  -2.529  53.068  1.00  0.00    -0.051 Br
HETATM   29  C13 UNL     1      27.570   0.086  52.683  1.00  0.00     0.032 A 
ENDBRANCH   7  23
TORSDOF 3
ENDMDL
MODEL 5
REMARK VINA RESULT:      -8.0      1.660      2.087
REMARK  3 active torsions:
REMARK  status: ('A' for Active; 'I' for Inactive)
REMARK    1  A    between atoms: C2_2  and  C3_3 
REMARK       I    between atoms: C3_3  and  N1_5 
REMARK    2  A    between atoms: C7_9  and  C8_10 
REMARK    3  A    between atoms: C17_21  and  N3_22 
ROOT
HETATM    1  C3  UNL     1      29.567   6.633  48.439  1.00  0.00     0.242 C 
HETATM    2  O1  UNL     1      30.015   5.451  48.535  1.00  0.00    -0.271 OA
HETATM    3  N1  UNL     1      28.149   6.556  48.365  1.00  0.00    -0.313 N 
HETATM    4  C4  UNL     1      27.557   5.257  48.409  1.00  0.00     0.167 C 
HETATM    5  C5  UNL     1      26.429   5.200  49.393  1.00  0.00    -0.030 A 
HETATM    6  C6  UNL     1      26.030   4.070  49.963  1.00  0.00     0.041 A 
HETATM    7  C7  UNL     1      24.928   4.048  50.917  1.00  0.00     0.062 A 
HETATM    8  N2  UNL     1      24.292   5.113  51.252  1.00  0.00    -0.284 NA
HETATM    9  C14 UNL     1      24.581   6.433  50.738  1.00  0.00     0.188 A 
HETATM   10  C15 UNL     1      25.708   6.406  49.773  1.00  0.00    -0.030 A 
HETATM   11  C16 UNL     1      26.084   7.543  49.221  1.00  0.00     0.038 C 
HETATM   12  C17 UNL     1      27.191   7.647  48.246  1.00  0.00     0.346 C 
ENDROOT
BRANCH   1  13
HETATM   13  C2  UNL     1      30.420   7.833  48.415  1.00  0.00     0.107 C 
HETATM   14  C1  UNL     1      29.790   8.891  49.297  1.00  0.00     0.039 C 
HETATM   15  C18 UNL     1      30.576   8.417  47.037  1.00  0.00     0.037 C 
HETATM   16  C19 UNL     1      31.888   8.060  46.380  1.00  0.00     0.049 C 
HETATM   17  C20 UNL     1      33.075   8.549  47.099  1.00  0.00     0.098 C 
HETATM   18  N4  UNL     1      33.271   8.324  48.352  1.00  0.00    -0.231 NA
HETATM   19  S1  UNL     1      32.012   7.381  49.148  1.00  0.00    -0.011 SA
ENDBRANCH   1  13
BRANCH  12  20
HETATM   20  N3  UNL     1      26.618   7.653  46.912  1.00  0.00     0.105 N 
HETATM   21  H15 UNL     1      27.073   6.951  46.289  1.00  0.00     0.315 HD
HETATM   22  H16 UNL     1      26.645   8.608  46.501  1.00  0.00     0.315 HD
ENDBRANCH  12  20
BRANCH   7  23
HETATM   23  C8  UNL     1      24.493   2.805  51.542  1.00  0.00    -0.006 A 
HETATM   24  C9  UNL     1      23.165   2.598  51.822  1.00  0.00     0.014 A 
HETATM   25  C10 UNL     1      22.677   1.453  52.409  1.00  0.00     0.002 A 
HETATM   26  C11 UNL     1      23.555   0.445  52.741  1.00  0.00     0.019 A 
HETATM   27  C12 UNL     1      24.897   0.609  52.478  1.00  0.00     0.011 A 
HETATM   28 BR1  UNL     1      26.159  -0.761  52.920  1.00  0.00    -0.051 Br
HETATM   29  C13 UNL     1      25.334   1.770  51.891  1.00  0.00     0.032 A 
ENDBRANCH   7  23
TORSDOF 3
ENDMDL
MODEL 6
REMARK VINA RESULT:      -7.9      3.934      5.187
REMARK  3 active torsions:
REMARK  status: ('A' for Active; 'I' for Inactive)
REMARK    1  A    between atoms: C2_2  and  C3_3 
REMARK       I    between atoms: C3_3  and  N1_5 
REMARK    2  A    between atoms: C7_9  and  C8_10 
REMARK    3  A    between atoms: C17_21  and  N3_22 
ROOT
HETATM    1  C3  UNL     1      21.707   6.715  49.634  1.00  0.00     0.242 C 
HETATM    2  O1  UNL     1      20.514   6.427  49.955  1.00  0.00    -0.271 OA
HETATM    3  N1  UNL     1      22.571   6.114  50.590  1.00  0.00    -0.313 N 
HETATM    4  C4  UNL     1      21.967   5.362  51.643  1.00  0.00     0.167 C 
HETATM    5  C5  UNL     1      22.623   4.025  51.811  1.00  0.00    -0.030 A 
HETATM    6  C6  UNL     1      22.004   2.984  52.354  1.00  0.00     0.041 A 
HETATM    7  C7  UNL     1      22.672   1.697  52.504  1.00  0.00     0.062 A 
HETATM    8  N2  UNL     1      23.882   1.506  52.120  1.00  0.00    -0.284 NA
HETATM    9  C14 UNL     1      24.715   2.517  51.508  1.00  0.00     0.188 A 
HETATM   10  C15 UNL     1      23.995   3.807  51.376  1.00  0.00    -0.030 A 
HETATM   11  C16 UNL     1      24.633   4.825  50.833  1.00  0.00     0.038 C 
HETATM   12  C17 UNL     1      24.026   6.161  50.646  1.00  0.00     0.346 C 
ENDROOT
BRANCH   1  13
HETATM   13  C2  UNL     1      22.066   7.533  48.464  1.00  0.00     0.107 C 
HETATM   14  C1  UNL     1      20.795   7.934  47.746  1.00  0.00     0.039 C 
HETATM   15  C18 UNL     1      22.939   6.801  47.479  1.00  0.00     0.037 C 
HETATM   16  C19 UNL     1      24.399   7.169  47.584  1.00  0.00     0.049 C 
HETATM   17  C20 UNL     1      24.684   8.588  47.309  1.00  0.00     0.098 C 
HETATM   18  N4  UNL     1      24.066   9.548  47.905  1.00  0.00    -0.231 NA
HETATM   19  S1  UNL     1      22.852   9.043  49.080  1.00  0.00    -0.011 SA
ENDBRANCH   1  13
BRANCH  12  20
HETATM   20  N3  UNL     1      24.446   7.005  51.750  1.00  0.00     0.105 N 
HETATM   21  H15 UNL     1      23.758   6.995  52.534  1.00  0.00     0.315 HD
HETATM   22  H16 UNL     1      24.643   7.972  51.423  1.00  0.00     0.315 HD
ENDBRANCH  12  20
BRANCH   7  23
HETATM   23  C8  UNL     1      21.988   0.556  53.101  1.00  0.00    -0.006 A 
HETATM   24  C9  UNL     1      22.673  -0.316  53.911  1.00  0.00     0.014 A 
HETATM   25  C10 UNL     1      22.100  -1.414  54.510  1.00  0.00     0.002 A 
HETATM   26  C11 UNL     1      20.763  -1.668  54.300  1.00  0.00     0.019 A 
HETATM   27  C12 UNL     1      20.035  -0.820  53.496  1.00  0.00     0.011 A 
HETATM   28 BR1  UNL     1      18.174  -1.129  53.171  1.00  0.00    -0.051 Br
HETATM   29  C13 UNL     1      20.654   0.261  52.920  1.00  0.00     0.032 A 
ENDBRANCH   7  23
TORSDOF 3
ENDMDL
MODEL 7
REMARK VINA RESULT:      -7.8      3.945      5.550
REMARK  3 active torsions:
REMARK  status: ('A' for Active; 'I' for Inactive)
REMARK    1  A    between atoms: C2_2  and  C3_3 
REMARK       I    between atoms: C3_3  and  N1_5 
REMARK    2  A    between atoms: C7_9  and  C8_10 
REMARK    3  A    between atoms: C17_21  and  N3_22 
ROOT
HETATM    1  C3  UNL     1      21.758   7.189  49.725  1.00  0.00     0.242 C 
HETATM    2  O1  UNL     1      20.997   6.537  50.503  1.00  0.00    -0.271 OA
HETATM    3  N1  UNL     1      23.101   6.925  50.110  1.00  0.00    -0.313 N 
HETATM    4  C4  UNL     1      23.309   6.044  51.215  1.00  0.00     0.167 C 
HETATM    5  C5  UNL     1      24.335   4.998  50.899  1.00  0.00    -0.030 A 
HETATM    6  C6  UNL     1      24.380   3.827  51.521  1.00  0.00     0.041 A 
HETATM    7  C7  UNL     1      25.392   2.830  51.190  1.00  0.00     0.062 A 
HETATM    8  N2  UNL     1      26.282   3.033  50.287  1.00  0.00    -0.284 NA
HETATM    9  C14 UNL     1      26.391   4.244  49.505  1.00  0.00     0.188 A 
HETATM   10  C15 UNL     1      25.344   5.227  49.875  1.00  0.00    -0.030 A 
HETATM   11  C16 UNL     1      25.320   6.383  49.242  1.00  0.00     0.038 C 
HETATM   12  C17 UNL     1      24.328   7.444  49.519  1.00  0.00     0.346 C 
ENDROOT
BRANCH   1  13
HETATM   13  C2  UNL     1      21.272   8.050  48.635  1.00  0.00     0.107 C 
HETATM   14  C1  UNL     1      21.890   7.578  47.335  1.00  0.00     0.039 C 
HETATM   15  C18 UNL     1      21.639   9.498  48.819  1.00  0.00     0.037 C 
HETATM   16  C19 UNL     1      20.503  10.341  49.345  1.00  0.00     0.049 C 
HETATM   17  C20 UNL     1      19.329  10.393  48.458  1.00  0.00     0.098 C 
HETATM   18  N4  UNL     1      18.758   9.334  47.999  1.00  0.00    -0.231 NA
HETATM   19  S1  UNL     1      19.482   7.810  48.513  1.00  0.00    -0.011 SA
ENDBRANCH   1  13
BRANCH  12  20
HETATM   20  N3  UNL     1      24.937   8.406  50.420  1.00  0.00     0.105 N 
HETATM   21  H15 UNL     1      25.622   9.021  49.930  1.00  0.00     0.315 HD
HETATM   22  H16 UNL     1      25.366   7.928  51.238  1.00  0.00     0.315 HD
ENDBRANCH  12  20
BRANCH   7  23
HETATM   23  C8  UNL     1      25.438   1.544  51.876  1.00  0.00    -0.006 A 
HETATM   24  C9  UNL     1      26.577   0.778  51.835  1.00  0.00     0.014 A 
HETATM   25  C10 UNL     1      26.700  -0.444  52.455  1.00  0.00     0.002 A 
HETATM   26  C11 UNL     1      25.630  -0.944  53.164  1.00  0.00     0.019 A 
HETATM   27  C12 UNL     1      24.467  -0.210  53.233  1.00  0.00     0.011 A 
HETATM   28 BR1  UNL     1      22.950  -0.860  54.204  1.00  0.00    -0.051 Br
HETATM   29  C13 UNL     1      24.395   1.003  52.596  1.00  0.00     0.032 A 
ENDBRANCH   7  23
TORSDOF 3
ENDMDL
MODEL 8
REMARK VINA RESULT:      -7.7      6.005      7.267
REMARK  3 active torsions:
REMARK  status: ('A' for Active; 'I' for Inactive)
REMARK    1  A    between atoms: C2_2  and  C3_3 
REMARK       I    between atoms: C3_3  and  N1_5 
REMARK    2  A    between atoms: C7_9  and  C8_10 
REMARK    3  A    between atoms: C17_21  and  N3_22 
ROOT
HETATM    1  C3  UNL     1      27.631   9.646  46.895  1.00  0.00     0.242 C 
HETATM    2  O1  UNL     1      27.390   8.732  46.049  1.00  0.00    -0.271 OA
HETATM    3  N1  UNL     1      28.375   9.068  47.960  1.00  0.00    -0.313 N 
HETATM    4  C4  UNL     1      28.678   7.675  47.871  1.00  0.00     0.167 C 
HETATM    5  C5  UNL     1      30.125   7.408  48.154  1.00  0.00    -0.030 A 
HETATM    6  C6  UNL     1      30.758   6.333  47.701  1.00  0.00     0.041 A 
HETATM    7  C7  UNL     1      32.168   6.102  47.995  1.00  0.00     0.062 A 
HETATM    8  N2  UNL     1      32.862   6.921  48.700  1.00  0.00    -0.284 NA
HETATM    9  C14 UNL     1      32.348   8.142  49.278  1.00  0.00     0.188 A 
HETATM   10  C15 UNL     1      30.913   8.335  48.953  1.00  0.00    -0.030 A 
HETATM   11  C16 UNL     1      30.307   9.411  49.415  1.00  0.00     0.038 C 
HETATM   12  C17 UNL     1      28.882   9.716  49.162  1.00  0.00     0.346 C 
ENDROOT
BRANCH   1  13
HETATM   13  C2  UNL     1      27.191  11.042  46.740  1.00  0.00     0.107 C 
HETATM   14  C1  UNL     1      26.437  11.169  45.433  1.00  0.00     0.039 C 
HETATM   15  C18 UNL     1      28.335  12.020  46.708  1.00  0.00     0.037 C 
HETATM   16  C19 UNL     1      28.547  12.737  48.019  1.00  0.00     0.049 C 
HETATM   17  C20 UNL     1      27.403  13.558  48.450  1.00  0.00     0.098 C 
HETATM   18  N4  UNL     1      26.205  13.093  48.528  1.00  0.00    -0.231 NA
HETATM   19  S1  UNL     1      26.030  11.396  48.083  1.00  0.00    -0.011 SA
ENDBRANCH   1  13
BRANCH  12  20
HETATM   20  N3  UNL     1      28.116   9.279  50.315  1.00  0.00     0.105 N 
HETATM   21  H15 UNL     1      28.191   9.949  51.110  1.00  0.00     0.315 HD
HETATM   22  H16 UNL     1      28.387   8.315  50.597  1.00  0.00     0.315 HD
ENDBRANCH  12  20
BRANCH   7  23
HETATM   23  C8  UNL     1      32.860   4.921  47.495  1.00  0.00    -0.006 A 
HETATM   24  C9  UNL     1      34.184   4.993  47.137  1.00  0.00     0.014 A 
HETATM   25  C10 UNL     1      34.905   3.924  46.658  1.00  0.00     0.002 A 
HETATM   26  C11 UNL     1      34.283   2.703  46.524  1.00  0.00     0.019 A 
HETATM   27  C12 UNL     1      32.956   2.583  46.871  1.00  0.00     0.011 A 
HETATM   28 BR1  UNL     1      32.043   0.909  46.703  1.00  0.00    -0.051 Br
HETATM   29  C13 UNL     1      32.280   3.679  47.344  1.00  0.00     0.032 A 
ENDBRANCH   7  23
TORSDOF 3
ENDMDL
MODEL 9
REMARK VINA RESULT:      -7.6      5.292      8.345
REMARK  3 active torsions:
REMARK  status: ('A' for Active; 'I' for Inactive)
REMARK    1  A    between atoms: C2_2  and  C3_3 
REMARK       I    between atoms: C3_3  and  N1_5 
REMARK    2  A    between atoms: C7_9  and  C8_10 
REMARK    3  A    between atoms: C17_21  and  N3_22 
ROOT
HETATM    1  C3  UNL     1      25.789   1.997  51.827  1.00  0.00     0.242 C 
HETATM    2  O1  UNL     1      26.551   2.079  50.817  1.00  0.00    -0.271 OA
HETATM    3  N1  UNL     1      24.868   3.079  51.766  1.00  0.00    -0.313 N 
HETATM    4  C4  UNL     1      24.979   3.976  50.662  1.00  0.00     0.167 C 
HETATM    5  C5  UNL     1      23.648   4.224  50.018  1.00  0.00    -0.030 A 
HETATM    6  C6  UNL     1      23.522   4.610  48.755  1.00  0.00     0.041 A 
HETATM    7  C7  UNL     1      22.212   4.843  48.158  1.00  0.00     0.062 A 
HETATM    8  N2  UNL     1      21.123   4.686  48.820  1.00  0.00    -0.284 NA
HETATM    9  C14 UNL     1      21.059   4.272  50.204  1.00  0.00     0.188 A 
HETATM   10  C15 UNL     1      22.413   4.047  50.767  1.00  0.00    -0.030 A 
HETATM   11  C16 UNL     1      22.510   3.664  52.025  1.00  0.00     0.038 C 
HETATM   12  C17 UNL     1      23.800   3.408  52.701  1.00  0.00     0.346 C 
ENDROOT
BRANCH   1  13
HETATM   13  C2  UNL     1      25.892   0.940  52.847  1.00  0.00     0.107 C 
HETATM   14  C1  UNL     1      24.506   0.392  53.116  1.00  0.00     0.039 C 
HETATM   15  C18 UNL     1      26.453   1.435  54.153  1.00  0.00     0.037 C 
HETATM   16  C19 UNL     1      27.911   1.096  54.346  1.00  0.00     0.049 C 
HETATM   17  C20 UNL     1      28.196  -0.348  54.373  1.00  0.00     0.098 C 
HETATM   18  N4  UNL     1      27.798  -1.152  53.449  1.00  0.00    -0.231 NA
HETATM   19  S1  UNL     1      26.886  -0.398  52.142  1.00  0.00    -0.011 SA
ENDBRANCH   1  13
BRANCH  12  20
HETATM   20  N3  UNL     1      24.157   4.596  53.454  1.00  0.00     0.105 N 
HETATM   21  H15 UNL     1      24.216   4.406  54.478  1.00  0.00     0.315 HD
HETATM   22  H16 UNL     1      23.504   5.379  53.245  1.00  0.00     0.315 HD
ENDBRANCH  12  20
BRANCH   7  23
HETATM   23  C8  UNL     1      22.078   5.266  46.770  1.00  0.00    -0.006 A 
HETATM   24  C9  UNL     1      22.675   6.426  46.339  1.00  0.00     0.014 A 
HETATM   25  C10 UNL     1      22.595   6.892  45.048  1.00  0.00     0.002 A 
HETATM   26  C11 UNL     1      21.882   6.168  44.118  1.00  0.00     0.019 A 
HETATM   27  C12 UNL     1      21.267   4.998  44.505  1.00  0.00     0.011 A 
HETATM   28 BR1  UNL     1      20.263   3.955  43.252  1.00  0.00    -0.051 Br
HETATM   29  C13 UNL     1      21.376   4.576  45.806  1.00  0.00     0.032 A 
ENDBRANCH   7  23
TORSDOF 3
ENDMDL
