MODEL 1
REMARK VINA RESULT:      -7.7      0.000      0.000
REMARK  5 active torsions:
REMARK  status: ('A' for Active; 'I' for Inactive)
REMARK    1  A    between atoms: C3_3  and  C4_4 
REMARK       I    between atoms: C4_4  and  N1_6 
REMARK    2  A    between atoms: N1_6  and  C5_7 
REMARK    3  A    between atoms: N4_16  and  C12_17 
REMARK    4  A    between atoms: C19_26  and  O2_27 
REMARK    5  A    between atoms: O2_27  and  C20_28 
ROOT
HETATM    1  C5  UNL     1      22.002   1.631  52.716  1.00  0.00     0.167 A 
HETATM    2  C6  UNL     1      22.846   2.427  51.770  1.00  0.00     0.037 A 
HETATM    3  C7  UNL     1      24.136   2.297  51.573  1.00  0.00     0.068 A 
HETATM    4  C8  UNL     1      24.823   1.274  52.352  1.00  0.00     0.086 A 
HETATM    5  N2  UNL     1      26.092   1.142  52.162  1.00  0.00    -0.256 NA
HETATM    6  C9  UNL     1      26.775   1.983  51.213  1.00  0.00     0.159 A 
HETATM    7  C10 UNL     1      26.183   2.933  50.480  1.00  0.00     0.139 A 
HETATM    8  C11 UNL     1      26.897   3.751  49.545  1.00  0.00     0.119 C 
HETATM    9  N3  UNL     1      27.489   4.414  48.801  1.00  0.00    -0.190 NA
HETATM   10  N4  UNL     1      24.764   3.149  50.628  1.00  0.00    -0.300 N 
HETATM   11  C18 UNL     1      24.114   0.435  53.305  1.00  0.00     0.068 A 
HETATM   12  C19 UNL     1      22.811   0.626  53.449  1.00  0.00     0.075 A 
ENDROOT
BRANCH  10  13
HETATM   13  C12 UNL     1      24.087   4.137  49.879  1.00  0.00     0.042 A 
HETATM   14  C13 UNL     1      23.399   4.010  48.696  1.00  0.00     0.033 A 
HETATM   15  C14 UNL     1      22.799   5.111  48.120  1.00  0.00     0.046 A 
HETATM   16  C15 UNL     1      22.900   6.339  48.747  1.00  0.00     0.138 A 
HETATM   17  F1  UNL     1      22.312   7.422  48.180  1.00  0.00    -0.204 F 
HETATM   18  C16 UNL     1      23.580   6.519  49.936  1.00  0.00     0.074 A 
HETATM   19 CL1  UNL     1      23.676   8.097  50.686  1.00  0.00    -0.081 Cl
HETATM   20  C17 UNL     1      24.176   5.388  50.496  1.00  0.00     0.057 A 
ENDBRANCH  10  13
BRANCH   1  21
HETATM   21  N1  UNL     1      20.887   1.026  52.041  1.00  0.00    -0.344 N 
HETATM   22  C4  UNL     1      19.549   1.515  51.914  1.00  0.00     0.241 C 
HETATM   23  O1  UNL     1      19.583   2.625  52.546  1.00  0.00    -0.269 OA
HETATM   24  H6  UNL     1      21.287   0.133  51.661  1.00  0.00     0.163 HD
BRANCH  22  25
HETATM   25  C3  UNL     1      18.587   0.720  51.178  1.00  0.00     0.070 C 
HETATM   26  C2  UNL     1      17.671  -0.202  51.249  1.00  0.00    -0.026 C 
HETATM   27  C1  UNL     1      17.011  -1.068  52.248  1.00  0.00     0.036 C 
ENDBRANCH  22  25
ENDBRANCH   1  21
BRANCH  12  28
HETATM   28  O2  UNL     1      22.166  -0.179  54.354  1.00  0.00    -0.353 OA
BRANCH  28  29
HETATM   29  C20 UNL     1      21.836  -1.534  54.165  1.00  0.00     0.171 C 
HETATM   30  C21 UNL     1      20.354  -1.805  54.122  1.00  0.00     0.034 C 
ENDBRANCH  28  29
ENDBRANCH  12  28
TORSDOF 5
ENDMDL
MODEL 2
REMARK VINA RESULT:      -7.5      3.059      6.345
REMARK  5 active torsions:
REMARK  status: ('A' for Active; 'I' for Inactive)
REMARK    1  A    between atoms: C3_3  and  C4_4 
REMARK       I    between atoms: C4_4  and  N1_6 
REMARK    2  A    between atoms: N1_6  and  C5_7 
REMARK    3  A    between atoms: N4_16  and  C12_17 
REMARK    4  A    between atoms: C19_26  and  O2_27 
REMARK    5  A    between atoms: O2_27  and  C20_28 
ROOT
HETATM    1  C5  UNL     1      25.575   2.377  51.251  1.00  0.00     0.167 A 
HETATM    2  C6  UNL     1      24.172   1.869  51.376  1.00  0.00     0.037 A 
HETATM    3  C7  UNL     1      23.710   1.068  52.306  1.00  0.00     0.068 A 
HETATM    4  C8  UNL     1      24.654   0.625  53.325  1.00  0.00     0.086 A 
HETATM    5  N2  UNL     1      24.204  -0.162  54.242  1.00  0.00    -0.256 NA
HETATM    6  C9  UNL     1      22.823  -0.571  54.235  1.00  0.00     0.159 A 
HETATM    7  C10 UNL     1      21.925  -0.188  53.319  1.00  0.00     0.139 A 
HETATM    8  C11 UNL     1      20.558  -0.615  53.346  1.00  0.00     0.119 C 
HETATM    9  N3  UNL     1      19.458  -0.979  53.372  1.00  0.00    -0.190 NA
HETATM   10  N4  UNL     1      22.342   0.694  52.257  1.00  0.00    -0.300 N 
HETATM   11  C18 UNL     1      26.045   1.049  53.314  1.00  0.00     0.068 A 
HETATM   12  C19 UNL     1      26.438   1.858  52.341  1.00  0.00     0.075 A 
ENDROOT
BRANCH  10  13
HETATM   13  C12 UNL     1      21.437   1.131  51.264  1.00  0.00     0.042 A 
HETATM   14  C13 UNL     1      21.318   0.721  49.957  1.00  0.00     0.033 A 
HETATM   15  C14 UNL     1      20.356   1.278  49.140  1.00  0.00     0.046 A 
HETATM   16  C15 UNL     1      19.517   2.251  49.651  1.00  0.00     0.138 A 
HETATM   17  F1  UNL     1      18.573   2.799  48.847  1.00  0.00    -0.204 F 
HETATM   18  C16 UNL     1      19.597   2.697  50.957  1.00  0.00     0.074 A 
HETATM   19 CL1  UNL     1      18.509   3.931  51.551  1.00  0.00    -0.081 Cl
HETATM   20  C17 UNL     1      20.578   2.116  51.760  1.00  0.00     0.057 A 
ENDBRANCH  10  13
BRANCH   1  21
HETATM   21  N1  UNL     1      25.608   3.812  51.185  1.00  0.00    -0.344 N 
HETATM   22  C4  UNL     1      25.499   4.654  50.033  1.00  0.00     0.241 C 
HETATM   23  O1  UNL     1      25.364   3.820  49.074  1.00  0.00    -0.269 OA
HETATM   24  H6  UNL     1      25.732   4.101  52.186  1.00  0.00     0.163 HD
BRANCH  22  25
HETATM   25  C3  UNL     1      25.561   6.090  50.217  1.00  0.00     0.070 C 
HETATM   26  C2  UNL     1      24.894   7.170  50.506  1.00  0.00    -0.026 C 
HETATM   27  C1  UNL     1      23.522   7.594  50.852  1.00  0.00     0.036 C 
ENDBRANCH  22  25
ENDBRANCH   1  21
BRANCH  12  28
HETATM   28  O2  UNL     1      27.755   2.244  52.355  1.00  0.00    -0.353 OA
BRANCH  28  29
HETATM   29  C20 UNL     1      28.580   2.324  53.491  1.00  0.00     0.171 C 
HETATM   30  C21 UNL     1      29.410   1.091  53.737  1.00  0.00     0.034 C 
ENDBRANCH  28  29
ENDBRANCH  12  28
TORSDOF 5
ENDMDL
MODEL 3
REMARK VINA RESULT:      -7.4      1.676      2.458
REMARK  5 active torsions:
REMARK  status: ('A' for Active; 'I' for Inactive)
REMARK    1  A    between atoms: C3_3  and  C4_4 
REMARK       I    between atoms: C4_4  and  N1_6 
REMARK    2  A    between atoms: N1_6  and  C5_7 
REMARK    3  A    between atoms: N4_16  and  C12_17 
REMARK    4  A    between atoms: C19_26  and  O2_27 
REMARK    5  A    between atoms: O2_27  and  C20_28 
ROOT
HETATM    1  C5  UNL     1      20.024   0.839  52.426  1.00  0.00     0.167 A 
HETATM    2  C6  UNL     1      21.332   1.396  51.954  1.00  0.00     0.037 A 
HETATM    3  C7  UNL     1      22.527   1.019  52.341  1.00  0.00     0.068 A 
HETATM    4  C8  UNL     1      22.595  -0.050  53.330  1.00  0.00     0.086 A 
HETATM    5  N2  UNL     1      23.768  -0.424  53.713  1.00  0.00    -0.256 NA
HETATM    6  C9  UNL     1      24.945   0.206  53.169  1.00  0.00     0.159 A 
HETATM    7  C10 UNL     1      24.926   1.189  52.262  1.00  0.00     0.139 A 
HETATM    8  C11 UNL     1      26.118   1.791  51.744  1.00  0.00     0.119 C 
HETATM    9  N3  UNL     1      27.090   2.278  51.343  1.00  0.00    -0.190 NA
HETATM   10  N4  UNL     1      23.655   1.669  51.777  1.00  0.00    -0.300 N 
HETATM   11  C18 UNL     1      21.395  -0.673  53.866  1.00  0.00     0.068 A 
HETATM   12  C19 UNL     1      20.223  -0.238  53.427  1.00  0.00     0.075 A 
ENDROOT
BRANCH  10  13
HETATM   13  C12 UNL     1      23.576   2.704  50.819  1.00  0.00     0.042 A 
HETATM   14  C13 UNL     1      23.323   2.622  49.470  1.00  0.00     0.033 A 
HETATM   15  C14 UNL     1      23.286   3.766  48.700  1.00  0.00     0.046 A 
HETATM   16  C15 UNL     1      23.506   4.991  49.300  1.00  0.00     0.138 A 
HETATM   17  F1  UNL     1      23.471   6.115  48.543  1.00  0.00    -0.204 F 
HETATM   18  C16 UNL     1      23.764   5.127  50.651  1.00  0.00     0.074 A 
HETATM   19 CL1  UNL     1      24.035   6.704  51.359  1.00  0.00    -0.081 Cl
HETATM   20  C17 UNL     1      23.795   3.954  51.406  1.00  0.00     0.057 A 
ENDBRANCH  10  13
BRANCH   1  21
HETATM   21  N1  UNL     1      19.215   0.397  51.324  1.00  0.00    -0.344 N 
HETATM   22  C4  UNL     1      17.933   0.877  50.910  1.00  0.00     0.241 C 
HETATM   23  O1  UNL     1      17.678   1.798  51.759  1.00  0.00    -0.269 OA
HETATM   24  H6  UNL     1      19.789  -0.367  50.890  1.00  0.00     0.163 HD
BRANCH  22  25
HETATM   25  C3  UNL     1      17.305   0.268  49.755  1.00  0.00     0.070 C 
HETATM   26  C2  UNL     1      16.358  -0.520  49.331  1.00  0.00    -0.026 C 
HETATM   27  C1  UNL     1      15.251  -1.344  49.858  1.00  0.00     0.036 C 
ENDBRANCH  22  25
ENDBRANCH   1  21
BRANCH  12  28
HETATM   28  O2  UNL     1      19.107  -0.843  53.948  1.00  0.00    -0.353 OA
BRANCH  28  29
HETATM   29  C20 UNL     1      18.623  -2.118  53.606  1.00  0.00     0.171 C 
HETATM   30  C21 UNL     1      17.218  -2.118  53.062  1.00  0.00     0.034 C 
ENDBRANCH  28  29
ENDBRANCH  12  28
TORSDOF 5
ENDMDL
MODEL 4
REMARK VINA RESULT:      -7.3      5.492      8.547
REMARK  5 active torsions:
REMARK  status: ('A' for Active; 'I' for Inactive)
REMARK    1  A    between atoms: C3_3  and  C4_4 
REMARK       I    between atoms: C4_4  and  N1_6 
REMARK    2  A    between atoms: N1_6  and  C5_7 
REMARK    3  A    between atoms: N4_16  and  C12_17 
REMARK    4  A    between atoms: C19_26  and  O2_27 
REMARK    5  A    between atoms: O2_27  and  C20_28 
ROOT
HETATM    1  C5  UNL     1      26.964   5.058  48.807  1.00  0.00     0.167 A 
HETATM    2  C6  UNL     1      28.249   5.794  48.590  1.00  0.00     0.037 A 
HETATM    3  C7  UNL     1      28.383   7.073  48.329  1.00  0.00     0.068 A 
HETATM    4  C8  UNL     1      27.160   7.861  48.243  1.00  0.00     0.086 A 
HETATM    5  N2  UNL     1      27.286   9.119  47.988  1.00  0.00    -0.256 NA
HETATM    6  C9  UNL     1      28.594   9.694  47.800  1.00  0.00     0.159 A 
HETATM    7  C10 UNL     1      29.740   9.006  47.870  1.00  0.00     0.139 A 
HETATM    8  C11 UNL     1      31.023   9.613  47.678  1.00  0.00     0.119 C 
HETATM    9  N3  UNL     1      32.054  10.115  47.507  1.00  0.00    -0.190 NA
HETATM   10  N4  UNL     1      29.692   7.593  48.152  1.00  0.00    -0.300 N 
HETATM   11  C18 UNL     1      25.849   7.262  48.436  1.00  0.00     0.068 A 
HETATM   12  C19 UNL     1      25.794   5.964  48.695  1.00  0.00     0.075 A 
ENDROOT
BRANCH  10  13
HETATM   13  C12 UNL     1      30.870   6.818  48.238  1.00  0.00     0.042 A 
HETATM   14  C13 UNL     1      31.658   6.555  49.333  1.00  0.00     0.033 A 
HETATM   15  C14 UNL     1      32.781   5.763  49.206  1.00  0.00     0.046 A 
HETATM   16  C15 UNL     1      33.101   5.240  47.967  1.00  0.00     0.138 A 
HETATM   17  F1  UNL     1      34.205   4.462  47.842  1.00  0.00    -0.204 F 
HETATM   18  C16 UNL     1      32.341   5.474  46.837  1.00  0.00     0.074 A 
HETATM   19 CL1  UNL     1      32.792   4.786  45.292  1.00  0.00    -0.081 Cl
HETATM   20  C17 UNL     1      31.211   6.278  46.995  1.00  0.00     0.057 A 
ENDBRANCH  10  13
BRANCH   1  21
HETATM   21  N1  UNL     1      26.971   4.352  50.060  1.00  0.00    -0.344 N 
HETATM   22  C4  UNL     1      26.625   2.988  50.316  1.00  0.00     0.241 C 
HETATM   23  O1  UNL     1      26.308   2.545  49.160  1.00  0.00    -0.269 OA
HETATM   24  H6  UNL     1      27.291   5.078  50.748  1.00  0.00     0.163 HD
BRANCH  22  25
HETATM   25  C3  UNL     1      26.711   2.496  51.677  1.00  0.00     0.070 C 
HETATM   26  C2  UNL     1      26.773   1.444  52.441  1.00  0.00    -0.026 C 
HETATM   27  C1  UNL     1      26.790  -0.030  52.338  1.00  0.00     0.036 C 
ENDBRANCH  22  25
ENDBRANCH   1  21
BRANCH  12  28
HETATM   28  O2  UNL     1      24.546   5.423  48.873  1.00  0.00    -0.353 OA
BRANCH  28  29
HETATM   29  C20 UNL     1      23.576   5.868  49.791  1.00  0.00     0.171 C 
HETATM   30  C21 UNL     1      23.719   5.280  51.170  1.00  0.00     0.034 C 
ENDBRANCH  28  29
ENDBRANCH  12  28
TORSDOF 5
ENDMDL
MODEL 5
REMARK VINA RESULT:      -7.2      2.232      3.560
REMARK  5 active torsions:
REMARK  status: ('A' for Active; 'I' for Inactive)
REMARK    1  A    between atoms: C3_3  and  C4_4 
REMARK       I    between atoms: C4_4  and  N1_6 
REMARK    2  A    between atoms: N1_6  and  C5_7 
REMARK    3  A    between atoms: N4_16  and  C12_17 
REMARK    4  A    between atoms: C19_26  and  O2_27 
REMARK    5  A    between atoms: O2_27  and  C20_28 
ROOT
HETATM    1  C5  UNL     1      24.239   2.498  51.674  1.00  0.00     0.167 A 
HETATM    2  C6  UNL     1      24.234   3.794  50.924  1.00  0.00     0.037 A 
HETATM    3  C7  UNL     1      25.205   4.273  50.184  1.00  0.00     0.068 A 
HETATM    4  C8  UNL     1      26.414   3.465  50.076  1.00  0.00     0.086 A 
HETATM    5  N2  UNL     1      27.372   3.931  49.348  1.00  0.00    -0.256 NA
HETATM    6  C9  UNL     1      27.226   5.201  48.683  1.00  0.00     0.159 A 
HETATM    7  C10 UNL     1      26.135   5.973  48.757  1.00  0.00     0.139 A 
HETATM    8  C11 UNL     1      26.027   7.230  48.079  1.00  0.00     0.119 C 
HETATM    9  N3  UNL     1      25.957   8.252  47.536  1.00  0.00    -0.190 NA
HETATM   10  N4  UNL     1      25.015   5.528  49.548  1.00  0.00    -0.300 N 
HETATM   11  C18 UNL     1      26.542   2.186  50.756  1.00  0.00     0.068 A 
HETATM   12  C19 UNL     1      25.518   1.768  51.487  1.00  0.00     0.075 A 
ENDROOT
BRANCH  10  13
HETATM   13  C12 UNL     1      23.838   6.301  49.661  1.00  0.00     0.042 A 
HETATM   14  C13 UNL     1      23.515   7.259  50.592  1.00  0.00     0.033 A 
HETATM   15  C14 UNL     1      22.300   7.909  50.527  1.00  0.00     0.046 A 
HETATM   16  C15 UNL     1      21.415   7.585  49.515  1.00  0.00     0.138 A 
HETATM   17  F1  UNL     1      20.220   8.223  49.452  1.00  0.00    -0.204 F 
HETATM   18  C16 UNL     1      21.692   6.630  48.556  1.00  0.00     0.074 A 
HETATM   19 CL1  UNL     1      20.535   6.259  47.297  1.00  0.00    -0.081 Cl
HETATM   20  C17 UNL     1      22.928   5.989  48.646  1.00  0.00     0.057 A 
ENDBRANCH  10  13
BRANCH   1  21
HETATM   21  N1  UNL     1      23.108   1.685  51.321  1.00  0.00    -0.344 N 
HETATM   22  C4  UNL     1      22.189   1.013  52.186  1.00  0.00     0.241 C 
HETATM   23  O1  UNL     1      22.617   1.310  53.353  1.00  0.00    -0.269 OA
HETATM   24  H6  UNL     1      23.113   1.700  50.271  1.00  0.00     0.163 HD
BRANCH  22  25
HETATM   25  C3  UNL     1      21.114   0.244  51.592  1.00  0.00     0.070 C 
HETATM   26  C2  UNL     1      19.963   0.289  50.984  1.00  0.00    -0.026 C 
HETATM   27  C1  UNL     1      18.979   1.278  50.497  1.00  0.00     0.036 C 
ENDBRANCH  22  25
ENDBRANCH   1  21
BRANCH  12  28
HETATM   28  O2  UNL     1      25.663   0.559  52.117  1.00  0.00    -0.353 OA
BRANCH  28  29
HETATM   29  C20 UNL     1      26.884  -0.056  52.453  1.00  0.00     0.171 C 
HETATM   30  C21 UNL     1      26.820  -1.560  52.508  1.00  0.00     0.034 C 
ENDBRANCH  28  29
ENDBRANCH  12  28
TORSDOF 5
ENDMDL
MODEL 6
REMARK VINA RESULT:      -6.9      1.559      2.005
REMARK  5 active torsions:
REMARK  status: ('A' for Active; 'I' for Inactive)
REMARK    1  A    between atoms: C3_3  and  C4_4 
REMARK       I    between atoms: C4_4  and  N1_6 
REMARK    2  A    between atoms: N1_6  and  C5_7 
REMARK    3  A    between atoms: N4_16  and  C12_17 
REMARK    4  A    between atoms: C19_26  and  O2_27 
REMARK    5  A    between atoms: O2_27  and  C20_28 
ROOT
HETATM    1  C5  UNL     1      22.468   2.112  52.144  1.00  0.00     0.167 A 
HETATM    2  C6  UNL     1      23.001   3.279  51.373  1.00  0.00     0.037 A 
HETATM    3  C7  UNL     1      24.223   3.423  50.919  1.00  0.00     0.068 A 
HETATM    4  C8  UNL     1      25.161   2.340  51.188  1.00  0.00     0.086 A 
HETATM    5  N2  UNL     1      26.363   2.477  50.743  1.00  0.00    -0.256 NA
HETATM    6  C9  UNL     1      26.737   3.662  50.013  1.00  0.00     0.159 A 
HETATM    7  C10 UNL     1      25.908   4.678  49.746  1.00  0.00     0.139 A 
HETATM    8  C11 UNL     1      26.316   5.841  49.016  1.00  0.00     0.119 C 
HETATM    9  N3  UNL     1      26.664   6.782  48.435  1.00  0.00    -0.190 NA
HETATM   10  N4  UNL     1      24.543   4.608  50.206  1.00  0.00    -0.300 N 
HETATM   11  C18 UNL     1      24.764   1.152  51.927  1.00  0.00     0.068 A 
HETATM   12  C19 UNL     1      23.511   1.078  52.355  1.00  0.00     0.075 A 
ENDROOT
BRANCH  10  13
HETATM   13  C12 UNL     1      23.625   5.651  49.951  1.00  0.00     0.042 A 
HETATM   14  C13 UNL     1      23.322   6.749  50.722  1.00  0.00     0.033 A 
HETATM   15  C14 UNL     1      22.385   7.663  50.289  1.00  0.00     0.046 A 
HETATM   16  C15 UNL     1      21.756   7.462  49.074  1.00  0.00     0.138 A 
HETATM   17  F1  UNL     1      20.834   8.361  48.649  1.00  0.00    -0.204 F 
HETATM   18  C16 UNL     1      22.025   6.376  48.263  1.00  0.00     0.074 A 
HETATM   19 CL1  UNL     1      21.200   6.170  46.734  1.00  0.00    -0.081 Cl
HETATM   20  C17 UNL     1      22.978   5.467  48.726  1.00  0.00     0.057 A 
ENDBRANCH  10  13
BRANCH   1  21
HETATM   21  N1  UNL     1      21.296   1.563  51.519  1.00  0.00    -0.344 N 
HETATM   22  C4  UNL     1      19.925   1.732  51.891  1.00  0.00     0.241 C 
HETATM   23  O1  UNL     1      19.992   2.491  52.917  1.00  0.00    -0.269 OA
HETATM   24  H6  UNL     1      21.684   1.005  50.719  1.00  0.00     0.163 HD
BRANCH  22  25
HETATM   25  C3  UNL     1      18.906   1.073  51.099  1.00  0.00     0.070 C 
HETATM   26  C2  UNL     1      17.956   0.183  51.088  1.00  0.00    -0.026 C 
HETATM   27  C1  UNL     1      17.299  -0.782  51.994  1.00  0.00     0.036 C 
ENDBRANCH  22  25
ENDBRANCH   1  21
BRANCH  12  28
HETATM   28  O2  UNL     1      23.163  -0.053  53.048  1.00  0.00    -0.353 OA
BRANCH  28  29
HETATM   29  C20 UNL     1      22.358  -0.100  54.201  1.00  0.00     0.171 C 
HETATM   30  C21 UNL     1      22.658  -1.259  55.115  1.00  0.00     0.034 C 
ENDBRANCH  28  29
ENDBRANCH  12  28
TORSDOF 5
ENDMDL
MODEL 7
REMARK VINA RESULT:      -6.9      3.006      5.145
REMARK  5 active torsions:
REMARK  status: ('A' for Active; 'I' for Inactive)
REMARK    1  A    between atoms: C3_3  and  C4_4 
REMARK       I    between atoms: C4_4  and  N1_6 
REMARK    2  A    between atoms: N1_6  and  C5_7 
REMARK    3  A    between atoms: N4_16  and  C12_17 
REMARK    4  A    between atoms: C19_26  and  O2_27 
REMARK    5  A    between atoms: O2_27  and  C20_28 
ROOT
HETATM    1  C5  UNL     1      17.477   0.002  51.591  1.00  0.00     0.167 A 
HETATM    2  C6  UNL     1      18.928   0.374  51.603  1.00  0.00     0.037 A 
HETATM    3  C7  UNL     1      19.854  -0.117  52.391  1.00  0.00     0.068 A 
HETATM    4  C8  UNL     1      19.435  -1.128  53.354  1.00  0.00     0.086 A 
HETATM    5  N2  UNL     1      20.343  -1.614  54.130  1.00  0.00    -0.256 NA
HETATM    6  C9  UNL     1      21.706  -1.158  54.029  1.00  0.00     0.159 A 
HETATM    7  C10 UNL     1      22.131  -0.233  53.160  1.00  0.00     0.139 A 
HETATM    8  C11 UNL     1      23.496   0.195  53.088  1.00  0.00     0.119 C 
HETATM    9  N3  UNL     1      24.602   0.542  53.049  1.00  0.00    -0.190 NA
HETATM   10  N4  UNL     1      21.182   0.364  52.252  1.00  0.00    -0.300 N 
HETATM   11  C18 UNL     1      18.054  -1.575  53.441  1.00  0.00     0.068 A 
HETATM   12  C19 UNL     1      17.174  -1.032  52.612  1.00  0.00     0.075 A 
ENDROOT
BRANCH  10  13
HETATM   13  C12 UNL     1      21.576   1.345  51.315  1.00  0.00     0.042 A 
HETATM   14  C13 UNL     1      21.923   1.193  49.993  1.00  0.00     0.033 A 
HETATM   15  C14 UNL     1      22.280   2.292  49.239  1.00  0.00     0.046 A 
HETATM   16  C15 UNL     1      22.284   3.542  49.829  1.00  0.00     0.138 A 
HETATM   17  F1  UNL     1      22.636   4.622  49.087  1.00  0.00    -0.204 F 
HETATM   18  C16 UNL     1      21.943   3.747  51.152  1.00  0.00     0.074 A 
HETATM   19 CL1  UNL     1      21.966   5.353  51.847  1.00  0.00    -0.081 Cl
HETATM   20  C17 UNL     1      21.586   2.619  51.891  1.00  0.00     0.057 A 
ENDBRANCH  10  13
BRANCH   1  21
HETATM   21  N1  UNL     1      17.052  -0.405  50.280  1.00  0.00    -0.344 N 
HETATM   22  C4  UNL     1      15.909   0.030  49.539  1.00  0.00     0.241 C 
HETATM   23  O1  UNL     1      15.355   0.872  50.324  1.00  0.00    -0.269 OA
HETATM   24  H6  UNL     1      17.782  -1.103  49.992  1.00  0.00     0.163 HD
BRANCH  22  25
HETATM   25  C3  UNL     1      15.685  -0.529  48.220  1.00  0.00     0.070 C 
HETATM   26  C2  UNL     1      15.470  -1.612  47.530  1.00  0.00    -0.026 C 
HETATM   27  C1  UNL     1      15.315  -3.068  47.728  1.00  0.00     0.036 C 
ENDBRANCH  22  25
ENDBRANCH   1  21
BRANCH  12  28
HETATM   28  O2  UNL     1      15.879  -1.471  52.714  1.00  0.00    -0.353 OA
BRANCH  28  29
HETATM   29  C20 UNL     1      15.413  -2.756  52.378  1.00  0.00     0.171 C 
HETATM   30  C21 UNL     1      14.299  -2.760  51.364  1.00  0.00     0.034 C 
ENDBRANCH  28  29
ENDBRANCH  12  28
TORSDOF 5
ENDMDL
MODEL 8
REMARK VINA RESULT:      -6.8      7.487     10.727
REMARK  5 active torsions:
REMARK  status: ('A' for Active; 'I' for Inactive)
REMARK    1  A    between atoms: C3_3  and  C4_4 
REMARK       I    between atoms: C4_4  and  N1_6 
REMARK    2  A    between atoms: N1_6  and  C5_7 
REMARK    3  A    between atoms: N4_16  and  C12_17 
REMARK    4  A    between atoms: C19_26  and  O2_27 
REMARK    5  A    between atoms: O2_27  and  C20_28 
ROOT
HETATM    1  C5  UNL     1      30.574   7.454  48.897  1.00  0.00     0.167 A 
HETATM    2  C6  UNL     1      29.222   8.059  48.675  1.00  0.00     0.037 A 
HETATM    3  C7  UNL     1      28.949   9.335  48.546  1.00  0.00     0.068 A 
HETATM    4  C8  UNL     1      30.069  10.263  48.627  1.00  0.00     0.086 A 
HETATM    5  N2  UNL     1      29.805  11.519  48.500  1.00  0.00    -0.256 NA
HETATM    6  C9  UNL     1      28.449  11.958  48.289  1.00  0.00     0.159 A 
HETATM    7  C10 UNL     1      27.393  11.141  48.211  1.00  0.00     0.139 A 
HETATM    8  C11 UNL     1      26.058  11.615  48.000  1.00  0.00     0.119 C 
HETATM    9  N3  UNL     1      24.981  12.013  47.841  1.00  0.00    -0.190 NA
HETATM   10  N4  UNL     1      27.597   9.719  48.340  1.00  0.00    -0.300 N 
HETATM   11  C18 UNL     1      31.432   9.800  48.840  1.00  0.00     0.068 A 
HETATM   12  C19 UNL     1      31.630   8.495  48.961  1.00  0.00     0.075 A 
ENDROOT
BRANCH  10  13
HETATM   13  C12 UNL     1      26.519   8.809  48.264  1.00  0.00     0.042 A 
HETATM   14  C13 UNL     1      25.953   8.223  47.157  1.00  0.00     0.033 A 
HETATM   15  C14 UNL     1      24.894   7.351  47.298  1.00  0.00     0.046 A 
HETATM   16  C15 UNL     1      24.412   7.074  48.564  1.00  0.00     0.138 A 
HETATM   17  F1  UNL     1      23.371   6.217  48.702  1.00  0.00    -0.204 F 
HETATM   18  C16 UNL     1      24.946   7.636  49.708  1.00  0.00     0.074 A 
HETATM   19 CL1  UNL     1      24.296   7.250  51.286  1.00  0.00    -0.081 Cl
HETATM   20  C17 UNL     1      26.016   8.515  49.535  1.00  0.00     0.057 A 
ENDBRANCH  10  13
BRANCH   1  21
HETATM   21  N1  UNL     1      30.871   6.457  47.906  1.00  0.00    -0.344 N 
HETATM   22  C4  UNL     1      31.418   5.149  48.094  1.00  0.00     0.241 C 
HETATM   23  O1  UNL     1      31.580   5.080  49.360  1.00  0.00    -0.269 OA
HETATM   24  H6  UNL     1      30.590   6.916  47.005  1.00  0.00     0.163 HD
BRANCH  22  25
HETATM   25  C3  UNL     1      31.631   4.313  46.929  1.00  0.00     0.070 C 
HETATM   26  C2  UNL     1      32.074   3.171  46.488  1.00  0.00    -0.026 C 
HETATM   27  C1  UNL     1      32.689   1.925  46.990  1.00  0.00     0.036 C 
ENDBRANCH  22  25
ENDBRANCH   1  21
BRANCH  12  28
HETATM   28  O2  UNL     1      32.923   8.085  49.161  1.00  0.00    -0.353 OA
BRANCH  28  29
HETATM   29  C20 UNL     1      33.965   8.147  48.217  1.00  0.00     0.171 C 
HETATM   30  C21 UNL     1      34.898   6.965  48.251  1.00  0.00     0.034 C 
ENDBRANCH  28  29
ENDBRANCH  12  28
TORSDOF 5
ENDMDL
MODEL 9
REMARK VINA RESULT:      -6.7      5.043      9.129
REMARK  5 active torsions:
REMARK  status: ('A' for Active; 'I' for Inactive)
REMARK    1  A    between atoms: C3_3  and  C4_4 
REMARK       I    between atoms: C4_4  and  N1_6 
REMARK    2  A    between atoms: N1_6  and  C5_7 
REMARK    3  A    between atoms: N4_16  and  C12_17 
REMARK    4  A    between atoms: C19_26  and  O2_27 
REMARK    5  A    between atoms: O2_27  and  C20_28 
ROOT
HETATM    1  C5  UNL     1      27.322   7.628  47.745  1.00  0.00     0.167 A 
HETATM    2  C6  UNL     1      26.112   6.996  48.360  1.00  0.00     0.037 A 
HETATM    3  C7  UNL     1      26.035   5.792  48.875  1.00  0.00     0.068 A 
HETATM    4  C8  UNL     1      27.247   4.983  48.850  1.00  0.00     0.086 A 
HETATM    5  N2  UNL     1      27.176   3.799  49.356  1.00  0.00    -0.256 NA
HETATM    6  C9  UNL     1      25.938   3.321  49.915  1.00  0.00     0.159 A 
HETATM    7  C10 UNL     1      24.803   4.030  49.957  1.00  0.00     0.139 A 
HETATM    8  C11 UNL     1      23.590   3.521  50.522  1.00  0.00     0.119 C 
HETATM    9  N3  UNL     1      22.611   3.091  50.971  1.00  0.00    -0.190 NA
HETATM   10  N4  UNL     1      24.792   5.367  49.414  1.00  0.00    -0.300 N 
HETATM   11  C18 UNL     1      28.488   5.484  48.280  1.00  0.00     0.068 A 
HETATM   12  C19 UNL     1      28.488   6.711  47.778  1.00  0.00     0.075 A 
ENDROOT
BRANCH  10  13
HETATM   13  C12 UNL     1      23.624   6.160  49.432  1.00  0.00     0.042 A 
HETATM   14  C13 UNL     1      23.180   7.030  50.399  1.00  0.00     0.033 A 
HETATM   15  C14 UNL     1      21.998   7.719  50.224  1.00  0.00     0.046 A 
HETATM   16  C15 UNL     1      21.268   7.523  49.065  1.00  0.00     0.138 A 
HETATM   17  F1  UNL     1      20.106   8.200  48.893  1.00  0.00    -0.204 F 
HETATM   18  C16 UNL     1      21.671   6.660  48.064  1.00  0.00     0.074 A 
HETATM   19 CL1  UNL     1      20.708   6.450  46.619  1.00  0.00    -0.081 Cl
HETATM   20  C17 UNL     1      22.871   5.977  48.269  1.00  0.00     0.057 A 
ENDBRANCH  10  13
BRANCH   1  21
HETATM   21  N1  UNL     1      27.622   8.891  48.361  1.00  0.00    -0.344 N 
HETATM   22  C4  UNL     1      27.865  10.153  47.733  1.00  0.00     0.241 C 
HETATM   23  O1  UNL     1      27.749   9.887  46.489  1.00  0.00    -0.269 OA
HETATM   24  H6  UNL     1      27.623   8.670  49.387  1.00  0.00     0.163 HD
BRANCH  22  25
HETATM   25  C3  UNL     1      28.150  11.300  48.572  1.00  0.00     0.070 C 
HETATM   26  C2  UNL     1      29.074  12.084  49.049  1.00  0.00    -0.026 C 
HETATM   27  C1  UNL     1      30.539  12.267  49.000  1.00  0.00     0.036 C 
ENDBRANCH  22  25
ENDBRANCH   1  21
BRANCH  12  28
HETATM   28  O2  UNL     1      29.671   7.159  47.248  1.00  0.00    -0.353 OA
BRANCH  28  29
HETATM   29  C20 UNL     1      30.911   7.199  47.911  1.00  0.00     0.171 C 
HETATM   30  C21 UNL     1      31.006   8.261  48.975  1.00  0.00     0.034 C 
ENDBRANCH  28  29
ENDBRANCH  12  28
TORSDOF 5
ENDMDL
