MODEL 1
REMARK VINA RESULT:      -8.1      0.000      0.000
REMARK  3 active torsions:
REMARK  status: ('A' for Active; 'I' for Inactive)
REMARK       I    between atoms: C1_2  and  N1_3 
REMARK    1  A    between atoms: C1_2  and  C8_14 
REMARK    2  A    between atoms: N1_3  and  S1_4 
REMARK    3  A    between atoms: S1_4  and  C2_7 
ROOT
HETATM    1  O1  UNL     1      25.504   2.365  51.265  1.00  0.00    -0.267 OA
HETATM    2  C1  UNL     1      24.971   2.552  52.399  1.00  0.00     0.268 C 
HETATM    3  N1  UNL     1      25.782   2.475  53.562  1.00  0.00    -0.246 N 
HETATM    4  H1  UNL     1      25.253   2.643  54.467  1.00  0.00     0.182 HD
ENDROOT
BRANCH   3   5
HETATM    5  S1  UNL     1      27.425   2.118  53.116  1.00  0.00     0.265 S 
HETATM    6  O2  UNL     1      27.642   2.718  51.758  1.00  0.00    -0.200 OA
HETATM    7  O3  UNL     1      28.351   2.732  54.128  1.00  0.00    -0.200 OA
BRANCH   5   8
HETATM    8  C2  UNL     1      27.726   0.420  53.077  1.00  0.00     0.080 A 
HETATM    9  C3  UNL     1      28.970  -0.051  53.505  1.00  0.00     0.028 A 
HETATM   10  C4  UNL     1      29.270  -1.399  53.498  1.00  0.00     0.044 A 
HETATM   11  C5  UNL     1      28.330  -2.307  53.061  1.00  0.00     0.116 A 
HETATM   12  F1  UNL     1      28.707  -3.609  53.088  1.00  0.00    -0.206 F 
HETATM   13  C6  UNL     1      27.088  -1.856  52.632  1.00  0.00     0.044 A 
HETATM   14  C7  UNL     1      26.788  -0.512  52.639  1.00  0.00     0.028 A 
ENDBRANCH   5   8
ENDBRANCH   3   5
BRANCH   2  15
HETATM   15  C8  UNL     1      23.540   2.834  52.382  1.00  0.00     0.073 A 
HETATM   16  C9  UNL     1      23.081   4.120  52.190  1.00  0.00     0.022 A 
HETATM   17  C10 UNL     1      21.720   4.373  52.175  1.00  0.00     0.020 A 
HETATM   18  C11 UNL     1      20.821   3.342  52.354  1.00  0.00     0.118 A 
HETATM   19  N2  UNL     1      21.258   2.082  52.542  1.00  0.00    -0.248 NA
HETATM   20  C12 UNL     1      22.591   1.827  52.557  1.00  0.00     0.141 A 
HETATM   21 CL1  UNL     1      23.134   0.178  52.804  1.00  0.00    -0.061 Cl
ENDBRANCH   2  15
TORSDOF 3
ENDMDL
MODEL 2
REMARK VINA RESULT:      -7.8      3.310      6.428
REMARK  3 active torsions:
REMARK  status: ('A' for Active; 'I' for Inactive)
REMARK       I    between atoms: C1_2  and  N1_3 
REMARK    1  A    between atoms: C1_2  and  C8_14 
REMARK    2  A    between atoms: N1_3  and  S1_4 
REMARK    3  A    between atoms: S1_4  and  C2_7 
ROOT
HETATM    1  O1  UNL     1      25.764   1.283  54.210  1.00  0.00    -0.267 OA
HETATM    2  C1  UNL     1      26.255   0.854  53.124  1.00  0.00     0.268 C 
HETATM    3  N1  UNL     1      25.540   1.062  51.915  1.00  0.00    -0.246 N 
HETATM    4  H1  UNL     1      26.025   0.670  51.055  1.00  0.00     0.182 HD
ENDROOT
BRANCH   3   5
HETATM    5  S1  UNL     1      24.060   1.916  52.241  1.00  0.00     0.265 S 
HETATM    6  O2  UNL     1      24.387   2.971  53.257  1.00  0.00    -0.200 OA
HETATM    7  O3  UNL     1      23.561   2.534  50.966  1.00  0.00    -0.200 OA
BRANCH   5   8
HETATM    8  C2  UNL     1      22.832   0.865  52.842  1.00  0.00     0.080 A 
HETATM    9  C3  UNL     1      23.157  -0.470  53.097  1.00  0.00     0.028 A 
HETATM   10  C4  UNL     1      22.217  -1.361  53.579  1.00  0.00     0.044 A 
HETATM   11  C5  UNL     1      20.930  -0.933  53.817  1.00  0.00     0.116 A 
HETATM   12  F1  UNL     1      20.072  -1.871  54.291  1.00  0.00    -0.206 F 
HETATM   13  C6  UNL     1      20.588   0.391  53.570  1.00  0.00     0.044 A 
HETATM   14  C7  UNL     1      21.525   1.279  53.089  1.00  0.00     0.028 A 
ENDBRANCH   5   8
ENDBRANCH   3   5
BRANCH   2  15
HETATM   15  C8  UNL     1      27.540   0.173  53.241  1.00  0.00     0.073 A 
HETATM   16  C9  UNL     1      27.621  -1.198  53.117  1.00  0.00     0.022 A 
HETATM   17  C10 UNL     1      28.847  -1.831  53.229  1.00  0.00     0.020 A 
HETATM   18  C11 UNL     1      29.988  -1.094  53.467  1.00  0.00     0.118 A 
HETATM   19  N2  UNL     1      29.921   0.246  53.590  1.00  0.00    -0.248 NA
HETATM   20  C12 UNL     1      28.723   0.872  53.480  1.00  0.00     0.141 A 
HETATM   21 CL1  UNL     1      28.662   2.618  53.645  1.00  0.00    -0.061 Cl
ENDBRANCH   2  15
TORSDOF 3
ENDMDL
MODEL 3
REMARK VINA RESULT:      -7.6      2.201      2.681
REMARK  3 active torsions:
REMARK  status: ('A' for Active; 'I' for Inactive)
REMARK       I    between atoms: C1_2  and  N1_3 
REMARK    1  A    between atoms: C1_2  and  C8_14 
REMARK    2  A    between atoms: N1_3  and  S1_4 
REMARK    3  A    between atoms: S1_4  and  C2_7 
ROOT
HETATM    1  O1  UNL     1      23.113   2.492  52.682  1.00  0.00    -0.267 OA
HETATM    2  C1  UNL     1      23.022   1.234  52.572  1.00  0.00     0.268 C 
HETATM    3  N1  UNL     1      24.211   0.457  52.559  1.00  0.00    -0.246 N 
HETATM    4  H1  UNL     1      24.041  -0.587  52.463  1.00  0.00     0.182 HD
ENDROOT
BRANCH   3   5
HETATM    5  S1  UNL     1      25.599   1.494  52.706  1.00  0.00     0.265 S 
HETATM    6  O2  UNL     1      25.732   2.223  51.400  1.00  0.00    -0.200 OA
HETATM    7  O3  UNL     1      25.372   2.458  53.837  1.00  0.00    -0.200 OA
BRANCH   5   8
HETATM    8  C2  UNL     1      27.035   0.602  53.044  1.00  0.00     0.080 A 
HETATM    9  C3  UNL     1      28.146   1.284  53.548  1.00  0.00     0.028 A 
HETATM   10  C4  UNL     1      29.325   0.624  53.839  1.00  0.00     0.044 A 
HETATM   11  C5  UNL     1      29.416  -0.735  53.631  1.00  0.00     0.116 A 
HETATM   12  F1  UNL     1      30.608  -1.303  53.944  1.00  0.00    -0.206 F 
HETATM   13  C6  UNL     1      28.322  -1.430  53.131  1.00  0.00     0.044 A 
HETATM   14  C7  UNL     1      27.147  -0.772  52.841  1.00  0.00     0.028 A 
ENDBRANCH   5   8
ENDBRANCH   3   5
BRANCH   2  15
HETATM   15  C8  UNL     1      21.665   0.708  52.469  1.00  0.00     0.073 A 
HETATM   16  C9  UNL     1      20.906   0.944  51.343  1.00  0.00     0.022 A 
HETATM   17  C10 UNL     1      19.620   0.437  51.257  1.00  0.00     0.020 A 
HETATM   18  C11 UNL     1      19.096  -0.301  52.298  1.00  0.00     0.118 A 
HETATM   19  N2  UNL     1      19.829  -0.537  53.403  1.00  0.00    -0.248 NA
HETATM   20  C12 UNL     1      21.090  -0.045  53.492  1.00  0.00     0.141 A 
HETATM   21 CL1  UNL     1      22.023  -0.366  54.942  1.00  0.00    -0.061 Cl
ENDBRANCH   2  15
TORSDOF 3
ENDMDL
MODEL 4
REMARK VINA RESULT:      -7.5      3.186      6.140
REMARK  3 active torsions:
REMARK  status: ('A' for Active; 'I' for Inactive)
REMARK       I    between atoms: C1_2  and  N1_3 
REMARK    1  A    between atoms: C1_2  and  C8_14 
REMARK    2  A    between atoms: N1_3  and  S1_4 
REMARK    3  A    between atoms: S1_4  and  C2_7 
ROOT
HETATM    1  O1  UNL     1      25.486   1.600  51.477  1.00  0.00    -0.267 OA
HETATM    2  C1  UNL     1      25.697   2.097  52.622  1.00  0.00     0.268 C 
HETATM    3  N1  UNL     1      24.918   3.207  53.044  1.00  0.00    -0.246 N 
HETATM    4  H1  UNL     1      25.162   3.560  54.016  1.00  0.00     0.182 HD
ENDROOT
BRANCH   3   5
HETATM    5  S1  UNL     1      23.785   3.644  51.798  1.00  0.00     0.265 S 
HETATM    6  O2  UNL     1      23.185   4.959  52.205  1.00  0.00    -0.200 OA
HETATM    7  O3  UNL     1      24.518   3.770  50.493  1.00  0.00    -0.200 OA
BRANCH   5   8
HETATM    8  C2  UNL     1      22.551   2.455  51.607  1.00  0.00     0.080 A 
HETATM    9  C3  UNL     1      21.809   2.072  52.727  1.00  0.00     0.028 A 
HETATM   10  C4  UNL     1      20.808   1.124  52.637  1.00  0.00     0.044 A 
HETATM   11  C5  UNL     1      20.526   0.540  51.422  1.00  0.00     0.116 A 
HETATM   12  F1  UNL     1      19.529  -0.379  51.422  1.00  0.00    -0.206 F 
HETATM   13  C6  UNL     1      21.254   0.909  50.297  1.00  0.00     0.044 A 
HETATM   14  C7  UNL     1      22.252   1.853  50.386  1.00  0.00     0.028 A 
ENDBRANCH   5   8
ENDBRANCH   3   5
BRANCH   2  15
HETATM   15  C8  UNL     1      26.748   1.455  53.404  1.00  0.00     0.073 A 
HETATM   16  C9  UNL     1      28.025   1.973  53.420  1.00  0.00     0.022 A 
HETATM   17  C10 UNL     1      29.013   1.354  54.167  1.00  0.00     0.020 A 
HETATM   18  C11 UNL     1      28.722   0.218  54.894  1.00  0.00     0.118 A 
HETATM   19  N2  UNL     1      27.478  -0.296  54.886  1.00  0.00    -0.248 NA
HETATM   20  C12 UNL     1      26.505   0.306  54.157  1.00  0.00     0.141 A 
HETATM   21 CL1  UNL     1      24.893  -0.384  54.162  1.00  0.00    -0.061 Cl
ENDBRANCH   2  15
TORSDOF 3
ENDMDL
MODEL 5
REMARK VINA RESULT:      -7.3      4.064      7.146
REMARK  3 active torsions:
REMARK  status: ('A' for Active; 'I' for Inactive)
REMARK       I    between atoms: C1_2  and  N1_3 
REMARK    1  A    between atoms: C1_2  and  C8_14 
REMARK    2  A    between atoms: N1_3  and  S1_4 
REMARK    3  A    between atoms: S1_4  and  C2_7 
ROOT
HETATM    1  O1  UNL     1      25.433   1.023  53.492  1.00  0.00    -0.267 OA
HETATM    2  C1  UNL     1      26.372   1.059  52.644  1.00  0.00     0.268 C 
HETATM    3  N1  UNL     1      26.203   1.829  51.462  1.00  0.00    -0.246 N 
HETATM    4  H1  UNL     1      27.039   1.801  50.807  1.00  0.00     0.182 HD
ENDROOT
BRANCH   3   5
HETATM    5  S1  UNL     1      24.639   2.589  51.468  1.00  0.00     0.265 S 
HETATM    6  O2  UNL     1      23.635   1.508  51.188  1.00  0.00    -0.200 OA
HETATM    7  O3  UNL     1      24.400   3.205  52.818  1.00  0.00    -0.200 OA
BRANCH   5   8
HETATM    8  C2  UNL     1      24.525   3.835  50.283  1.00  0.00     0.080 A 
HETATM    9  C3  UNL     1      25.645   4.635  50.042  1.00  0.00     0.028 A 
HETATM   10  C4  UNL     1      25.617   5.650  49.104  1.00  0.00     0.044 A 
HETATM   11  C5  UNL     1      24.465   5.886  48.387  1.00  0.00     0.116 A 
HETATM   12  F1  UNL     1      24.523   6.899  47.487  1.00  0.00    -0.206 F 
HETATM   13  C6  UNL     1      23.341   5.100  48.613  1.00  0.00     0.044 A 
HETATM   14  C7  UNL     1      23.369   4.089  49.547  1.00  0.00     0.028 A 
ENDBRANCH   5   8
ENDBRANCH   3   5
BRANCH   2  15
HETATM   15  C8  UNL     1      27.559   0.282  52.985  1.00  0.00     0.073 A 
HETATM   16  C9  UNL     1      27.563  -1.089  52.840  1.00  0.00     0.022 A 
HETATM   17  C10 UNL     1      28.697  -1.815  53.167  1.00  0.00     0.020 A 
HETATM   18  C11 UNL     1      29.821  -1.170  53.639  1.00  0.00     0.118 A 
HETATM   19  N2  UNL     1      29.827   0.169  53.784  1.00  0.00    -0.248 NA
HETATM   20  C12 UNL     1      28.721   0.886  53.465  1.00  0.00     0.141 A 
HETATM   21 CL1  UNL     1      28.754   2.629  53.663  1.00  0.00    -0.061 Cl
ENDBRANCH   2  15
TORSDOF 3
ENDMDL
MODEL 6
REMARK VINA RESULT:      -7.3      3.868      6.831
REMARK  3 active torsions:
REMARK  status: ('A' for Active; 'I' for Inactive)
REMARK       I    between atoms: C1_2  and  N1_3 
REMARK    1  A    between atoms: C1_2  and  C8_14 
REMARK    2  A    between atoms: N1_3  and  S1_4 
REMARK    3  A    between atoms: S1_4  and  C2_7 
ROOT
HETATM    1  O1  UNL     1      24.977   3.021  53.511  1.00  0.00    -0.267 OA
HETATM    2  C1  UNL     1      25.539   2.091  52.861  1.00  0.00     0.268 C 
HETATM    3  N1  UNL     1      25.048   1.758  51.571  1.00  0.00    -0.246 N 
HETATM    4  H1  UNL     1      25.578   0.968  51.100  1.00  0.00     0.182 HD
ENDROOT
BRANCH   3   5
HETATM    5  S1  UNL     1      23.700   2.781  51.168  1.00  0.00     0.265 S 
HETATM    6  O2  UNL     1      23.068   2.194  49.938  1.00  0.00    -0.200 OA
HETATM    7  O3  UNL     1      22.732   2.788  52.317  1.00  0.00    -0.200 OA
BRANCH   5   8
HETATM    8  C2  UNL     1      24.192   4.406  50.872  1.00  0.00     0.080 A 
HETATM    9  C3  UNL     1      23.450   5.446  51.439  1.00  0.00     0.028 A 
HETATM   10  C4  UNL     1      23.795   6.769  51.239  1.00  0.00     0.044 A 
HETATM   11  C5  UNL     1      24.892   7.080  50.466  1.00  0.00     0.116 A 
HETATM   12  F1  UNL     1      25.159   8.402  50.322  1.00  0.00    -0.206 F 
HETATM   13  C6  UNL     1      25.642   6.059  49.895  1.00  0.00     0.044 A 
HETATM   14  C7  UNL     1      25.299   4.740  50.094  1.00  0.00     0.028 A 
ENDBRANCH   5   8
ENDBRANCH   3   5
BRANCH   2  15
HETATM   15  C8  UNL     1      26.663   1.445  53.532  1.00  0.00     0.073 A 
HETATM   16  C9  UNL     1      27.919   2.011  53.496  1.00  0.00     0.022 A 
HETATM   17  C10 UNL     1      28.976   1.388  54.138  1.00  0.00     0.020 A 
HETATM   18  C11 UNL     1      28.776   0.202  54.811  1.00  0.00     0.118 A 
HETATM   19  N2  UNL     1      27.552  -0.360  54.853  1.00  0.00    -0.248 NA
HETATM   20  C12 UNL     1      26.512   0.245  54.227  1.00  0.00     0.141 A 
HETATM   21 CL1  UNL     1      24.929  -0.507  54.296  1.00  0.00    -0.061 Cl
ENDBRANCH   2  15
TORSDOF 3
ENDMDL
MODEL 7
REMARK VINA RESULT:      -7.3      3.108      4.082
REMARK  3 active torsions:
REMARK  status: ('A' for Active; 'I' for Inactive)
REMARK       I    between atoms: C1_2  and  N1_3 
REMARK    1  A    between atoms: C1_2  and  C8_14 
REMARK    2  A    between atoms: N1_3  and  S1_4 
REMARK    3  A    between atoms: S1_4  and  C2_7 
ROOT
HETATM    1  O1  UNL     1      21.977   0.284  51.146  1.00  0.00    -0.267 OA
HETATM    2  C1  UNL     1      21.303   0.719  52.126  1.00  0.00     0.268 C 
HETATM    3  N1  UNL     1      21.836   1.775  52.913  1.00  0.00    -0.246 N 
HETATM    4  H1  UNL     1      21.205   2.076  53.713  1.00  0.00     0.182 HD
ENDROOT
BRANCH   3   5
HETATM    5  S1  UNL     1      23.392   2.248  52.296  1.00  0.00     0.265 S 
HETATM    6  O2  UNL     1      23.222   2.459  50.819  1.00  0.00    -0.200 OA
HETATM    7  O3  UNL     1      23.822   3.518  52.974  1.00  0.00    -0.200 OA
BRANCH   5   8
HETATM    8  C2  UNL     1      24.593   1.047  52.596  1.00  0.00     0.080 A 
HETATM    9  C3  UNL     1      25.728   1.016  51.782  1.00  0.00     0.028 A 
HETATM   10  C4  UNL     1      26.725   0.078  51.973  1.00  0.00     0.044 A 
HETATM   11  C5  UNL     1      26.607  -0.848  52.985  1.00  0.00     0.116 A 
HETATM   12  F1  UNL     1      27.631  -1.731  53.103  1.00  0.00    -0.206 F 
HETATM   13  C6  UNL     1      25.485  -0.832  53.805  1.00  0.00     0.044 A 
HETATM   14  C7  UNL     1      24.491   0.102  53.615  1.00  0.00     0.028 A 
ENDBRANCH   5   8
ENDBRANCH   3   5
BRANCH   2  15
HETATM   15  C8  UNL     1      20.017   0.067  52.344  1.00  0.00     0.073 A 
HETATM   16  C9  UNL     1      18.955   0.311  51.499  1.00  0.00     0.022 A 
HETATM   17  C10 UNL     1      17.740  -0.315  51.717  1.00  0.00     0.020 A 
HETATM   18  C11 UNL     1      17.588  -1.182  52.779  1.00  0.00     0.118 A 
HETATM   19  N2  UNL     1      18.618  -1.427  53.611  1.00  0.00    -0.248 NA
HETATM   20  C12 UNL     1      19.812  -0.818  53.403  1.00  0.00     0.141 A 
HETATM   21 CL1  UNL     1      21.137  -1.153  54.501  1.00  0.00    -0.061 Cl
ENDBRANCH   2  15
TORSDOF 3
ENDMDL
MODEL 8
REMARK VINA RESULT:      -7.2      4.330      5.713
REMARK  3 active torsions:
REMARK  status: ('A' for Active; 'I' for Inactive)
REMARK       I    between atoms: C1_2  and  N1_3 
REMARK    1  A    between atoms: C1_2  and  C8_14 
REMARK    2  A    between atoms: N1_3  and  S1_4 
REMARK    3  A    between atoms: S1_4  and  C2_7 
ROOT
HETATM    1  O1  UNL     1      22.586   1.452  50.853  1.00  0.00    -0.267 OA
HETATM    2  C1  UNL     1      22.766   1.841  52.045  1.00  0.00     0.268 C 
HETATM    3  N1  UNL     1      22.984   3.223  52.293  1.00  0.00    -0.246 N 
HETATM    4  H1  UNL     1      23.126   3.458  53.319  1.00  0.00     0.182 HD
ENDROOT
BRANCH   3   5
HETATM    5  S1  UNL     1      22.948   4.107  50.795  1.00  0.00     0.265 S 
HETATM    6  O2  UNL     1      22.029   3.356  49.876  1.00  0.00    -0.200 OA
HETATM    7  O3  UNL     1      22.431   5.493  51.058  1.00  0.00    -0.200 OA
BRANCH   5   8
HETATM    8  C2  UNL     1      24.517   4.245  50.094  1.00  0.00     0.080 A 
HETATM    9  C3  UNL     1      24.884   5.458  49.505  1.00  0.00     0.028 A 
HETATM   10  C4  UNL     1      26.127   5.631  48.926  1.00  0.00     0.044 A 
HETATM   11  C5  UNL     1      27.030   4.591  48.925  1.00  0.00     0.116 A 
HETATM   12  F1  UNL     1      28.226   4.846  48.338  1.00  0.00    -0.206 F 
HETATM   13  C6  UNL     1      26.683   3.378  49.507  1.00  0.00     0.044 A 
HETATM   14  C7  UNL     1      25.444   3.205  50.083  1.00  0.00     0.028 A 
ENDBRANCH   5   8
ENDBRANCH   3   5
BRANCH   2  15
HETATM   15  C8  UNL     1      22.729   0.794  53.061  1.00  0.00     0.073 A 
HETATM   16  C9  UNL     1      21.553   0.496  53.716  1.00  0.00     0.022 A 
HETATM   17  C10 UNL     1      21.531  -0.501  54.677  1.00  0.00     0.020 A 
HETATM   18  C11 UNL     1      22.684  -1.195  54.982  1.00  0.00     0.118 A 
HETATM   19  N2  UNL     1      23.838  -0.911  54.348  1.00  0.00    -0.248 NA
HETATM   20  C12 UNL     1      23.866   0.063  53.405  1.00  0.00     0.141 A 
HETATM   21 CL1  UNL     1      25.381   0.414  52.595  1.00  0.00    -0.061 Cl
ENDBRANCH   2  15
TORSDOF 3
ENDMDL
MODEL 9
REMARK VINA RESULT:      -7.1      4.471      6.112
REMARK  3 active torsions:
REMARK  status: ('A' for Active; 'I' for Inactive)
REMARK       I    between atoms: C1_2  and  N1_3 
REMARK    1  A    between atoms: C1_2  and  C8_14 
REMARK    2  A    between atoms: N1_3  and  S1_4 
REMARK    3  A    between atoms: S1_4  and  C2_7 
ROOT
HETATM    1  O1  UNL     1      23.675   2.864  50.132  1.00  0.00    -0.267 OA
HETATM    2  C1  UNL     1      24.036   2.978  51.340  1.00  0.00     0.268 C 
HETATM    3  N1  UNL     1      24.380   4.263  51.838  1.00  0.00    -0.246 N 
HETATM    4  H1  UNL     1      24.672   4.265  52.859  1.00  0.00     0.182 HD
ENDROOT
BRANCH   3   5
HETATM    5  S1  UNL     1      24.209   5.451  50.578  1.00  0.00     0.265 S 
HETATM    6  O2  UNL     1      23.125   4.957  49.666  1.00  0.00    -0.200 OA
HETATM    7  O3  UNL     1      23.832   6.768  51.196  1.00  0.00    -0.200 OA
BRANCH   5   8
HETATM    8  C2  UNL     1      25.677   5.673  49.701  1.00  0.00     0.080 A 
HETATM    9  C3  UNL     1      26.442   4.548  49.379  1.00  0.00     0.028 A 
HETATM   10  C4  UNL     1      27.627   4.661  48.677  1.00  0.00     0.044 A 
HETATM   11  C5  UNL     1      28.072   5.903  48.283  1.00  0.00     0.116 A 
HETATM   12  F1  UNL     1      29.243   5.924  47.599  1.00  0.00    -0.206 F 
HETATM   13  C6  UNL     1      27.325   7.033  48.595  1.00  0.00     0.044 A 
HETATM   14  C7  UNL     1      26.144   6.921  49.294  1.00  0.00     0.028 A 
ENDBRANCH   5   8
ENDBRANCH   3   5
BRANCH   2  15
HETATM   15  C8  UNL     1      24.060   1.738  52.110  1.00  0.00     0.073 A 
HETATM   16  C9  UNL     1      22.916   1.272  52.722  1.00  0.00     0.022 A 
HETATM   17  C10 UNL     1      22.952   0.094  53.449  1.00  0.00     0.020 A 
HETATM   18  C11 UNL     1      24.131  -0.614  53.562  1.00  0.00     0.118 A 
HETATM   19  N2  UNL     1      25.254  -0.168  52.968  1.00  0.00    -0.248 NA
HETATM   20  C12 UNL     1      25.225   0.985  52.254  1.00  0.00     0.141 A 
HETATM   21 CL1  UNL     1      26.701   1.545  51.490  1.00  0.00    -0.061 Cl
ENDBRANCH   2  15
TORSDOF 3
ENDMDL
