MODEL 1
REMARK VINA RESULT:      -9.3      0.000      0.000
REMARK  5 active torsions:
REMARK  status: ('A' for Active; 'I' for Inactive)
REMARK    1  A    between atoms: C2_2  and  N1_3 
REMARK    2  A    between atoms: C2_2  and  C15_20 
REMARK    3  A    between atoms: N1_3  and  C3_4 
REMARK    4  A    between atoms: C8_11  and  P1_12 
REMARK    5  A    between atoms: P1_12  and  C9_13 
ROOT
HETATM    1  C3  UNL     1      25.352   0.044  53.587  1.00  0.00     0.135 A 
HETATM    2  N2  UNL     1      26.169  -0.334  54.588  1.00  0.00    -0.224 NA
HETATM    3  C4  UNL     1      27.342   0.294  54.788  1.00  0.00     0.237 A 
HETATM    4  N3  UNL     1      27.770   1.328  54.008  1.00  0.00    -0.224 NA
HETATM    5  C5  UNL     1      26.962   1.719  53.000  1.00  0.00     0.139 A 
HETATM    6  C6  UNL     1      25.772   1.091  52.789  1.00  0.00     0.039 A 
HETATM    7  C7  UNL     1      25.052   1.688  51.626  1.00  0.00     0.105 A 
HETATM    8  C8  UNL     1      25.976   2.763  51.170  1.00  0.00     0.029 A 
HETATM    9  N4  UNL     1      27.112   2.744  52.027  1.00  0.00    -0.342 N 
HETATM   10  H14 UNL     1      27.862   3.422  51.862  1.00  0.00     0.167 HD
ENDROOT
BRANCH   1  11
HETATM   11  N1  UNL     1      24.121  -0.642  53.406  1.00  0.00    -0.366 N 
HETATM   12  H5  UNL     1      24.130  -1.411  52.673  1.00  0.00     0.161 HD
BRANCH  11  13
HETATM   13  C2  UNL     1      22.930  -0.324  54.163  1.00  0.00     0.112 C 
HETATM   14  C1  UNL     1      22.729  -1.404  55.231  1.00  0.00     0.037 C 
BRANCH  13  15
HETATM   15  C15 UNL     1      21.714  -0.215  53.305  1.00  0.00    -0.036 A 
HETATM   16  C16 UNL     1      20.447  -0.586  53.763  1.00  0.00     0.012 A 
HETATM   17  C17 UNL     1      19.324  -0.486  52.976  1.00  0.00     0.043 A 
HETATM   18  C18 UNL     1      19.461  -0.005  51.703  1.00  0.00     0.116 A 
HETATM   19  F1  UNL     1      18.351   0.091  50.931  1.00  0.00    -0.206 F 
HETATM   20  C19 UNL     1      20.724   0.357  51.268  1.00  0.00     0.043 A 
HETATM   21  C20 UNL     1      21.866   0.270  52.026  1.00  0.00     0.012 A 
ENDBRANCH  13  15
ENDBRANCH  11  13
ENDBRANCH   1  11
BRANCH   8  22
HETATM   22  P1  UNL     1      25.485   3.643  49.877  1.00  0.00     0.003 P 
BRANCH  22  23
HETATM   23  C9  UNL     1      26.461   4.971  49.081  1.00  0.00    -0.020 A 
HETATM   24  C10 UNL     1      25.867   6.190  48.816  1.00  0.00     0.013 A 
HETATM   25  C11 UNL     1      26.634   7.153  48.220  1.00  0.00     0.001 A 
HETATM   26  C12 UNL     1      27.962   6.923  47.888  1.00  0.00     0.000 A 
HETATM   27  C13 UNL     1      28.557   5.701  48.154  1.00  0.00     0.001 A 
HETATM   28  C14 UNL     1      27.782   4.707  48.763  1.00  0.00     0.013 A 
ENDBRANCH  22  23
ENDBRANCH   8  22
TORSDOF 5
ENDMDL
MODEL 2
REMARK VINA RESULT:      -9.2      3.037      5.775
REMARK  5 active torsions:
REMARK  status: ('A' for Active; 'I' for Inactive)
REMARK    1  A    between atoms: C2_2  and  N1_3 
REMARK    2  A    between atoms: C2_2  and  C15_20 
REMARK    3  A    between atoms: N1_3  and  C3_4 
REMARK    4  A    between atoms: C8_11  and  P1_12 
REMARK    5  A    between atoms: P1_12  and  C9_13 
ROOT
HETATM    1  C3  UNL     1      23.101   3.558  51.114  1.00  0.00     0.135 A 
HETATM    2  N2  UNL     1      22.768   4.251  50.009  1.00  0.00    -0.224 NA
HETATM    3  C4  UNL     1      23.715   4.647  49.139  1.00  0.00     0.237 A 
HETATM    4  N3  UNL     1      25.041   4.379  49.316  1.00  0.00    -0.224 NA
HETATM    5  C5  UNL     1      25.390   3.685  50.420  1.00  0.00     0.139 A 
HETATM    6  C6  UNL     1      24.439   3.279  51.307  1.00  0.00     0.039 A 
HETATM    7  C7  UNL     1      25.054   2.533  52.444  1.00  0.00     0.105 A 
HETATM    8  C8  UNL     1      26.506   2.549  52.115  1.00  0.00     0.029 A 
HETATM    9  N4  UNL     1      26.660   3.253  50.888  1.00  0.00    -0.342 N 
HETATM   10  H14 UNL     1      27.602   3.364  50.502  1.00  0.00     0.167 HD
ENDROOT
BRANCH   1  11
HETATM   11  N1  UNL     1      22.073   3.157  52.010  1.00  0.00    -0.366 N 
HETATM   12  H5  UNL     1      21.892   3.816  52.823  1.00  0.00     0.161 HD
BRANCH  11  13
HETATM   13  C2  UNL     1      21.317   1.935  51.836  1.00  0.00     0.112 C 
HETATM   14  C1  UNL     1      19.826   2.265  51.956  1.00  0.00     0.037 C 
BRANCH  13  15
HETATM   15  C15 UNL     1      21.693   0.879  52.822  1.00  0.00    -0.036 A 
HETATM   16  C16 UNL     1      22.855   0.116  52.684  1.00  0.00     0.012 A 
HETATM   17  C17 UNL     1      23.205  -0.857  53.589  1.00  0.00     0.043 A 
HETATM   18  C18 UNL     1      22.382  -1.078  54.659  1.00  0.00     0.116 A 
HETATM   19  F1  UNL     1      22.732  -2.040  55.548  1.00  0.00    -0.206 F 
HETATM   20  C19 UNL     1      21.236  -0.313  54.778  1.00  0.00     0.043 A 
HETATM   21  C20 UNL     1      20.856   0.667  53.894  1.00  0.00     0.012 A 
ENDBRANCH  13  15
ENDBRANCH  11  13
ENDBRANCH   1  11
BRANCH   8  22
HETATM   22  P1  UNL     1      27.501   1.798  53.181  1.00  0.00     0.003 P 
BRANCH  22  23
HETATM   23  C9  UNL     1      27.946   0.024  53.129  1.00  0.00    -0.020 A 
HETATM   24  C10 UNL     1      27.001  -0.906  52.738  1.00  0.00     0.013 A 
HETATM   25  C11 UNL     1      27.378  -2.221  52.713  1.00  0.00     0.001 A 
HETATM   26  C12 UNL     1      28.659  -2.617  53.068  1.00  0.00     0.000 A 
HETATM   27  C13 UNL     1      29.606  -1.685  53.461  1.00  0.00     0.001 A 
HETATM   28  C14 UNL     1      29.233  -0.336  53.490  1.00  0.00     0.013 A 
ENDBRANCH  22  23
ENDBRANCH   8  22
TORSDOF 5
ENDMDL
MODEL 3
REMARK VINA RESULT:      -9.1      2.389      6.241
REMARK  5 active torsions:
REMARK  status: ('A' for Active; 'I' for Inactive)
REMARK    1  A    between atoms: C2_2  and  N1_3 
REMARK    2  A    between atoms: C2_2  and  C15_20 
REMARK    3  A    between atoms: N1_3  and  C3_4 
REMARK    4  A    between atoms: C8_11  and  P1_12 
REMARK    5  A    between atoms: P1_12  and  C9_13 
ROOT
HETATM    1  C3  UNL     1      27.008   1.793  52.792  1.00  0.00     0.135 A 
HETATM    2  N2  UNL     1      28.338   1.670  52.959  1.00  0.00    -0.224 NA
HETATM    3  C4  UNL     1      28.848   0.640  53.658  1.00  0.00     0.237 A 
HETATM    4  N3  UNL     1      28.069  -0.323  54.230  1.00  0.00    -0.224 NA
HETATM    5  C5  UNL     1      26.733  -0.213  54.072  1.00  0.00     0.139 A 
HETATM    6  C6  UNL     1      26.207   0.826  53.366  1.00  0.00     0.039 A 
HETATM    7  C7  UNL     1      24.717   0.742  53.324  1.00  0.00     0.105 A 
HETATM    8  C8  UNL     1      24.425  -0.493  54.103  1.00  0.00     0.029 A 
HETATM    9  N4  UNL     1      25.668  -1.034  54.534  1.00  0.00    -0.342 N 
HETATM   10  H14 UNL     1      25.663  -1.894  55.089  1.00  0.00     0.167 HD
ENDROOT
BRANCH   1  11
HETATM   11  N1  UNL     1      26.506   2.894  52.048  1.00  0.00    -0.366 N 
HETATM   12  H5  UNL     1      26.643   3.849  52.495  1.00  0.00     0.161 HD
BRANCH  11  13
HETATM   13  C2  UNL     1      25.852   2.740  50.766  1.00  0.00     0.112 C 
HETATM   14  C1  UNL     1      26.650   3.517  49.715  1.00  0.00     0.037 C 
BRANCH  13  15
HETATM   15  C15 UNL     1      24.433   3.202  50.784  1.00  0.00    -0.036 A 
HETATM   16  C16 UNL     1      23.846   3.751  51.927  1.00  0.00     0.012 A 
HETATM   17  C17 UNL     1      22.539   4.179  51.947  1.00  0.00     0.043 A 
HETATM   18  C18 UNL     1      21.797   4.060  50.804  1.00  0.00     0.116 A 
HETATM   19  F1  UNL     1      20.509   4.483  50.830  1.00  0.00    -0.206 F 
HETATM   20  C19 UNL     1      22.396   3.515  49.683  1.00  0.00     0.043 A 
HETATM   21  C20 UNL     1      23.697   3.077  49.627  1.00  0.00     0.012 A 
ENDBRANCH  13  15
ENDBRANCH  11  13
ENDBRANCH   1  11
BRANCH   8  22
HETATM   22  P1  UNL     1      22.842  -0.895  54.261  1.00  0.00     0.003 P 
BRANCH  22  23
HETATM   23  C9  UNL     1      21.517  -0.410  53.096  1.00  0.00    -0.020 A 
HETATM   24  C10 UNL     1      21.851   0.096  51.854  1.00  0.00     0.013 A 
HETATM   25  C11 UNL     1      20.827   0.445  51.016  1.00  0.00     0.001 A 
HETATM   26  C12 UNL     1      19.499   0.302  51.391  1.00  0.00     0.000 A 
HETATM   27  C13 UNL     1      19.165  -0.206  52.635  1.00  0.00     0.001 A 
HETATM   28  C14 UNL     1      20.203  -0.567  53.503  1.00  0.00     0.013 A 
ENDBRANCH  22  23
ENDBRANCH   8  22
TORSDOF 5
ENDMDL
MODEL 4
REMARK VINA RESULT:      -8.9      1.575      2.242
REMARK  5 active torsions:
REMARK  status: ('A' for Active; 'I' for Inactive)
REMARK    1  A    between atoms: C2_2  and  N1_3 
REMARK    2  A    between atoms: C2_2  and  C15_20 
REMARK    3  A    between atoms: N1_3  and  C3_4 
REMARK    4  A    between atoms: C8_11  and  P1_12 
REMARK    5  A    between atoms: P1_12  and  C9_13 
ROOT
HETATM    1  C3  UNL     1      25.148  -0.027  53.679  1.00  0.00     0.135 A 
HETATM    2  N2  UNL     1      25.732  -0.454  54.815  1.00  0.00    -0.224 NA
HETATM    3  C4  UNL     1      26.907   0.064  55.217  1.00  0.00     0.237 A 
HETATM    4  N3  UNL     1      27.567   1.031  54.516  1.00  0.00    -0.224 NA
HETATM    5  C5  UNL     1      26.994   1.469  53.375  1.00  0.00     0.139 A 
HETATM    6  C6  UNL     1      25.804   0.951  52.960  1.00  0.00     0.039 A 
HETATM    7  C7  UNL     1      25.366   1.582  51.680  1.00  0.00     0.105 A 
HETATM    8  C8  UNL     1      26.459   2.550  51.387  1.00  0.00     0.029 A 
HETATM    9  N4  UNL     1      27.416   2.447  52.434  1.00  0.00    -0.342 N 
HETATM   10  H14 UNL     1      28.247   3.045  52.400  1.00  0.00     0.167 HD
ENDROOT
BRANCH   1  11
HETATM   11  N1  UNL     1      23.907  -0.598  53.287  1.00  0.00    -0.366 N 
HETATM   12  H5  UNL     1      23.964  -1.336  52.525  1.00  0.00     0.161 HD
BRANCH  11  13
HETATM   13  C2  UNL     1      22.645  -0.209  53.879  1.00  0.00     0.112 C 
HETATM   14  C1  UNL     1      22.221  -1.290  54.876  1.00  0.00     0.037 C 
BRANCH  13  15
HETATM   15  C15 UNL     1      21.574   0.005  52.862  1.00  0.00    -0.036 A 
HETATM   16  C16 UNL     1      20.228  -0.250  53.138  1.00  0.00     0.012 A 
HETATM   17  C17 UNL     1      19.238  -0.054  52.205  1.00  0.00     0.043 A 
HETATM   18  C18 UNL     1      19.591   0.406  50.966  1.00  0.00     0.116 A 
HETATM   19  F1  UNL     1      18.611   0.597  50.050  1.00  0.00    -0.206 F 
HETATM   20  C19 UNL     1      20.929   0.653  50.712  1.00  0.00     0.043 A 
HETATM   21  C20 UNL     1      21.943   0.469  51.620  1.00  0.00     0.012 A 
ENDBRANCH  13  15
ENDBRANCH  11  13
ENDBRANCH   1  11
BRANCH   8  22
HETATM   22  P1  UNL     1      26.296   3.437  50.016  1.00  0.00     0.003 P 
BRANCH  22  23
HETATM   23  C9  UNL     1      24.701   3.991  49.311  1.00  0.00    -0.020 A 
HETATM   24  C10 UNL     1      23.698   3.068  49.082  1.00  0.00     0.013 A 
HETATM   25  C11 UNL     1      22.523   3.527  48.554  1.00  0.00     0.001 A 
HETATM   26  C12 UNL     1      22.335   4.869  48.253  1.00  0.00     0.000 A 
HETATM   27  C13 UNL     1      23.341   5.794  48.482  1.00  0.00     0.001 A 
HETATM   28  C14 UNL     1      24.549   5.337  49.023  1.00  0.00     0.013 A 
ENDBRANCH  22  23
ENDBRANCH   8  22
TORSDOF 5
ENDMDL
MODEL 5
REMARK VINA RESULT:      -8.9      3.780      8.099
REMARK  5 active torsions:
REMARK  status: ('A' for Active; 'I' for Inactive)
REMARK    1  A    between atoms: C2_2  and  N1_3 
REMARK    2  A    between atoms: C2_2  and  C15_20 
REMARK    3  A    between atoms: N1_3  and  C3_4 
REMARK    4  A    between atoms: C8_11  and  P1_12 
REMARK    5  A    between atoms: P1_12  and  C9_13 
ROOT
HETATM    1  C3  UNL     1      23.789   4.009  51.237  1.00  0.00     0.135 A 
HETATM    2  N2  UNL     1      22.694   4.724  50.918  1.00  0.00    -0.224 NA
HETATM    3  C4  UNL     1      21.471   4.308  51.292  1.00  0.00     0.237 A 
HETATM    4  N3  UNL     1      21.266   3.161  52.003  1.00  0.00    -0.224 NA
HETATM    5  C5  UNL     1      22.354   2.433  52.330  1.00  0.00     0.139 A 
HETATM    6  C6  UNL     1      23.597   2.846  51.956  1.00  0.00     0.039 A 
HETATM    7  C7  UNL     1      24.642   1.889  52.426  1.00  0.00     0.105 A 
HETATM    8  C8  UNL     1      23.851   0.844  53.134  1.00  0.00     0.029 A 
HETATM    9  N4  UNL     1      22.480   1.214  53.051  1.00  0.00    -0.342 N 
HETATM   10  H14 UNL     1      21.781   0.606  53.487  1.00  0.00     0.167 HD
ENDROOT
BRANCH   1  11
HETATM   11  N1  UNL     1      25.064   4.481  50.824  1.00  0.00    -0.366 N 
HETATM   12  H5  UNL     1      25.558   5.125  51.511  1.00  0.00     0.161 HD
BRANCH  11  13
HETATM   13  C2  UNL     1      25.661   4.116  49.558  1.00  0.00     0.112 C 
HETATM   14  C1  UNL     1      26.564   2.898  49.779  1.00  0.00     0.037 C 
BRANCH  13  15
HETATM   15  C15 UNL     1      26.440   5.231  48.945  1.00  0.00    -0.036 A 
HETATM   16  C16 UNL     1      27.793   5.103  48.624  1.00  0.00     0.012 A 
HETATM   17  C17 UNL     1      28.514   6.127  48.058  1.00  0.00     0.043 A 
HETATM   18  C18 UNL     1      27.876   7.310  47.803  1.00  0.00     0.116 A 
HETATM   19  F1  UNL     1      28.591   8.318  47.246  1.00  0.00    -0.206 F 
HETATM   20  C19 UNL     1      26.535   7.418  48.128  1.00  0.00     0.043 A 
HETATM   21  C20 UNL     1      25.785   6.416  48.694  1.00  0.00     0.012 A 
ENDBRANCH  13  15
ENDBRANCH  11  13
ENDBRANCH   1  11
BRANCH   8  22
HETATM   22  P1  UNL     1      24.705  -0.393  53.791  1.00  0.00     0.003 P 
BRANCH  22  23
HETATM   23  C9  UNL     1      26.531  -0.504  53.823  1.00  0.00    -0.020 A 
HETATM   24  C10 UNL     1      27.178  -1.372  52.964  1.00  0.00     0.013 A 
HETATM   25  C11 UNL     1      28.543  -1.422  53.022  1.00  0.00     0.001 A 
HETATM   26  C12 UNL     1      29.262  -0.635  53.910  1.00  0.00     0.000 A 
HETATM   27  C13 UNL     1      28.615   0.235  54.771  1.00  0.00     0.001 A 
HETATM   28  C14 UNL     1      27.217   0.296  54.721  1.00  0.00     0.013 A 
ENDBRANCH  22  23
ENDBRANCH   8  22
TORSDOF 5
ENDMDL
MODEL 6
REMARK VINA RESULT:      -8.8      3.726      7.769
REMARK  5 active torsions:
REMARK  status: ('A' for Active; 'I' for Inactive)
REMARK    1  A    between atoms: C2_2  and  N1_3 
REMARK    2  A    between atoms: C2_2  and  C15_20 
REMARK    3  A    between atoms: N1_3  and  C3_4 
REMARK    4  A    between atoms: C8_11  and  P1_12 
REMARK    5  A    between atoms: P1_12  and  C9_13 
ROOT
HETATM    1  C3  UNL     1      22.229   3.631  51.498  1.00  0.00     0.135 A 
HETATM    2  N2  UNL     1      21.043   4.235  51.296  1.00  0.00    -0.224 NA
HETATM    3  C4  UNL     1      19.911   3.705  51.794  1.00  0.00     0.237 A 
HETATM    4  N3  UNL     1      19.892   2.548  52.517  1.00  0.00    -0.224 NA
HETATM    5  C5  UNL     1      21.074   1.930  52.727  1.00  0.00     0.139 A 
HETATM    6  C6  UNL     1      22.225   2.459  52.228  1.00  0.00     0.039 A 
HETATM    7  C7  UNL     1      23.400   1.609  52.583  1.00  0.00     0.105 A 
HETATM    8  C8  UNL     1      22.791   0.498  53.366  1.00  0.00     0.029 A 
HETATM    9  N4  UNL     1      21.389   0.734  53.426  1.00  0.00    -0.342 N 
HETATM   10  H14 UNL     1      20.801   0.064  53.931  1.00  0.00     0.167 HD
ENDROOT
BRANCH   1  11
HETATM   11  N1  UNL     1      23.403   4.220  50.956  1.00  0.00    -0.366 N 
HETATM   12  H5  UNL     1      24.153   4.479  51.664  1.00  0.00     0.161 HD
BRANCH  11  13
HETATM   13  C2  UNL     1      23.579   4.456  49.540  1.00  0.00     0.112 C 
HETATM   14  C1  UNL     1      23.166   3.192  48.781  1.00  0.00     0.037 C 
BRANCH  13  15
HETATM   15  C15 UNL     1      24.979   4.837  49.188  1.00  0.00    -0.036 A 
HETATM   16  C16 UNL     1      25.298   6.094  48.670  1.00  0.00     0.012 A 
HETATM   17  C17 UNL     1      26.586   6.449  48.346  1.00  0.00     0.043 A 
HETATM   18  C18 UNL     1      27.582   5.533  48.539  1.00  0.00     0.116 A 
HETATM   19  F1  UNL     1      28.850   5.887  48.217  1.00  0.00    -0.206 F 
HETATM   20  C19 UNL     1      27.246   4.292  49.053  1.00  0.00     0.043 A 
HETATM   21  C20 UNL     1      25.972   3.905  49.388  1.00  0.00     0.012 A 
ENDBRANCH  13  15
ENDBRANCH  11  13
ENDBRANCH   1  11
BRANCH   8  22
HETATM   22  P1  UNL     1      23.824  -0.647  53.926  1.00  0.00     0.003 P 
BRANCH  22  23
HETATM   23  C9  UNL     1      25.649  -0.522  53.885  1.00  0.00    -0.020 A 
HETATM   24  C10 UNL     1      26.307   0.189  54.870  1.00  0.00     0.013 A 
HETATM   25  C11 UNL     1      27.672   0.256  54.799  1.00  0.00     0.001 A 
HETATM   26  C12 UNL     1      28.378  -0.365  53.779  1.00  0.00     0.000 A 
HETATM   27  C13 UNL     1      27.718  -1.078  52.792  1.00  0.00     0.001 A 
HETATM   28  C14 UNL     1      26.322  -1.153  52.852  1.00  0.00     0.013 A 
ENDBRANCH  22  23
ENDBRANCH   8  22
TORSDOF 5
ENDMDL
MODEL 7
REMARK VINA RESULT:      -8.6      4.103      8.667
REMARK  5 active torsions:
REMARK  status: ('A' for Active; 'I' for Inactive)
REMARK    1  A    between atoms: C2_2  and  N1_3 
REMARK    2  A    between atoms: C2_2  and  C15_20 
REMARK    3  A    between atoms: N1_3  and  C3_4 
REMARK    4  A    between atoms: C8_11  and  P1_12 
REMARK    5  A    between atoms: P1_12  and  C9_13 
ROOT
HETATM    1  C3  UNL     1      23.778  -0.331  53.547  1.00  0.00     0.135 A 
HETATM    2  N2  UNL     1      24.251  -0.920  54.661  1.00  0.00    -0.224 NA
HETATM    3  C4  UNL     1      23.407  -1.447  55.568  1.00  0.00     0.237 A 
HETATM    4  N3  UNL     1      22.051  -1.417  55.420  1.00  0.00    -0.224 NA
HETATM    5  C5  UNL     1      21.562  -0.829  54.307  1.00  0.00     0.139 A 
HETATM    6  C6  UNL     1      22.408  -0.294  53.383  1.00  0.00     0.039 A 
HETATM    7  C7  UNL     1      21.648   0.299  52.244  1.00  0.00     0.105 A 
HETATM    8  C8  UNL     1      20.228   0.044  52.614  1.00  0.00     0.029 A 
HETATM    9  N4  UNL     1      20.225  -0.637  53.863  1.00  0.00    -0.342 N 
HETATM   10  H14 UNL     1      19.326  -0.897  54.278  1.00  0.00     0.167 HD
ENDROOT
BRANCH   1  11
HETATM   11  N1  UNL     1      24.701   0.213  52.612  1.00  0.00    -0.366 N 
HETATM   12  H5  UNL     1      24.605  -0.143  51.616  1.00  0.00     0.161 HD
BRANCH  11  13
HETATM   13  C2  UNL     1      25.705   1.187  52.981  1.00  0.00     0.112 C 
HETATM   14  C1  UNL     1      25.804   2.230  51.864  1.00  0.00     0.037 C 
BRANCH  13  15
HETATM   15  C15 UNL     1      27.041   0.571  53.232  1.00  0.00    -0.036 A 
HETATM   16  C16 UNL     1      28.087   1.283  53.823  1.00  0.00     0.012 A 
HETATM   17  C17 UNL     1      29.319   0.719  54.057  1.00  0.00     0.043 A 
HETATM   18  C18 UNL     1      29.517  -0.585  53.695  1.00  0.00     0.116 A 
HETATM   19  F1  UNL     1      30.734  -1.137  53.927  1.00  0.00    -0.206 F 
HETATM   20  C19 UNL     1      28.469  -1.274  53.111  1.00  0.00     0.043 A 
HETATM   21  C20 UNL     1      27.227  -0.743  52.863  1.00  0.00     0.012 A 
ENDBRANCH  13  15
ENDBRANCH  11  13
ENDBRANCH   1  11
BRANCH   8  22
HETATM   22  P1  UNL     1      19.094   0.579  51.556  1.00  0.00     0.003 P 
BRANCH  22  23
HETATM   23  C9  UNL     1      17.520  -0.277  51.186  1.00  0.00    -0.020 A 
HETATM   24  C10 UNL     1      16.970  -0.180  49.921  1.00  0.00     0.013 A 
HETATM   25  C11 UNL     1      15.793  -0.837  49.690  1.00  0.00     0.001 A 
HETATM   26  C12 UNL     1      15.164  -1.575  50.682  1.00  0.00     0.000 A 
HETATM   27  C13 UNL     1      15.714  -1.672  51.949  1.00  0.00     0.001 A 
HETATM   28  C14 UNL     1      16.920  -1.004  52.200  1.00  0.00     0.013 A 
ENDBRANCH  22  23
ENDBRANCH   8  22
TORSDOF 5
ENDMDL
MODEL 8
REMARK VINA RESULT:      -8.6      3.006      7.680
REMARK  5 active torsions:
REMARK  status: ('A' for Active; 'I' for Inactive)
REMARK    1  A    between atoms: C2_2  and  N1_3 
REMARK    2  A    between atoms: C2_2  and  C15_20 
REMARK    3  A    between atoms: N1_3  and  C3_4 
REMARK    4  A    between atoms: C8_11  and  P1_12 
REMARK    5  A    between atoms: P1_12  and  C9_13 
ROOT
HETATM    1  C3  UNL     1      25.696   0.976  52.305  1.00  0.00     0.135 A 
HETATM    2  N2  UNL     1      27.019   0.928  52.551  1.00  0.00    -0.224 NA
HETATM    3  C4  UNL     1      27.496   0.227  53.596  1.00  0.00     0.237 A 
HETATM    4  N3  UNL     1      26.689  -0.462  54.454  1.00  0.00    -0.224 NA
HETATM    5  C5  UNL     1      25.360  -0.422  54.221  1.00  0.00     0.139 A 
HETATM    6  C6  UNL     1      24.867   0.283  53.165  1.00  0.00     0.039 A 
HETATM    7  C7  UNL     1      23.379   0.185  53.106  1.00  0.00     0.105 A 
HETATM    8  C8  UNL     1      23.049  -0.680  54.273  1.00  0.00     0.029 A 
HETATM    9  N4  UNL     1      24.273  -1.020  54.914  1.00  0.00    -0.342 N 
HETATM   10  H14 UNL     1      24.241  -1.617  55.746  1.00  0.00     0.167 HD
ENDROOT
BRANCH   1  11
HETATM   11  N1  UNL     1      25.230   1.726  51.192  1.00  0.00    -0.366 N 
HETATM   12  H5  UNL     1      25.222   1.209  50.264  1.00  0.00     0.161 HD
BRANCH  11  13
HETATM   13  C2  UNL     1      24.792   3.101  51.303  1.00  0.00     0.112 C 
HETATM   14  C1  UNL     1      23.289   3.158  51.014  1.00  0.00     0.037 C 
BRANCH  13  15
HETATM   15  C15 UNL     1      25.530   4.016  50.383  1.00  0.00    -0.036 A 
HETATM   16  C16 UNL     1      26.673   3.610  49.691  1.00  0.00     0.012 A 
HETATM   17  C17 UNL     1      27.355   4.450  48.843  1.00  0.00     0.043 A 
HETATM   18  C18 UNL     1      26.891   5.725  48.677  1.00  0.00     0.116 A 
HETATM   19  F1  UNL     1      27.567   6.550  47.840  1.00  0.00    -0.206 F 
HETATM   20  C19 UNL     1      25.757   6.110  49.371  1.00  0.00     0.043 A 
HETATM   21  C20 UNL     1      25.052   5.298  50.225  1.00  0.00     0.012 A 
ENDBRANCH  13  15
ENDBRANCH  11  13
ENDBRANCH   1  11
BRANCH   8  22
HETATM   22  P1  UNL     1      21.459  -1.001  54.512  1.00  0.00     0.003 P 
BRANCH  22  23
HETATM   23  C9  UNL     1      20.127  -0.656  53.306  1.00  0.00    -0.020 A 
HETATM   24  C10 UNL     1      20.364   0.211  52.256  1.00  0.00     0.013 A 
HETATM   25  C11 UNL     1      19.340   0.440  51.379  1.00  0.00     0.001 A 
HETATM   26  C12 UNL     1      18.103  -0.171  51.529  1.00  0.00     0.000 A 
HETATM   27  C13 UNL     1      17.865  -1.040  52.581  1.00  0.00     0.001 A 
HETATM   28  C14 UNL     1      18.905  -1.282  53.487  1.00  0.00     0.013 A 
ENDBRANCH  22  23
ENDBRANCH   8  22
TORSDOF 5
ENDMDL
MODEL 9
REMARK VINA RESULT:      -8.5      3.353      5.807
REMARK  5 active torsions:
REMARK  status: ('A' for Active; 'I' for Inactive)
REMARK    1  A    between atoms: C2_2  and  N1_3 
REMARK    2  A    between atoms: C2_2  and  C15_20 
REMARK    3  A    between atoms: N1_3  and  C3_4 
REMARK    4  A    between atoms: C8_11  and  P1_12 
REMARK    5  A    between atoms: P1_12  and  C9_13 
ROOT
HETATM    1  C3  UNL     1      20.348   0.054  52.932  1.00  0.00     0.135 A 
HETATM    2  N2  UNL     1      19.341  -0.664  53.464  1.00  0.00    -0.224 NA
HETATM    3  C4  UNL     1      18.212  -0.882  52.766  1.00  0.00     0.237 A 
HETATM    4  N3  UNL     1      18.019  -0.401  51.503  1.00  0.00    -0.224 NA
HETATM    5  C5  UNL     1      19.020   0.321  50.956  1.00  0.00     0.139 A 
HETATM    6  C6  UNL     1      20.167   0.547  51.655  1.00  0.00     0.039 A 
HETATM    7  C7  UNL     1      21.126   1.365  50.855  1.00  0.00     0.105 A 
HETATM    8  C8  UNL     1      20.393   1.596  49.579  1.00  0.00     0.029 A 
HETATM    9  N4  UNL     1      19.131   0.949  49.686  1.00  0.00    -0.342 N 
HETATM   10  H14 UNL     1      18.484   1.002  48.893  1.00  0.00     0.167 HD
ENDROOT
BRANCH   1  11
HETATM   11  N1  UNL     1      21.525   0.264  53.700  1.00  0.00    -0.366 N 
HETATM   12  H5  UNL     1      21.534   1.147  54.291  1.00  0.00     0.161 HD
BRANCH  11  13
HETATM   13  C2  UNL     1      22.642  -0.656  53.687  1.00  0.00     0.112 C 
HETATM   14  C1  UNL     1      22.785  -1.268  55.083  1.00  0.00     0.037 C 
BRANCH  13  15
HETATM   15  C15 UNL     1      23.920  -0.004  53.275  1.00  0.00    -0.036 A 
HETATM   16  C16 UNL     1      25.096  -0.734  53.083  1.00  0.00     0.012 A 
HETATM   17  C17 UNL     1      26.275  -0.138  52.703  1.00  0.00     0.043 A 
HETATM   18  C18 UNL     1      26.288   1.216  52.509  1.00  0.00     0.116 A 
HETATM   19  F1  UNL     1      27.454   1.799  52.135  1.00  0.00    -0.206 F 
HETATM   20  C19 UNL     1      25.114   1.921  52.705  1.00  0.00     0.043 A 
HETATM   21  C20 UNL     1      23.920   1.359  53.083  1.00  0.00     0.012 A 
ENDBRANCH  13  15
ENDBRANCH  11  13
ENDBRANCH   1  11
BRANCH   8  22
HETATM   22  P1  UNL     1      21.176   2.483  48.443  1.00  0.00     0.003 P 
BRANCH  22  23
HETATM   23  C9  UNL     1      22.692   3.463  48.739  1.00  0.00    -0.020 A 
HETATM   24  C10 UNL     1      23.793   2.860  49.318  1.00  0.00     0.013 A 
HETATM   25  C11 UNL     1      24.905   3.631  49.520  1.00  0.00     0.001 A 
HETATM   26  C12 UNL     1      24.936   4.971  49.162  1.00  0.00     0.000 A 
HETATM   27  C13 UNL     1      23.833   5.575  48.582  1.00  0.00     0.001 A 
HETATM   28  C14 UNL     1      22.688   4.797  48.370  1.00  0.00     0.013 A 
ENDBRANCH  22  23
ENDBRANCH   8  22
TORSDOF 5
ENDMDL
