MODEL 1
REMARK VINA RESULT:      -7.0      0.000      0.000
REMARK  6 active torsions:
REMARK  status: ('A' for Active; 'I' for Inactive)
REMARK    1  A    between atoms: C2_3  and  C3_4 
REMARK    2  A    between atoms: C4_5  and  C5_6 
REMARK    3  A    between atoms: C5_6  and  N1_7 
REMARK    4  A    between atoms: C8_11  and  N3_12 
REMARK    5  A    between atoms: N3_12  and  C9_13 
REMARK    6  A    between atoms: C9_13  and  C10_14 
ROOT
HETATM    1 CL1  UNL     1      21.821   0.177  51.083  1.00  0.00    -0.023 Cl
HETATM    2  C1  UNL     1      21.218   1.140  49.774  1.00  0.00     0.009 C 
HETATM    3  C2  UNL     1      20.801   1.813  48.850  1.00  0.00    -0.061 C 
ENDROOT
BRANCH   3   4
HETATM    4  C3  UNL     1      20.303   2.606  47.763  1.00  0.00     0.063 C 
HETATM    5  C4  UNL     1      19.841   3.807  48.021  1.00  0.00     0.004 C 
BRANCH   5   6
HETATM    6  C5  UNL     1      19.755   4.492  49.338  1.00  0.00     0.180 C 
BRANCH   6   7
HETATM    7  N1  UNL     1      21.059   5.028  49.685  1.00  0.00    -0.261 N 
HETATM    8  C6  UNL     1      21.292   4.930  51.103  1.00  0.00     0.222 C 
HETATM    9  N2  UNL     1      22.356   4.715  51.804  1.00  0.00    -0.277 NA
HETATM   10  C7  UNL     1      23.744   4.472  51.746  1.00  0.00     0.206 C 
HETATM   11  C8  UNL     1      24.441   4.691  50.491  1.00  0.00     0.026 C 
HETATM   12  C17 UNL     1      24.330   5.095  49.232  1.00  0.00     0.047 C 
HETATM   13  C18 UNL     1      23.170   5.584  48.489  1.00  0.00     0.141 C 
HETATM   14  N4  UNL     1      21.896   5.547  48.685  1.00  0.00    -0.184 NA
BRANCH  11  15
HETATM   15  N3  UNL     1      25.770   4.295  50.785  1.00  0.00    -0.387 N 
HETATM   16  H8  UNL     1      26.165   5.024  51.418  1.00  0.00     0.159 HD
BRANCH  15  17
HETATM   17  C9  UNL     1      26.546   3.146  50.367  1.00  0.00     0.158 C 
BRANCH  17  18
HETATM   18  C10 UNL     1      26.552   2.173  51.485  1.00  0.00    -0.038 A 
HETATM   19  C11 UNL     1      25.645   1.155  51.697  1.00  0.00     0.012 A 
HETATM   20  C12 UNL     1      25.772   0.314  52.789  1.00  0.00     0.040 A 
HETATM   21  C13 UNL     1      26.792   0.437  53.714  1.00  0.00     0.105 A 
HETATM   22  C14 UNL     1      27.701   1.454  53.505  1.00  0.00     0.105 A 
HETATM   23  O2  UNL     1      27.175  -0.230  54.875  1.00  0.00    -0.323 OA
HETATM   24  C15 UNL     1      27.582   2.296  52.421  1.00  0.00     0.048 A 
HETATM   25  O1  UNL     1      28.624   1.374  54.562  1.00  0.00    -0.323 OA
HETATM   26  C16 UNL     1      28.558   0.052  55.114  1.00  0.00     0.352 C 
ENDBRANCH  17  18
ENDBRANCH  15  17
ENDBRANCH  11  15
ENDBRANCH   6   7
ENDBRANCH   5   6
ENDBRANCH   3   4
TORSDOF 6
ENDMDL
MODEL 2
REMARK VINA RESULT:      -7.0      3.749      5.546
REMARK  6 active torsions:
REMARK  status: ('A' for Active; 'I' for Inactive)
REMARK    1  A    between atoms: C2_3  and  C3_4 
REMARK    2  A    between atoms: C4_5  and  C5_6 
REMARK    3  A    between atoms: C5_6  and  N1_7 
REMARK    4  A    between atoms: C8_11  and  N3_12 
REMARK    5  A    between atoms: N3_12  and  C9_13 
REMARK    6  A    between atoms: C9_13  and  C10_14 
ROOT
HETATM    1 CL1  UNL     1      27.368   8.902  44.643  1.00  0.00    -0.023 Cl
HETATM    2  C1  UNL     1      26.931   9.502  46.209  1.00  0.00     0.009 C 
HETATM    3  C2  UNL     1      26.615   9.924  47.306  1.00  0.00    -0.061 C 
ENDROOT
BRANCH   3   4
HETATM    4  C3  UNL     1      26.248  10.418  48.602  1.00  0.00     0.063 C 
HETATM    5  C4  UNL     1      26.477   9.663  49.651  1.00  0.00     0.004 C 
BRANCH   5   6
HETATM    6  C5  UNL     1      27.088   8.308  49.688  1.00  0.00     0.180 C 
BRANCH   6   7
HETATM    7  N1  UNL     1      26.036   7.307  49.664  1.00  0.00    -0.261 N 
HETATM    8  C6  UNL     1      26.445   6.154  48.904  1.00  0.00     0.222 C 
HETATM    9  N2  UNL     1      26.204   4.890  49.030  1.00  0.00    -0.277 NA
HETATM   10  C7  UNL     1      25.534   3.917  49.801  1.00  0.00     0.206 C 
HETATM   11  C8  UNL     1      24.537   4.351  50.764  1.00  0.00     0.026 C 
HETATM   12  C17 UNL     1      23.886   5.386  51.275  1.00  0.00     0.047 C 
HETATM   13  C18 UNL     1      23.972   6.811  50.962  1.00  0.00     0.141 C 
HETATM   14  N4  UNL     1      24.824   7.544  50.329  1.00  0.00    -0.184 NA
BRANCH  11  15
HETATM   15  N3  UNL     1      24.133   3.139  51.379  1.00  0.00    -0.387 N 
HETATM   16  H8  UNL     1      24.063   2.428  50.619  1.00  0.00     0.159 HD
BRANCH  15  17
HETATM   17  C9  UNL     1      23.845   2.810  52.759  1.00  0.00     0.158 C 
BRANCH  17  18
HETATM   18  C10 UNL     1      24.767   1.725  53.170  1.00  0.00    -0.038 A 
HETATM   19  C11 UNL     1      24.539   0.367  53.071  1.00  0.00     0.012 A 
HETATM   20  C12 UNL     1      25.494  -0.540  53.495  1.00  0.00     0.040 A 
HETATM   21  C13 UNL     1      26.708  -0.154  54.032  1.00  0.00     0.105 A 
HETATM   22  C14 UNL     1      26.940   1.203  54.132  1.00  0.00     0.105 A 
HETATM   23  O2  UNL     1      27.834  -0.806  54.531  1.00  0.00    -0.323 OA
HETATM   24  C15 UNL     1      25.995   2.113  53.712  1.00  0.00     0.048 A 
HETATM   25  O1  UNL     1      28.219   1.338  54.699  1.00  0.00    -0.323 OA
HETATM   26  C16 UNL     1      28.932   0.112  54.490  1.00  0.00     0.352 C 
ENDBRANCH  17  18
ENDBRANCH  15  17
ENDBRANCH  11  15
ENDBRANCH   6   7
ENDBRANCH   5   6
ENDBRANCH   3   4
TORSDOF 6
ENDMDL
MODEL 3
REMARK VINA RESULT:      -6.9      4.043      5.877
REMARK  6 active torsions:
REMARK  status: ('A' for Active; 'I' for Inactive)
REMARK    1  A    between atoms: C2_3  and  C3_4 
REMARK    2  A    between atoms: C4_5  and  C5_6 
REMARK    3  A    between atoms: C5_6  and  N1_7 
REMARK    4  A    between atoms: C8_11  and  N3_12 
REMARK    5  A    between atoms: N3_12  and  C9_13 
REMARK    6  A    between atoms: C9_13  and  C10_14 
ROOT
HETATM    1 CL1  UNL     1      23.915  -1.380  55.470  1.00  0.00    -0.023 Cl
HETATM    2  C1  UNL     1      22.490  -0.660  54.796  1.00  0.00     0.009 C 
HETATM    3  C2  UNL     1      21.494  -0.149  54.318  1.00  0.00    -0.061 C 
ENDROOT
BRANCH   3   4
HETATM    4  C3  UNL     1      20.318   0.449  53.755  1.00  0.00     0.063 C 
HETATM    5  C4  UNL     1      20.355   0.856  52.508  1.00  0.00     0.004 C 
BRANCH   5   6
HETATM    6  C5  UNL     1      21.492   0.785  51.555  1.00  0.00     0.180 C 
BRANCH   6   7
HETATM    7  N1  UNL     1      22.435   1.849  51.852  1.00  0.00    -0.261 N 
HETATM    8  C6  UNL     1      23.788   1.357  51.822  1.00  0.00     0.222 C 
HETATM    9  N2  UNL     1      24.907   1.893  51.459  1.00  0.00    -0.277 NA
HETATM   10  C7  UNL     1      25.514   3.058  50.946  1.00  0.00     0.206 C 
HETATM   11  C8  UNL     1      24.751   4.294  50.926  1.00  0.00     0.026 C 
HETATM   12  C17 UNL     1      23.604   4.878  51.245  1.00  0.00     0.047 C 
HETATM   13  C18 UNL     1      22.409   4.337  51.890  1.00  0.00     0.141 C 
HETATM   14  N4  UNL     1      21.970   3.146  52.118  1.00  0.00    -0.184 NA
BRANCH  11  15
HETATM   15  N3  UNL     1      25.635   5.210  50.303  1.00  0.00    -0.387 N 
HETATM   16  H8  UNL     1      26.328   5.495  51.028  1.00  0.00     0.159 HD
BRANCH  15  17
HETATM   17  C9  UNL     1      25.686   5.730  48.953  1.00  0.00     0.158 C 
BRANCH  17  18
HETATM   18  C10 UNL     1      27.058   6.238  48.713  1.00  0.00    -0.038 A 
HETATM   19  C11 UNL     1      27.456   7.559  48.692  1.00  0.00     0.012 A 
HETATM   20  C12 UNL     1      28.779   7.892  48.455  1.00  0.00     0.040 A 
HETATM   21  C13 UNL     1      29.761   6.946  48.230  1.00  0.00     0.105 A 
HETATM   22  C14 UNL     1      29.366   5.624  48.252  1.00  0.00     0.105 A 
HETATM   23  O2  UNL     1      31.130   6.967  47.973  1.00  0.00    -0.323 OA
HETATM   24  C15 UNL     1      28.052   5.282  48.487  1.00  0.00     0.048 A 
HETATM   25  O1  UNL     1      30.524   4.868  48.001  1.00  0.00    -0.323 OA
HETATM   26  C16 UNL     1      31.664   5.681  48.309  1.00  0.00     0.352 C 
ENDBRANCH  17  18
ENDBRANCH  15  17
ENDBRANCH  11  15
ENDBRANCH   6   7
ENDBRANCH   5   6
ENDBRANCH   3   4
TORSDOF 6
ENDMDL
MODEL 4
REMARK VINA RESULT:      -6.8      4.652      6.381
REMARK  6 active torsions:
REMARK  status: ('A' for Active; 'I' for Inactive)
REMARK    1  A    between atoms: C2_3  and  C3_4 
REMARK    2  A    between atoms: C4_5  and  C5_6 
REMARK    3  A    between atoms: C5_6  and  N1_7 
REMARK    4  A    between atoms: C8_11  and  N3_12 
REMARK    5  A    between atoms: N3_12  and  C9_13 
REMARK    6  A    between atoms: C9_13  and  C10_14 
ROOT
HETATM    1 CL1  UNL     1      30.779  12.477  49.273  1.00  0.00    -0.023 Cl
HETATM    2  C1  UNL     1      29.736  11.482  48.312  1.00  0.00     0.009 C 
HETATM    3  C2  UNL     1      29.010  10.777  47.636  1.00  0.00    -0.061 C 
ENDROOT
BRANCH   3   4
HETATM    4  C3  UNL     1      28.149   9.948  46.842  1.00  0.00     0.063 C 
HETATM    5  C4  UNL     1      27.396   9.060  47.449  1.00  0.00     0.004 C 
BRANCH   5   6
HETATM    6  C5  UNL     1      27.305   8.779  48.905  1.00  0.00     0.180 C 
BRANCH   6   7
HETATM    7  N1  UNL     1      26.221   7.844  49.147  1.00  0.00    -0.261 N 
HETATM    8  C6  UNL     1      26.561   6.530  48.665  1.00  0.00     0.222 C 
HETATM    9  N2  UNL     1      26.282   5.341  49.090  1.00  0.00    -0.277 NA
HETATM   10  C7  UNL     1      25.612   4.602  50.086  1.00  0.00     0.206 C 
HETATM   11  C8  UNL     1      24.668   5.288  50.951  1.00  0.00     0.026 C 
HETATM   12  C17 UNL     1      24.072   6.440  51.226  1.00  0.00     0.047 C 
HETATM   13  C18 UNL     1      24.193   7.749  50.587  1.00  0.00     0.141 C 
HETATM   14  N4  UNL     1      25.044   8.278  49.775  1.00  0.00    -0.184 NA
BRANCH  11  15
HETATM   15  N3  UNL     1      24.248   4.269  51.844  1.00  0.00    -0.387 N 
HETATM   16  H8  UNL     1      24.545   4.569  52.797  1.00  0.00     0.159 HD
BRANCH  15  17
HETATM   17  C9  UNL     1      23.544   3.025  51.620  1.00  0.00     0.158 C 
BRANCH  17  18
HETATM   18  C10 UNL     1      24.202   1.978  52.437  1.00  0.00    -0.038 A 
HETATM   19  C11 UNL     1      23.752   0.689  52.645  1.00  0.00     0.012 A 
HETATM   20  C12 UNL     1      24.472  -0.189  53.436  1.00  0.00     0.040 A 
HETATM   21  C13 UNL     1      25.658   0.160  54.055  1.00  0.00     0.105 A 
HETATM   22  C14 UNL     1      26.111   1.447  53.849  1.00  0.00     0.105 A 
HETATM   23  O2  UNL     1      26.580  -0.477  54.882  1.00  0.00    -0.323 OA
HETATM   24  C15 UNL     1      25.401   2.329  53.063  1.00  0.00     0.048 A 
HETATM   25  O1  UNL     1      27.312   1.557  54.570  1.00  0.00    -0.323 OA
HETATM   26  C16 UNL     1      27.819   0.235  54.797  1.00  0.00     0.352 C 
ENDBRANCH  17  18
ENDBRANCH  15  17
ENDBRANCH  11  15
ENDBRANCH   6   7
ENDBRANCH   5   6
ENDBRANCH   3   4
TORSDOF 6
ENDMDL
MODEL 5
REMARK VINA RESULT:      -6.7      4.799      6.968
REMARK  6 active torsions:
REMARK  status: ('A' for Active; 'I' for Inactive)
REMARK    1  A    between atoms: C2_3  and  C3_4 
REMARK    2  A    between atoms: C4_5  and  C5_6 
REMARK    3  A    between atoms: C5_6  and  N1_7 
REMARK    4  A    between atoms: C8_11  and  N3_12 
REMARK    5  A    between atoms: N3_12  and  C9_13 
REMARK    6  A    between atoms: C9_13  and  C10_14 
ROOT
HETATM    1 CL1  UNL     1      28.985  11.835  48.251  1.00  0.00    -0.023 Cl
HETATM    2  C1  UNL     1      29.141  10.147  47.894  1.00  0.00     0.009 C 
HETATM    3  C2  UNL     1      29.250   8.963  47.634  1.00  0.00    -0.061 C 
ENDROOT
BRANCH   3   4
HETATM    4  C3  UNL     1      29.381   7.566  47.334  1.00  0.00     0.063 C 
HETATM    5  C4  UNL     1      28.449   6.742  47.753  1.00  0.00     0.004 C 
BRANCH   5   6
HETATM    6  C5  UNL     1      27.224   7.065  48.531  1.00  0.00     0.180 C 
BRANCH   6   7
HETATM    7  N1  UNL     1      26.417   5.866  48.673  1.00  0.00    -0.261 N 
HETATM    8  C6  UNL     1      27.251   4.707  48.861  1.00  0.00     0.222 C 
HETATM    9  N2  UNL     1      27.103   3.623  49.550  1.00  0.00    -0.277 NA
HETATM   10  C7  UNL     1      26.246   2.920  50.421  1.00  0.00     0.206 C 
HETATM   11  C8  UNL     1      24.873   3.370  50.565  1.00  0.00     0.026 C 
HETATM   12  C17 UNL     1      23.958   4.242  50.165  1.00  0.00     0.047 C 
HETATM   13  C18 UNL     1      24.043   5.328  49.190  1.00  0.00     0.141 C 
HETATM   14  N4  UNL     1      25.017   5.950  48.618  1.00  0.00    -0.184 NA
BRANCH  11  15
HETATM   15  N3  UNL     1      24.344   2.488  51.542  1.00  0.00    -0.387 N 
HETATM   16  H8  UNL     1      23.366   2.799  51.726  1.00  0.00     0.159 HD
BRANCH  15  17
HETATM   17  C9  UNL     1      24.923   1.350  52.224  1.00  0.00     0.158 C 
BRANCH  17  18
HETATM   18  C10 UNL     1      23.814   0.546  52.788  1.00  0.00    -0.038 A 
HETATM   19  C11 UNL     1      23.892  -0.343  53.842  1.00  0.00     0.012 A 
HETATM   20  C12 UNL     1      22.768  -1.031  54.267  1.00  0.00     0.040 A 
HETATM   21  C13 UNL     1      21.527  -0.876  53.678  1.00  0.00     0.105 A 
HETATM   22  C14 UNL     1      21.446   0.013  52.625  1.00  0.00     0.105 A 
HETATM   23  O2  UNL     1      20.254  -1.406  53.873  1.00  0.00    -0.323 OA
HETATM   24  C15 UNL     1      22.558   0.702  52.195  1.00  0.00     0.048 A 
HETATM   25  O1  UNL     1      20.105  -0.006  52.204  1.00  0.00    -0.323 OA
HETATM   26  C16 UNL     1      19.305  -0.513  53.280  1.00  0.00     0.352 C 
ENDBRANCH  17  18
ENDBRANCH  15  17
ENDBRANCH  11  15
ENDBRANCH   6   7
ENDBRANCH   5   6
ENDBRANCH   3   4
TORSDOF 6
ENDMDL
MODEL 6
REMARK VINA RESULT:      -6.6      5.612      7.682
REMARK  6 active torsions:
REMARK  status: ('A' for Active; 'I' for Inactive)
REMARK    1  A    between atoms: C2_3  and  C3_4 
REMARK    2  A    between atoms: C4_5  and  C5_6 
REMARK    3  A    between atoms: C5_6  and  N1_7 
REMARK    4  A    between atoms: C8_11  and  N3_12 
REMARK    5  A    between atoms: N3_12  and  C9_13 
REMARK    6  A    between atoms: C9_13  and  C10_14 
ROOT
HETATM    1 CL1  UNL     1      30.872  12.610  45.149  1.00  0.00    -0.023 Cl
HETATM    2  C1  UNL     1      30.731  11.894  46.720  1.00  0.00     0.009 C 
HETATM    3  C2  UNL     1      30.640  11.390  47.825  1.00  0.00    -0.061 C 
ENDROOT
BRANCH   3   4
HETATM    4  C3  UNL     1      30.528  10.800  49.127  1.00  0.00     0.063 C 
HETATM    5  C4  UNL     1      30.489   9.491  49.223  1.00  0.00     0.004 C 
BRANCH   5   6
HETATM    6  C5  UNL     1      30.548   8.491  48.126  1.00  0.00     0.180 C 
BRANCH   6   7
HETATM    7  N1  UNL     1      29.268   7.812  48.028  1.00  0.00    -0.261 N 
HETATM    8  C6  UNL     1      29.450   6.416  47.724  1.00  0.00     0.222 C 
HETATM    9  N2  UNL     1      28.803   5.352  48.071  1.00  0.00    -0.277 NA
HETATM   10  C7  UNL     1      27.712   4.859  48.815  1.00  0.00     0.206 C 
HETATM   11  C8  UNL     1      26.716   5.797  49.302  1.00  0.00     0.026 C 
HETATM   12  C17 UNL     1      26.326   7.064  49.332  1.00  0.00     0.047 C 
HETATM   13  C18 UNL     1      26.920   8.255  48.727  1.00  0.00     0.141 C 
HETATM   14  N4  UNL     1      28.075   8.526  48.222  1.00  0.00    -0.184 NA
BRANCH  11  15
HETATM   15  N3  UNL     1      25.828   4.972  50.040  1.00  0.00    -0.387 N 
HETATM   16  H8  UNL     1      25.401   5.578  50.774  1.00  0.00     0.159 HD
BRANCH  15  17
HETATM   17  C9  UNL     1      25.485   3.572  49.911  1.00  0.00     0.158 C 
BRANCH  17  18
HETATM   18  C10 UNL     1      25.624   2.946  51.247  1.00  0.00    -0.038 A 
HETATM   19  C11 UNL     1      24.630   2.793  52.193  1.00  0.00     0.012 A 
HETATM   20  C12 UNL     1      24.902   2.185  53.407  1.00  0.00     0.040 A 
HETATM   21  C13 UNL     1      26.154   1.705  53.741  1.00  0.00     0.105 A 
HETATM   22  C14 UNL     1      27.150   1.856  52.797  1.00  0.00     0.105 A 
HETATM   23  O2  UNL     1      26.720   1.068  54.843  1.00  0.00    -0.323 OA
HETATM   24  C15 UNL     1      26.889   2.460  51.586  1.00  0.00     0.048 A 
HETATM   25  O1  UNL     1      28.310   1.299  53.362  1.00  0.00    -0.323 OA
HETATM   26  C16 UNL     1      27.911   0.402  54.407  1.00  0.00     0.352 C 
ENDBRANCH  17  18
ENDBRANCH  15  17
ENDBRANCH  11  15
ENDBRANCH   6   7
ENDBRANCH   5   6
ENDBRANCH   3   4
TORSDOF 6
ENDMDL
MODEL 7
REMARK VINA RESULT:      -6.6      4.312      6.111
REMARK  6 active torsions:
REMARK  status: ('A' for Active; 'I' for Inactive)
REMARK    1  A    between atoms: C2_3  and  C3_4 
REMARK    2  A    between atoms: C4_5  and  C5_6 
REMARK    3  A    between atoms: C5_6  and  N1_7 
REMARK    4  A    between atoms: C8_11  and  N3_12 
REMARK    5  A    between atoms: N3_12  and  C9_13 
REMARK    6  A    between atoms: C9_13  and  C10_14 
ROOT
HETATM    1 CL1  UNL     1      26.022  11.553  44.078  1.00  0.00    -0.023 Cl
HETATM    2  C1  UNL     1      27.062  10.338  44.743  1.00  0.00     0.009 C 
HETATM    3  C2  UNL     1      27.787   9.482  45.216  1.00  0.00    -0.061 C 
ENDROOT
BRANCH   3   4
HETATM    4  C3  UNL     1      28.644   8.473  45.769  1.00  0.00     0.063 C 
HETATM    5  C4  UNL     1      28.237   7.814  46.829  1.00  0.00     0.004 C 
BRANCH   5   6
HETATM    6  C5  UNL     1      26.958   7.972  47.570  1.00  0.00     0.180 C 
BRANCH   6   7
HETATM    7  N1  UNL     1      26.868   6.946  48.594  1.00  0.00    -0.261 N 
HETATM    8  C6  UNL     1      25.947   7.337  49.630  1.00  0.00     0.222 C 
HETATM    9  N2  UNL     1      25.123   6.668  50.368  1.00  0.00    -0.277 NA
HETATM   10  C7  UNL     1      24.617   5.383  50.657  1.00  0.00     0.206 C 
HETATM   11  C8  UNL     1      25.315   4.223  50.133  1.00  0.00     0.026 C 
HETATM   12  C17 UNL     1      26.361   3.794  49.439  1.00  0.00     0.047 C 
HETATM   13  C18 UNL     1      27.448   4.535  48.804  1.00  0.00     0.141 C 
HETATM   14  N4  UNL     1      27.627   5.771  48.482  1.00  0.00    -0.184 NA
BRANCH  11  15
HETATM   15  N3  UNL     1      24.507   3.138  50.561  1.00  0.00    -0.387 N 
HETATM   16  H8  UNL     1      24.518   2.437  49.790  1.00  0.00     0.159 HD
BRANCH  15  17
HETATM   17  C9  UNL     1      23.766   2.916  51.784  1.00  0.00     0.158 C 
BRANCH  17  18
HETATM   18  C10 UNL     1      24.265   1.662  52.396  1.00  0.00    -0.038 A 
HETATM   19  C11 UNL     1      23.554   0.799  53.205  1.00  0.00     0.012 A 
HETATM   20  C12 UNL     1      24.149  -0.345  53.710  1.00  0.00     0.040 A 
HETATM   21  C13 UNL     1      25.461  -0.687  53.442  1.00  0.00     0.105 A 
HETATM   22  C14 UNL     1      26.175   0.173  52.633  1.00  0.00     0.105 A 
HETATM   23  O2  UNL     1      26.313  -1.733  53.790  1.00  0.00    -0.323 OA
HETATM   24  C15 UNL     1      25.591   1.314  52.126  1.00  0.00     0.048 A 
HETATM   25  O1  UNL     1      27.460  -0.383  52.511  1.00  0.00    -0.323 OA
HETATM   26  C16 UNL     1      27.375  -1.778  52.830  1.00  0.00     0.352 C 
ENDBRANCH  17  18
ENDBRANCH  15  17
ENDBRANCH  11  15
ENDBRANCH   6   7
ENDBRANCH   5   6
ENDBRANCH   3   4
TORSDOF 6
ENDMDL
MODEL 8
REMARK VINA RESULT:      -6.5      4.051      6.224
REMARK  6 active torsions:
REMARK  status: ('A' for Active; 'I' for Inactive)
REMARK    1  A    between atoms: C2_3  and  C3_4 
REMARK    2  A    between atoms: C4_5  and  C5_6 
REMARK    3  A    between atoms: C5_6  and  N1_7 
REMARK    4  A    between atoms: C8_11  and  N3_12 
REMARK    5  A    between atoms: N3_12  and  C9_13 
REMARK    6  A    between atoms: C9_13  and  C10_14 
ROOT
HETATM    1 CL1  UNL     1      26.301   1.027  53.916  1.00  0.00    -0.023 Cl
HETATM    2  C1  UNL     1      24.829   0.196  53.540  1.00  0.00     0.009 C 
HETATM    3  C2  UNL     1      23.797  -0.389  53.266  1.00  0.00    -0.061 C 
ENDROOT
BRANCH   3   4
HETATM    4  C3  UNL     1      22.580  -1.081  52.950  1.00  0.00     0.063 C 
HETATM    5  C4  UNL     1      21.445  -0.428  53.039  1.00  0.00     0.004 C 
BRANCH   5   6
HETATM    6  C5  UNL     1      21.231   0.988  53.438  1.00  0.00     0.180 C 
BRANCH   6   7
HETATM    7  N1  UNL     1      21.642   1.859  52.352  1.00  0.00    -0.261 N 
HETATM    8  C6  UNL     1      22.375   2.993  52.854  1.00  0.00     0.222 C 
HETATM    9  N2  UNL     1      23.365   3.676  52.381  1.00  0.00    -0.277 NA
HETATM   10  C7  UNL     1      24.259   3.810  51.299  1.00  0.00     0.206 C 
HETATM   11  C8  UNL     1      23.986   3.085  50.071  1.00  0.00     0.026 C 
HETATM   12  C17 UNL     1      23.144   2.277  49.440  1.00  0.00     0.047 C 
HETATM   13  C18 UNL     1      21.880   1.690  49.880  1.00  0.00     0.141 C 
HETATM   14  N4  UNL     1      21.311   1.536  51.027  1.00  0.00    -0.184 NA
BRANCH  11  15
HETATM   15  N3  UNL     1      25.099   3.403  49.252  1.00  0.00    -0.387 N 
HETATM   16  H8  UNL     1      24.727   3.556  48.290  1.00  0.00     0.159 HD
BRANCH  15  17
HETATM   17  C9  UNL     1      26.510   3.527  49.553  1.00  0.00     0.158 C 
BRANCH  17  18
HETATM   18  C10 UNL     1      26.994   4.789  48.946  1.00  0.00    -0.038 A 
HETATM   19  C11 UNL     1      28.283   5.064  48.534  1.00  0.00     0.012 A 
HETATM   20  C12 UNL     1      28.596   6.293  47.979  1.00  0.00     0.040 A 
HETATM   21  C13 UNL     1      27.663   7.298  47.807  1.00  0.00     0.105 A 
HETATM   22  C14 UNL     1      26.374   7.026  48.218  1.00  0.00     0.105 A 
HETATM   23  O2  UNL     1      27.671   8.595  47.298  1.00  0.00    -0.323 OA
HETATM   24  C15 UNL     1      26.052   5.806  48.771  1.00  0.00     0.048 A 
HETATM   25  O1  UNL     1      25.625   8.183  47.944  1.00  0.00    -0.323 OA
HETATM   26  C16 UNL     1      26.327   8.944  46.951  1.00  0.00     0.352 C 
ENDBRANCH  17  18
ENDBRANCH  15  17
ENDBRANCH  11  15
ENDBRANCH   6   7
ENDBRANCH   5   6
ENDBRANCH   3   4
TORSDOF 6
ENDMDL
MODEL 9
REMARK VINA RESULT:      -6.4      4.371      7.093
REMARK  6 active torsions:
REMARK  status: ('A' for Active; 'I' for Inactive)
REMARK    1  A    between atoms: C2_3  and  C3_4 
REMARK    2  A    between atoms: C4_5  and  C5_6 
REMARK    3  A    between atoms: C5_6  and  N1_7 
REMARK    4  A    between atoms: C8_11  and  N3_12 
REMARK    5  A    between atoms: N3_12  and  C9_13 
REMARK    6  A    between atoms: C9_13  and  C10_14 
ROOT
HETATM    1 CL1  UNL     1      24.398   8.813  46.014  1.00  0.00    -0.023 Cl
HETATM    2  C1  UNL     1      25.636   7.981  46.895  1.00  0.00     0.009 C 
HETATM    3  C2  UNL     1      26.512   7.397  47.506  1.00  0.00    -0.061 C 
ENDROOT
BRANCH   3   4
HETATM    4  C3  UNL     1      27.542   6.711  48.232  1.00  0.00     0.063 C 
HETATM    5  C4  UNL     1      27.237   5.594  48.851  1.00  0.00     0.004 C 
BRANCH   5   6
HETATM    6  C5  UNL     1      25.918   4.910  48.910  1.00  0.00     0.180 C 
BRANCH   6   7
HETATM    7  N1  UNL     1      25.747   4.312  50.222  1.00  0.00    -0.261 N 
HETATM    8  C6  UNL     1      24.679   4.955  50.943  1.00  0.00     0.222 C 
HETATM    9  N2  UNL     1      23.801   4.517  51.784  1.00  0.00    -0.277 NA
HETATM   10  C7  UNL     1      23.328   3.378  52.467  1.00  0.00     0.206 C 
HETATM   11  C8  UNL     1      24.146   2.178  52.476  1.00  0.00     0.026 C 
HETATM   12  C17 UNL     1      25.294   1.632  52.099  1.00  0.00     0.047 C 
HETATM   13  C18 UNL     1      26.417   2.199  51.354  1.00  0.00     0.141 C 
HETATM   14  N4  UNL     1      26.573   3.251  50.625  1.00  0.00    -0.184 NA
BRANCH  11  15
HETATM   15  N3  UNL     1      23.345   1.245  53.184  1.00  0.00    -0.387 N 
HETATM   16  H8  UNL     1      23.076   1.704  54.081  1.00  0.00     0.159 HD
BRANCH  15  17
HETATM   17  C9  UNL     1      22.909  -0.095  52.852  1.00  0.00     0.158 C 
BRANCH  17  18
HETATM   18  C10 UNL     1      21.492  -0.019  52.428  1.00  0.00    -0.038 A 
HETATM   19  C11 UNL     1      21.010   0.521  51.251  1.00  0.00     0.012 A 
HETATM   20  C12 UNL     1      19.652   0.525  50.982  1.00  0.00     0.040 A 
HETATM   21  C13 UNL     1      18.715   0.002  51.853  1.00  0.00     0.105 A 
HETATM   22  C14 UNL     1      19.192  -0.538  53.030  1.00  0.00     0.105 A 
HETATM   23  O2  UNL     1      17.329  -0.137  51.865  1.00  0.00    -0.323 OA
HETATM   24  C15 UNL     1      20.542  -0.547  53.306  1.00  0.00     0.048 A 
HETATM   25  O1  UNL     1      18.065  -0.995  53.734  1.00  0.00    -0.323 OA
HETATM   26  C16 UNL     1      16.994  -1.171  52.797  1.00  0.00     0.352 C 
ENDBRANCH  17  18
ENDBRANCH  15  17
ENDBRANCH  11  15
ENDBRANCH   6   7
ENDBRANCH   5   6
ENDBRANCH   3   4
TORSDOF 6
ENDMDL
