MODEL 1
REMARK VINA RESULT:      -9.1      0.000      0.000
REMARK  6 active torsions:
REMARK  status: ('A' for Active; 'I' for Inactive)
REMARK    1  A    between atoms: O1_1  and  C1_2 
REMARK    2  A    between atoms: C4_5  and  C5_6 
REMARK    3  A    between atoms: C5_6  and  N1_7 
REMARK    4  A    between atoms: C8_13  and  N5_14 
REMARK    5  A    between atoms: N5_14  and  C9_15 
REMARK    6  A    between atoms: C9_15  and  C10_16 
ROOT
HETATM    1  N1  UNL     1      25.648   0.739  54.134  1.00  0.00    -0.366 N 
HETATM    2  C6  UNL     1      26.595   0.215  55.051  1.00  0.00     0.227 C 
HETATM    3  N2  UNL     1      27.749  -0.279  54.791  1.00  0.00    -0.169 NA
HETATM    4  N3  UNL     1      28.204  -0.346  53.474  1.00  0.00    -0.271 N 
HETATM    5  C7  UNL     1      27.743   0.669  52.601  1.00  0.00     0.227 C 
HETATM    6  N4  UNL     1      26.590   0.834  51.958  1.00  0.00    -0.226 NA
HETATM    7  C8  UNL     1      26.428   1.980  51.141  1.00  0.00     0.122 C 
HETATM    8  C16 UNL     1      25.872   2.333  52.283  1.00  0.00     0.043 C 
HETATM    9  C17 UNL     1      25.468   2.086  53.643  1.00  0.00     0.155 C 
HETATM   10  H7  UNL     1      28.838  -1.157  53.320  1.00  0.00     0.190 HD
ENDROOT
BRANCH   7  11
HETATM   11  N5  UNL     1      26.567   2.724  49.950  1.00  0.00    -0.371 N 
HETATM   12  H9  UNL     1      27.206   2.469  49.157  1.00  0.00     0.161 HD
BRANCH  11  13
HETATM   13  C9  UNL     1      25.694   3.856  50.026  1.00  0.00     0.160 C 
BRANCH  13  14
HETATM   14  C10 UNL     1      26.320   4.987  49.279  1.00  0.00    -0.038 A 
HETATM   15  C11 UNL     1      25.813   6.220  48.931  1.00  0.00     0.009 A 
HETATM   16  C12 UNL     1      26.583   7.112  48.232  1.00  0.00     0.004 A 
HETATM   17  C13 UNL     1      27.872   6.849  47.842  1.00  0.00     0.042 A 
HETATM   18  C14 UNL     1      28.422   5.618  48.171  1.00  0.00     0.117 A 
HETATM   19  F1  UNL     1      29.682   5.343  47.797  1.00  0.00    -0.206 F 
HETATM   20  C15 UNL     1      27.633   4.714  48.884  1.00  0.00     0.051 A 
ENDBRANCH  13  14
ENDBRANCH  11  13
ENDBRANCH   7  11
BRANCH   1  21
HETATM   21  C5  UNL     1      24.927  -0.466  53.877  1.00  0.00     0.162 C 
BRANCH  21  22
HETATM   22  C4  UNL     1      23.496  -0.470  53.700  1.00  0.00    -0.040 A 
HETATM   23  C3  UNL     1      22.822  -1.104  54.753  1.00  0.00     0.011 A 
HETATM   24  C2  UNL     1      21.434  -1.186  54.779  1.00  0.00     0.037 A 
HETATM   25  C1  UNL     1      20.675  -0.646  53.764  1.00  0.00     0.065 A 
HETATM   26  C19 UNL     1      21.300  -0.007  52.696  1.00  0.00     0.037 A 
HETATM   27  C18 UNL     1      22.675   0.054  52.707  1.00  0.00     0.011 A 
BRANCH  25  28
HETATM   28  O1  UNL     1      19.282  -0.704  53.745  1.00  0.00    -0.361 OA
HETATM   29  H1  UNL     1      18.794  -1.332  53.110  1.00  0.00     0.217 HD
ENDBRANCH  25  28
ENDBRANCH  21  22
ENDBRANCH   1  21
TORSDOF 6
ENDMDL
MODEL 2
REMARK VINA RESULT:      -8.7      3.801      7.221
REMARK  6 active torsions:
REMARK  status: ('A' for Active; 'I' for Inactive)
REMARK    1  A    between atoms: O1_1  and  C1_2 
REMARK    2  A    between atoms: C4_5  and  C5_6 
REMARK    3  A    between atoms: C5_6  and  N1_7 
REMARK    4  A    between atoms: C8_13  and  N5_14 
REMARK    5  A    between atoms: N5_14  and  C9_15 
REMARK    6  A    between atoms: C9_15  and  C10_16 
ROOT
HETATM    1  N1  UNL     1      22.899   3.368  51.589  1.00  0.00    -0.366 N 
HETATM    2  C6  UNL     1      21.612   2.796  51.420  1.00  0.00     0.227 C 
HETATM    3  N2  UNL     1      21.282   1.562  51.526  1.00  0.00    -0.169 NA
HETATM    4  N3  UNL     1      22.242   0.602  51.843  1.00  0.00    -0.271 N 
HETATM    5  C7  UNL     1      23.317   1.038  52.656  1.00  0.00     0.227 C 
HETATM    6  N4  UNL     1      24.420   1.728  52.378  1.00  0.00    -0.226 NA
HETATM    7  C8  UNL     1      25.323   2.015  53.433  1.00  0.00     0.122 C 
HETATM    8  C16 UNL     1      24.587   3.106  53.348  1.00  0.00     0.043 C 
HETATM    9  C17 UNL     1      23.537   3.903  52.770  1.00  0.00     0.155 C 
HETATM   10  H7  UNL     1      22.023  -0.325  51.425  1.00  0.00     0.190 HD
ENDROOT
BRANCH   7  11
HETATM   11  N5  UNL     1      26.386   1.722  54.313  1.00  0.00    -0.371 N 
HETATM   12  H9  UNL     1      26.272   1.449  55.319  1.00  0.00     0.161 HD
BRANCH  11  13
HETATM   13  C9  UNL     1      27.614   1.863  53.590  1.00  0.00     0.160 C 
BRANCH  13  14
HETATM   14  C10 UNL     1      28.262   0.521  53.493  1.00  0.00    -0.038 A 
HETATM   15  C11 UNL     1      29.530   0.111  53.845  1.00  0.00     0.009 A 
HETATM   16  C12 UNL     1      29.911  -1.192  53.661  1.00  0.00     0.004 A 
HETATM   17  C13 UNL     1      29.085  -2.150  53.132  1.00  0.00     0.042 A 
HETATM   18  C14 UNL     1      27.799  -1.780  52.763  1.00  0.00     0.117 A 
HETATM   19  F1  UNL     1      26.976  -2.705  52.242  1.00  0.00    -0.206 F 
HETATM   20  C15 UNL     1      27.416  -0.452  52.953  1.00  0.00     0.051 A 
ENDBRANCH  13  14
ENDBRANCH  11  13
ENDBRANCH   7  11
BRANCH   1  21
HETATM   21  C5  UNL     1      23.342   3.271  50.235  1.00  0.00     0.162 C 
BRANCH  21  22
HETATM   22  C4  UNL     1      24.451   4.050  49.742  1.00  0.00    -0.040 A 
HETATM   23  C3  UNL     1      25.657   3.336  49.743  1.00  0.00     0.011 A 
HETATM   24  C2  UNL     1      26.836   3.906  49.278  1.00  0.00     0.037 A 
HETATM   25  C1  UNL     1      26.857   5.198  48.801  1.00  0.00     0.065 A 
HETATM   26  C19 UNL     1      25.683   5.948  48.780  1.00  0.00     0.037 A 
HETATM   27  C18 UNL     1      24.536   5.347  49.248  1.00  0.00     0.011 A 
BRANCH  25  28
HETATM   28  O1  UNL     1      28.014   5.813  48.325  1.00  0.00    -0.361 OA
HETATM   29  H1  UNL     1      28.852   5.867  48.901  1.00  0.00     0.217 HD
ENDBRANCH  25  28
ENDBRANCH  21  22
ENDBRANCH   1  21
TORSDOF 6
ENDMDL
MODEL 3
REMARK VINA RESULT:      -8.7      3.769      7.261
REMARK  6 active torsions:
REMARK  status: ('A' for Active; 'I' for Inactive)
REMARK    1  A    between atoms: O1_1  and  C1_2 
REMARK    2  A    between atoms: C4_5  and  C5_6 
REMARK    3  A    between atoms: C5_6  and  N1_7 
REMARK    4  A    between atoms: C8_13  and  N5_14 
REMARK    5  A    between atoms: N5_14  and  C9_15 
REMARK    6  A    between atoms: C9_15  and  C10_16 
ROOT
HETATM    1  N1  UNL     1      23.173   3.759  52.049  1.00  0.00    -0.366 N 
HETATM    2  C6  UNL     1      21.824   4.181  52.171  1.00  0.00     0.227 C 
HETATM    3  N2  UNL     1      20.767   3.461  52.083  1.00  0.00    -0.169 NA
HETATM    4  N3  UNL     1      20.866   2.091  51.841  1.00  0.00    -0.271 N 
HETATM    5  C7  UNL     1      22.023   1.450  52.346  1.00  0.00     0.227 C 
HETATM    6  N4  UNL     1      23.276   1.393  51.901  1.00  0.00    -0.226 NA
HETATM    7  C8  UNL     1      24.227   0.654  52.649  1.00  0.00     0.122 C 
HETATM    8  C16 UNL     1      24.401   1.894  53.063  1.00  0.00     0.043 C 
HETATM    9  C17 UNL     1      24.104   3.303  53.055  1.00  0.00     0.155 C 
HETATM   10  H7  UNL     1      20.050   1.727  51.308  1.00  0.00     0.190 HD
ENDROOT
BRANCH   7  11
HETATM   11  N5  UNL     1      24.896  -0.522  53.047  1.00  0.00    -0.371 N 
HETATM   12  H9  UNL     1      24.867  -1.431  52.526  1.00  0.00     0.161 HD
BRANCH  11  13
HETATM   13  C9  UNL     1      25.604  -0.243  54.260  1.00  0.00     0.160 C 
BRANCH  13  14
HETATM   14  C10 UNL     1      27.069  -0.294  53.975  1.00  0.00    -0.038 A 
HETATM   15  C11 UNL     1      27.821  -1.248  53.324  1.00  0.00     0.009 A 
HETATM   16  C12 UNL     1      29.174  -1.081  53.179  1.00  0.00     0.004 A 
HETATM   17  C13 UNL     1      29.852   0.012  53.657  1.00  0.00     0.042 A 
HETATM   18  C14 UNL     1      29.132   0.995  54.320  1.00  0.00     0.117 A 
HETATM   19  F1  UNL     1      29.781   2.072  54.795  1.00  0.00    -0.206 F 
HETATM   20  C15 UNL     1      27.756   0.821  54.464  1.00  0.00     0.051 A 
ENDBRANCH  13  14
ENDBRANCH  11  13
ENDBRANCH   7  11
BRANCH   1  21
HETATM   21  C5  UNL     1      23.319   3.953  50.642  1.00  0.00     0.162 C 
BRANCH  21  22
HETATM   22  C4  UNL     1      24.609   4.169  50.037  1.00  0.00    -0.040 A 
HETATM   23  C3  UNL     1      24.793   5.491  49.610  1.00  0.00     0.011 A 
HETATM   24  C2  UNL     1      25.984   5.905  49.025  1.00  0.00     0.037 A 
HETATM   25  C1  UNL     1      27.027   5.023  48.845  1.00  0.00     0.065 A 
HETATM   26  C19 UNL     1      26.892   3.698  49.252  1.00  0.00     0.037 A 
HETATM   27  C18 UNL     1      25.697   3.327  49.827  1.00  0.00     0.011 A 
BRANCH  25  28
HETATM   28  O1  UNL     1      28.239   5.389  48.263  1.00  0.00    -0.361 OA
HETATM   29  H1  UNL     1      28.853   6.065  48.715  1.00  0.00     0.217 HD
ENDBRANCH  25  28
ENDBRANCH  21  22
ENDBRANCH   1  21
TORSDOF 6
ENDMDL
MODEL 4
REMARK VINA RESULT:      -8.6      3.483      5.662
REMARK  6 active torsions:
REMARK  status: ('A' for Active; 'I' for Inactive)
REMARK    1  A    between atoms: O1_1  and  C1_2 
REMARK    2  A    between atoms: C4_5  and  C5_6 
REMARK    3  A    between atoms: C5_6  and  N1_7 
REMARK    4  A    between atoms: C8_13  and  N5_14 
REMARK    5  A    between atoms: N5_14  and  C9_15 
REMARK    6  A    between atoms: C9_15  and  C10_16 
ROOT
HETATM    1  N1  UNL     1      21.471   2.615  50.995  1.00  0.00    -0.366 N 
HETATM    2  C6  UNL     1      20.374   3.436  50.630  1.00  0.00     0.227 C 
HETATM    3  N2  UNL     1      20.289   4.713  50.711  1.00  0.00    -0.169 NA
HETATM    4  N3  UNL     1      21.358   5.458  51.206  1.00  0.00    -0.271 N 
HETATM    5  C7  UNL     1      22.651   4.927  50.976  1.00  0.00     0.227 C 
HETATM    6  N4  UNL     1      23.336   3.960  51.578  1.00  0.00    -0.226 NA
HETATM    7  C8  UNL     1      24.636   3.653  51.103  1.00  0.00     0.122 C 
HETATM    8  C16 UNL     1      23.867   2.769  50.498  1.00  0.00     0.043 C 
HETATM    9  C17 UNL     1      22.596   2.155  50.214  1.00  0.00     0.155 C 
HETATM   10  H7  UNL     1      21.042   6.325  51.688  1.00  0.00     0.190 HD
ENDROOT
BRANCH   7  11
HETATM   11  N5  UNL     1      26.032   3.833  51.011  1.00  0.00    -0.371 N 
HETATM   12  H9  UNL     1      26.534   4.730  51.219  1.00  0.00     0.161 HD
BRANCH  11  13
HETATM   13  C9  UNL     1      26.615   2.593  50.595  1.00  0.00     0.160 C 
BRANCH  13  14
HETATM   14  C10 UNL     1      26.961   1.802  51.813  1.00  0.00    -0.038 A 
HETATM   15  C11 UNL     1      27.621   2.173  52.965  1.00  0.00     0.009 A 
HETATM   16  C12 UNL     1      27.831   1.261  53.966  1.00  0.00     0.004 A 
HETATM   17  C13 UNL     1      27.411  -0.042  53.895  1.00  0.00     0.042 A 
HETATM   18  C14 UNL     1      26.743  -0.459  52.753  1.00  0.00     0.117 A 
HETATM   19  F1  UNL     1      26.326  -1.733  52.667  1.00  0.00    -0.206 F 
HETATM   20  C15 UNL     1      26.532   0.473  51.737  1.00  0.00     0.051 A 
ENDBRANCH  13  14
ENDBRANCH  11  13
ENDBRANCH   7  11
BRANCH   1  21
HETATM   21  C5  UNL     1      21.097   2.370  52.352  1.00  0.00     0.162 C 
BRANCH  21  22
HETATM   22  C4  UNL     1      21.625   1.253  53.094  1.00  0.00    -0.040 A 
HETATM   23  C3  UNL     1      20.657   0.626  53.891  1.00  0.00     0.011 A 
HETATM   24  C2  UNL     1      20.964  -0.489  54.661  1.00  0.00     0.037 A 
HETATM   25  C1  UNL     1      22.238  -1.015  54.667  1.00  0.00     0.065 A 
HETATM   26  C19 UNL     1      23.234  -0.427  53.892  1.00  0.00     0.037 A 
HETATM   27  C18 UNL     1      22.890   0.676  53.143  1.00  0.00     0.011 A 
BRANCH  25  28
HETATM   28  O1  UNL     1      22.595  -2.130  55.423  1.00  0.00    -0.361 OA
HETATM   29  H1  UNL     1      23.059  -2.025  56.324  1.00  0.00     0.217 HD
ENDBRANCH  25  28
ENDBRANCH  21  22
ENDBRANCH   1  21
TORSDOF 6
ENDMDL
MODEL 5
REMARK VINA RESULT:      -8.4      2.322      3.198
REMARK  6 active torsions:
REMARK  status: ('A' for Active; 'I' for Inactive)
REMARK    1  A    between atoms: O1_1  and  C1_2 
REMARK    2  A    between atoms: C4_5  and  C5_6 
REMARK    3  A    between atoms: C5_6  and  N1_7 
REMARK    4  A    between atoms: C8_13  and  N5_14 
REMARK    5  A    between atoms: N5_14  and  C9_15 
REMARK    6  A    between atoms: C9_15  and  C10_16 
ROOT
HETATM    1  N1  UNL     1      25.762   0.643  54.236  1.00  0.00    -0.366 N 
HETATM    2  C6  UNL     1      26.818   0.032  54.960  1.00  0.00     0.227 C 
HETATM    3  N2  UNL     1      27.934  -0.401  54.502  1.00  0.00    -0.169 NA
HETATM    4  N3  UNL     1      28.224  -0.299  53.142  1.00  0.00    -0.271 N 
HETATM    5  C7  UNL     1      27.651   0.803  52.462  1.00  0.00     0.227 C 
HETATM    6  N4  UNL     1      26.427   1.020  51.990  1.00  0.00    -0.226 NA
HETATM    7  C8  UNL     1      26.158   2.253  51.345  1.00  0.00     0.122 C 
HETATM    8  C16 UNL     1      25.745   2.453  52.582  1.00  0.00     0.043 C 
HETATM    9  C17 UNL     1      25.514   2.035  53.940  1.00  0.00     0.155 C 
HETATM   10  H7  UNL     1      28.838  -1.072  52.813  1.00  0.00     0.190 HD
ENDROOT
BRANCH   7  11
HETATM   11  N5  UNL     1      26.144   3.137  50.246  1.00  0.00    -0.371 N 
HETATM   12  H9  UNL     1      26.777   3.065  49.413  1.00  0.00     0.161 HD
BRANCH  11  13
HETATM   13  C9  UNL     1      25.128   4.120  50.477  1.00  0.00     0.160 C 
BRANCH  13  14
HETATM   14  C10 UNL     1      23.807   3.529  50.110  1.00  0.00    -0.038 A 
HETATM   15  C11 UNL     1      22.647   3.403  50.843  1.00  0.00     0.009 A 
HETATM   16  C12 UNL     1      21.540   2.815  50.290  1.00  0.00     0.004 A 
HETATM   17  C13 UNL     1      21.509   2.326  49.008  1.00  0.00     0.042 A 
HETATM   18  C14 UNL     1      22.656   2.432  48.235  1.00  0.00     0.117 A 
HETATM   19  F1  UNL     1      22.644   1.959  46.978  1.00  0.00    -0.206 F 
HETATM   20  C15 UNL     1      23.781   3.032  48.803  1.00  0.00     0.051 A 
ENDBRANCH  13  14
ENDBRANCH  11  13
ENDBRANCH   7  11
BRANCH   1  21
HETATM   21  C5  UNL     1      25.022  -0.538  53.924  1.00  0.00     0.162 C 
BRANCH  21  22
HETATM   22  C4  UNL     1      23.592  -0.510  53.740  1.00  0.00    -0.040 A 
HETATM   23  C3  UNL     1      22.899  -1.116  54.797  1.00  0.00     0.011 A 
HETATM   24  C2  UNL     1      21.510  -1.165  54.818  1.00  0.00     0.037 A 
HETATM   25  C1  UNL     1      20.768  -0.618  53.794  1.00  0.00     0.065 A 
HETATM   26  C19 UNL     1      21.412  -0.006  52.722  1.00  0.00     0.037 A 
HETATM   27  C18 UNL     1      22.788   0.023  52.738  1.00  0.00     0.011 A 
BRANCH  25  28
HETATM   28  O1  UNL     1      19.374  -0.643  53.769  1.00  0.00    -0.361 OA
HETATM   29  H1  UNL     1      18.831  -0.290  54.554  1.00  0.00     0.217 HD
ENDBRANCH  25  28
ENDBRANCH  21  22
ENDBRANCH   1  21
TORSDOF 6
ENDMDL
MODEL 6
REMARK VINA RESULT:      -8.2      3.518      6.036
REMARK  6 active torsions:
REMARK  status: ('A' for Active; 'I' for Inactive)
REMARK    1  A    between atoms: O1_1  and  C1_2 
REMARK    2  A    between atoms: C4_5  and  C5_6 
REMARK    3  A    between atoms: C5_6  and  N1_7 
REMARK    4  A    between atoms: C8_13  and  N5_14 
REMARK    5  A    between atoms: N5_14  and  C9_15 
REMARK    6  A    between atoms: C9_15  and  C10_16 
ROOT
HETATM    1  N1  UNL     1      21.560   3.394  51.066  1.00  0.00    -0.366 N 
HETATM    2  C6  UNL     1      21.142   4.739  50.899  1.00  0.00     0.227 C 
HETATM    3  N2  UNL     1      21.716   5.798  51.338  1.00  0.00    -0.169 NA
HETATM    4  N3  UNL     1      22.894   5.705  52.077  1.00  0.00    -0.271 N 
HETATM    5  C7  UNL     1      23.742   4.614  51.767  1.00  0.00     0.227 C 
HETATM    6  N4  UNL     1      23.694   3.327  52.100  1.00  0.00    -0.226 NA
HETATM    7  C8  UNL     1      24.713   2.465  51.620  1.00  0.00     0.122 C 
HETATM    8  C16 UNL     1      23.734   2.304  50.751  1.00  0.00     0.043 C 
HETATM    9  C17 UNL     1      22.414   2.570  50.241  1.00  0.00     0.155 C 
HETATM   10  H7  UNL     1      22.983   6.475  52.772  1.00  0.00     0.190 HD
ENDROOT
BRANCH   7  11
HETATM   11  N5  UNL     1      25.987   1.861  51.651  1.00  0.00    -0.371 N 
HETATM   12  H9  UNL     1      26.622   1.763  50.823  1.00  0.00     0.161 HD
BRANCH  11  13
HETATM   13  C9  UNL     1      26.240   1.422  52.991  1.00  0.00     0.160 C 
BRANCH  13  14
HETATM   14  C10 UNL     1      26.904   0.087  52.934  1.00  0.00    -0.038 A 
HETATM   15  C11 UNL     1      26.437  -1.128  52.480  1.00  0.00     0.009 A 
HETATM   16  C12 UNL     1      27.238  -2.239  52.527  1.00  0.00     0.004 A 
HETATM   17  C13 UNL     1      28.520  -2.221  53.014  1.00  0.00     0.042 A 
HETATM   18  C14 UNL     1      29.030  -1.018  53.482  1.00  0.00     0.117 A 
HETATM   19  F1  UNL     1      30.284  -0.983  53.963  1.00  0.00    -0.206 F 
HETATM   20  C15 UNL     1      28.211   0.110  53.431  1.00  0.00     0.051 A 
ENDBRANCH  13  14
ENDBRANCH  11  13
ENDBRANCH   7  11
BRANCH   1  21
HETATM   21  C5  UNL     1      20.855   3.112  52.275  1.00  0.00     0.162 C 
BRANCH  21  22
HETATM   22  C4  UNL     1      20.308   1.807  52.548  1.00  0.00    -0.040 A 
HETATM   23  C3  UNL     1      20.914   1.186  53.649  1.00  0.00     0.011 A 
HETATM   24  C2  UNL     1      20.506  -0.069  54.088  1.00  0.00     0.037 A 
HETATM   25  C1  UNL     1      19.489  -0.744  53.450  1.00  0.00     0.065 A 
HETATM   26  C19 UNL     1      18.857  -0.169  52.351  1.00  0.00     0.037 A 
HETATM   27  C18 UNL     1      19.289   1.075  51.947  1.00  0.00     0.011 A 
BRANCH  25  28
HETATM   28  O1  UNL     1      19.046  -2.004  53.852  1.00  0.00    -0.361 OA
HETATM   29  H1  UNL     1      19.572  -2.552  54.529  1.00  0.00     0.217 HD
ENDBRANCH  25  28
ENDBRANCH  21  22
ENDBRANCH   1  21
TORSDOF 6
ENDMDL
MODEL 7
REMARK VINA RESULT:      -8.1      4.031      7.874
REMARK  6 active torsions:
REMARK  status: ('A' for Active; 'I' for Inactive)
REMARK    1  A    between atoms: O1_1  and  C1_2 
REMARK    2  A    between atoms: C4_5  and  C5_6 
REMARK    3  A    between atoms: C5_6  and  N1_7 
REMARK    4  A    between atoms: C8_13  and  N5_14 
REMARK    5  A    between atoms: N5_14  and  C9_15 
REMARK    6  A    between atoms: C9_15  and  C10_16 
ROOT
HETATM    1  N1  UNL     1      23.081   5.646  50.376  1.00  0.00    -0.366 N 
HETATM    2  C6  UNL     1      21.805   6.048  49.904  1.00  0.00     0.227 C 
HETATM    3  N2  UNL     1      20.777   5.310  49.700  1.00  0.00    -0.169 NA
HETATM    4  N3  UNL     1      20.835   3.939  49.947  1.00  0.00    -0.271 N 
HETATM    5  C7  UNL     1      21.710   3.527  50.982  1.00  0.00     0.227 C 
HETATM    6  N4  UNL     1      23.030   3.364  51.020  1.00  0.00    -0.226 NA
HETATM    7  C8  UNL     1      23.624   2.932  52.233  1.00  0.00     0.122 C 
HETATM    8  C16 UNL     1      23.758   4.244  52.270  1.00  0.00     0.043 C 
HETATM    9  C17 UNL     1      23.597   5.566  51.723  1.00  0.00     0.155 C 
HETATM   10  H7  UNL     1      20.207   3.400  49.316  1.00  0.00     0.190 HD
ENDROOT
BRANCH   7  11
HETATM   11  N5  UNL     1      24.029   1.967  53.178  1.00  0.00    -0.371 N 
HETATM   12  H9  UNL     1      23.416   1.200  53.548  1.00  0.00     0.161 HD
BRANCH  11  13
HETATM   13  C9  UNL     1      25.395   2.224  53.522  1.00  0.00     0.160 C 
BRANCH  13  14
HETATM   14  C10 UNL     1      26.183   0.978  53.290  1.00  0.00    -0.038 A 
HETATM   15  C11 UNL     1      25.800  -0.242  52.777  1.00  0.00     0.009 A 
HETATM   16  C12 UNL     1      26.711  -1.259  52.657  1.00  0.00     0.004 A 
HETATM   17  C13 UNL     1      28.026  -1.137  53.026  1.00  0.00     0.042 A 
HETATM   18  C14 UNL     1      28.455   0.075  53.548  1.00  0.00     0.117 A 
HETATM   19  F1  UNL     1      29.739   0.211  53.916  1.00  0.00    -0.206 F 
HETATM   20  C15 UNL     1      27.523   1.106  53.668  1.00  0.00     0.051 A 
ENDBRANCH  13  14
ENDBRANCH  11  13
ENDBRANCH   7  11
BRANCH   1  21
HETATM   21  C5  UNL     1      23.689   5.379  49.112  1.00  0.00     0.162 C 
BRANCH  21  22
HETATM   22  C4  UNL     1      25.114   5.487  48.917  1.00  0.00    -0.040 A 
HETATM   23  C3  UNL     1      25.790   4.290  49.193  1.00  0.00     0.011 A 
HETATM   24  C2  UNL     1      27.167   4.185  49.038  1.00  0.00     0.037 A 
HETATM   25  C1  UNL     1      27.915   5.259  48.608  1.00  0.00     0.065 A 
HETATM   26  C19 UNL     1      27.288   6.470  48.322  1.00  0.00     0.037 A 
HETATM   27  C18 UNL     1      25.923   6.534  48.488  1.00  0.00     0.011 A 
BRANCH  25  28
HETATM   28  O1  UNL     1      29.297   5.203  48.438  1.00  0.00    -0.361 OA
HETATM   29  H1  UNL     1      29.854   6.054  48.397  1.00  0.00     0.217 HD
ENDBRANCH  25  28
ENDBRANCH  21  22
ENDBRANCH   1  21
TORSDOF 6
ENDMDL
MODEL 8
REMARK VINA RESULT:      -8.0      3.214      4.636
REMARK  6 active torsions:
REMARK  status: ('A' for Active; 'I' for Inactive)
REMARK    1  A    between atoms: O1_1  and  C1_2 
REMARK    2  A    between atoms: C4_5  and  C5_6 
REMARK    3  A    between atoms: C5_6  and  N1_7 
REMARK    4  A    between atoms: C8_13  and  N5_14 
REMARK    5  A    between atoms: N5_14  and  C9_15 
REMARK    6  A    between atoms: C9_15  and  C10_16 
ROOT
HETATM    1  N1  UNL     1      23.186   1.760  51.647  1.00  0.00    -0.366 N 
HETATM    2  C6  UNL     1      21.804   1.460  51.767  1.00  0.00     0.227 C 
HETATM    3  N2  UNL     1      20.856   2.258  52.095  1.00  0.00    -0.169 NA
HETATM    4  N3  UNL     1      21.129   3.595  52.383  1.00  0.00    -0.271 N 
HETATM    5  C7  UNL     1      22.225   4.171  51.698  1.00  0.00     0.227 C 
HETATM    6  N4  UNL     1      23.539   4.092  51.894  1.00  0.00    -0.226 NA
HETATM    7  C8  UNL     1      24.398   4.799  51.015  1.00  0.00     0.122 C 
HETATM    8  C16 UNL     1      24.374   3.580  50.512  1.00  0.00     0.043 C 
HETATM    9  C17 UNL     1      23.951   2.204  50.505  1.00  0.00     0.155 C 
HETATM   10  H7  UNL     1      20.465   3.988  53.082  1.00  0.00     0.190 HD
ENDROOT
BRANCH   7  11
HETATM   11  N5  UNL     1      25.089   5.940  50.556  1.00  0.00    -0.371 N 
HETATM   12  H9  UNL     1      25.453   6.707  51.173  1.00  0.00     0.161 HD
BRANCH  11  13
HETATM   13  C9  UNL     1      25.198   5.852  49.131  1.00  0.00     0.160 C 
BRANCH  13  14
HETATM   14  C10 UNL     1      26.643   5.925  48.762  1.00  0.00    -0.038 A 
HETATM   15  C11 UNL     1      27.585   4.928  48.632  1.00  0.00     0.009 A 
HETATM   16  C12 UNL     1      28.874   5.235  48.280  1.00  0.00     0.004 A 
HETATM   17  C13 UNL     1      29.301   6.516  48.040  1.00  0.00     0.042 A 
HETATM   18  C14 UNL     1      28.385   7.551  48.161  1.00  0.00     0.117 A 
HETATM   19  F1  UNL     1      28.787   8.812  47.930  1.00  0.00    -0.206 F 
HETATM   20  C15 UNL     1      27.075   7.232  48.519  1.00  0.00     0.051 A 
ENDBRANCH  13  14
ENDBRANCH  11  13
ENDBRANCH   7  11
BRANCH   1  21
HETATM   21  C5  UNL     1      23.575   1.458  52.988  1.00  0.00     0.162 C 
BRANCH  21  22
HETATM   22  C4  UNL     1      24.898   0.978  53.304  1.00  0.00    -0.040 A 
HETATM   23  C3  UNL     1      25.049  -0.393  53.056  1.00  0.00     0.011 A 
HETATM   24  C2  UNL     1      26.261  -1.038  53.272  1.00  0.00     0.037 A 
HETATM   25  C1  UNL     1      27.357  -0.346  53.740  1.00  0.00     0.065 A 
HETATM   26  C19 UNL     1      27.255   1.018  54.001  1.00  0.00     0.037 A 
HETATM   27  C18 UNL     1      26.038   1.620  53.774  1.00  0.00     0.011 A 
BRANCH  25  28
HETATM   28  O1  UNL     1      28.593  -0.948  53.972  1.00  0.00    -0.361 OA
HETATM   29  H1  UNL     1      28.653  -1.915  54.286  1.00  0.00     0.217 HD
ENDBRANCH  25  28
ENDBRANCH  21  22
ENDBRANCH   1  21
TORSDOF 6
ENDMDL
MODEL 9
REMARK VINA RESULT:      -7.9      3.203      4.696
REMARK  6 active torsions:
REMARK  status: ('A' for Active; 'I' for Inactive)
REMARK    1  A    between atoms: O1_1  and  C1_2 
REMARK    2  A    between atoms: C4_5  and  C5_6 
REMARK    3  A    between atoms: C5_6  and  N1_7 
REMARK    4  A    between atoms: C8_13  and  N5_14 
REMARK    5  A    between atoms: N5_14  and  C9_15 
REMARK    6  A    between atoms: C9_15  and  C10_16 
ROOT
HETATM    1  N1  UNL     1      23.062   3.113  50.931  1.00  0.00    -0.366 N 
HETATM    2  C6  UNL     1      21.675   3.337  51.126  1.00  0.00     0.227 C 
HETATM    3  N2  UNL     1      21.106   4.404  51.554  1.00  0.00    -0.169 NA
HETATM    4  N3  UNL     1      21.869   5.521  51.890  1.00  0.00    -0.271 N 
HETATM    5  C7  UNL     1      23.071   5.699  51.164  1.00  0.00     0.227 C 
HETATM    6  N4  UNL     1      24.268   5.128  51.271  1.00  0.00    -0.226 NA
HETATM    7  C8  UNL     1      25.291   5.527  50.374  1.00  0.00     0.122 C 
HETATM    8  C16 UNL     1      24.794   4.442  49.814  1.00  0.00     0.043 C 
HETATM    9  C17 UNL     1      23.889   3.323  49.765  1.00  0.00     0.155 C 
HETATM   10  H7  UNL     1      21.429   6.082  52.649  1.00  0.00     0.190 HD
ENDROOT
BRANCH   7  11
HETATM   11  N5  UNL     1      26.338   6.362  49.929  1.00  0.00    -0.371 N 
HETATM   12  H9  UNL     1      26.903   6.993  50.547  1.00  0.00     0.161 HD
BRANCH  11  13
HETATM   13  C9  UNL     1      26.478   6.185  48.515  1.00  0.00     0.160 C 
BRANCH  13  14
HETATM   14  C10 UNL     1      27.866   6.575  48.125  1.00  0.00    -0.038 A 
HETATM   15  C11 UNL     1      28.373   7.790  47.718  1.00  0.00     0.009 A 
HETATM   16  C12 UNL     1      29.702   7.914  47.405  1.00  0.00     0.004 A 
HETATM   17  C13 UNL     1      30.590   6.872  47.472  1.00  0.00     0.042 A 
HETATM   18  C14 UNL     1      30.121   5.630  47.876  1.00  0.00     0.117 A 
HETATM   19  F1  UNL     1      30.978   4.598  47.947  1.00  0.00    -0.206 F 
HETATM   20  C15 UNL     1      28.768   5.510  48.195  1.00  0.00     0.051 A 
ENDBRANCH  13  14
ENDBRANCH  11  13
ENDBRANCH   7  11
BRANCH   1  21
HETATM   21  C5  UNL     1      23.367   2.596  52.227  1.00  0.00     0.162 C 
BRANCH  21  22
HETATM   22  C4  UNL     1      24.353   1.562  52.418  1.00  0.00    -0.040 A 
HETATM   23  C3  UNL     1      23.865   0.479  53.163  1.00  0.00     0.011 A 
HETATM   24  C2  UNL     1      24.657  -0.631  53.431  1.00  0.00     0.037 A 
HETATM   25  C1  UNL     1      25.954  -0.702  52.971  1.00  0.00     0.065 A 
HETATM   26  C19 UNL     1      26.484   0.349  52.227  1.00  0.00     0.037 A 
HETATM   27  C18 UNL     1      25.667   1.431  51.982  1.00  0.00     0.011 A 
BRANCH  25  28
HETATM   28  O1  UNL     1      26.787  -1.793  53.214  1.00  0.00    -0.361 OA
HETATM   29  H1  UNL     1      26.664  -2.370  54.044  1.00  0.00     0.217 HD
ENDBRANCH  25  28
ENDBRANCH  21  22
ENDBRANCH   1  21
TORSDOF 6
ENDMDL
