MODEL 1
REMARK VINA RESULT:      -8.5      0.000      0.000
REMARK  6 active torsions:
REMARK  status: ('A' for Active; 'I' for Inactive)
REMARK    1  A    between atoms: C3_3  and  N1_5 
REMARK    2  A    between atoms: N1_5  and  C4_6 
REMARK    3  A    between atoms: C12_15  and  N3_16 
REMARK    4  A    between atoms: C12_15  and  N4_17 
REMARK    5  A    between atoms: N4_17  and  C13_18 
REMARK    6  A    between atoms: C14_19  and  C15_21 
ROOT
HETATM    1  C4  UNL     1      26.150   1.335  53.630  1.00  0.00     0.034 A 
HETATM    2  C5  UNL     1      26.165   0.779  52.351  1.00  0.00     0.032 A 
HETATM    3  C6  UNL     1      25.354   1.381  51.419  1.00  0.00     0.040 A 
HETATM    4  C7  UNL     1      24.577   2.467  51.736  1.00  0.00     0.086 A 
HETATM    5  C8  UNL     1      24.538   3.046  52.993  1.00  0.00    -0.004 A 
HETATM    6  C9  UNL     1      25.354   2.441  53.941  1.00  0.00     0.041 A 
HETATM    7  C10 UNL     1      23.776   4.198  53.483  1.00  0.00     0.161 C 
HETATM    8  N2  UNL     1      23.850   5.358  52.553  1.00  0.00    -0.379 N 
HETATM    9  C11 UNL     1      23.980   5.566  51.110  1.00  0.00     0.120 C 
HETATM   10  C12 UNL     1      24.383   6.718  50.465  1.00  0.00     0.109 C 
HETATM   11  C17 UNL     1      23.639   4.310  50.354  1.00  0.00     0.195 C 
HETATM   12  N5  UNL     1      23.058   4.598  49.212  1.00  0.00    -0.269 NA
HETATM   13  C18 UNL     1      22.671   3.499  48.368  1.00  0.00     0.180 C 
HETATM   14  O2  UNL     1      23.823   2.929  50.636  1.00  0.00    -0.290 OA
HETATM   15  H10 UNL     1      23.788   6.290  53.061  1.00  0.00     0.160 HD
ENDROOT
BRANCH  10  16
HETATM   16  N3  UNL     1      24.528   7.328  51.648  1.00  0.00    -0.287 NA
HETATM   17  H11 UNL     1      24.739   8.392  51.645  1.00  0.00     0.125 HD
HETATM   18  H12 UNL     1      24.727   8.255  52.001  1.00  0.00     0.125 HD
ENDBRANCH  10  16
BRANCH  10  19
HETATM   19  N4  UNL     1      24.352   6.369  49.059  1.00  0.00    -0.354 N 
HETATM   20  H13 UNL     1      23.627   5.645  48.759  1.00  0.00     0.166 HD
BRANCH  19  21
HETATM   21  C13 UNL     1      25.367   7.094  48.360  1.00  0.00     0.111 C 
HETATM   22  C14 UNL     1      26.632   6.669  48.323  1.00  0.00     0.060 C 
HETATM   23 CL1  UNL     1      28.019   7.433  47.515  1.00  0.00    -0.085 Cl
BRANCH  22  24
HETATM   24  C15 UNL     1      27.213   5.461  48.937  1.00  0.00     0.212 C 
HETATM   25  C16 UNL     1      28.610   5.267  48.338  1.00  0.00     0.051 C 
HETATM   26  F1  UNL     1      26.485   4.325  48.630  1.00  0.00    -0.244 F 
ENDBRANCH  22  24
ENDBRANCH  19  21
ENDBRANCH  10  19
BRANCH   1  27
HETATM   27  N1  UNL     1      26.914   0.878  54.737  1.00  0.00    -0.337 N 
HETATM   28  H4  UNL     1      26.993   0.829  55.775  1.00  0.00     0.168 HD
BRANCH  27  29
HETATM   29  C3  UNL     1      28.104   0.177  54.298  1.00  0.00     0.141 A 
HETATM   30  C2  UNL     1      29.432   0.544  53.808  1.00  0.00     0.056 A 
HETATM   31  C1  UNL     1      29.778  -0.730  53.680  1.00  0.00     0.209 A 
HETATM   32  O1  UNL     1      28.454  -1.025  54.170  1.00  0.00    -0.332 OA
ENDBRANCH  27  29
ENDBRANCH   1  27
TORSDOF 6
ENDMDL
MODEL 2
REMARK VINA RESULT:      -7.7      2.923      3.545
REMARK  6 active torsions:
REMARK  status: ('A' for Active; 'I' for Inactive)
REMARK    1  A    between atoms: C3_3  and  N1_5 
REMARK    2  A    between atoms: N1_5  and  C4_6 
REMARK    3  A    between atoms: C12_15  and  N3_16 
REMARK    4  A    between atoms: C12_15  and  N4_17 
REMARK    5  A    between atoms: N4_17  and  C13_18 
REMARK    6  A    between atoms: C14_19  and  C15_21 
ROOT
HETATM    1  C4  UNL     1      26.277   1.553  53.306  1.00  0.00     0.034 A 
HETATM    2  C5  UNL     1      26.650   2.092  52.076  1.00  0.00     0.032 A 
HETATM    3  C6  UNL     1      25.672   2.135  51.112  1.00  0.00     0.040 A 
HETATM    4  C7  UNL     1      24.402   1.673  51.353  1.00  0.00     0.086 A 
HETATM    5  C8  UNL     1      23.996   1.133  52.562  1.00  0.00    -0.004 A 
HETATM    6  C9  UNL     1      24.981   1.085  53.541  1.00  0.00     0.041 A 
HETATM    7  C10 UNL     1      22.692   0.608  52.976  1.00  0.00     0.161 C 
HETATM    8  N2  UNL     1      21.574   1.512  52.590  1.00  0.00    -0.379 N 
HETATM    9  C11 UNL     1      21.286   2.457  51.508  1.00  0.00     0.120 C 
HETATM   10  C12 UNL     1      20.341   3.463  51.508  1.00  0.00     0.109 C 
HETATM   11  C17 UNL     1      22.201   2.226  50.336  1.00  0.00     0.195 C 
HETATM   12  N5  UNL     1      21.579   2.471  49.205  1.00  0.00    -0.269 NA
HETATM   13  C18 UNL     1      22.324   2.298  47.987  1.00  0.00     0.180 C 
HETATM   14  O2  UNL     1      23.556   1.810  50.232  1.00  0.00    -0.290 OA
HETATM   15  H10 UNL     1      20.759   1.464  53.270  1.00  0.00     0.160 HD
ENDROOT
BRANCH  10  16
HETATM   16  N3  UNL     1      19.975   3.118  52.749  1.00  0.00    -0.287 NA
HETATM   17  H11 UNL     1      20.282   3.765  53.564  1.00  0.00     0.125 HD
HETATM   18  H12 UNL     1      20.086   3.463  53.693  1.00  0.00     0.125 HD
ENDBRANCH  10  16
BRANCH  10  19
HETATM   19  N4  UNL     1      20.494   4.096  50.214  1.00  0.00    -0.354 N 
HETATM   20  H13 UNL     1      20.569   3.449  49.368  1.00  0.00     0.166 HD
BRANCH  19  21
HETATM   21  C13 UNL     1      20.536   5.516  50.374  1.00  0.00     0.111 C 
HETATM   22  C14 UNL     1      21.687   6.191  50.349  1.00  0.00     0.060 C 
HETATM   23 CL1  UNL     1      21.933   7.942  50.532  1.00  0.00    -0.085 Cl
BRANCH  22  24
HETATM   24  C15 UNL     1      23.054   5.668  50.163  1.00  0.00     0.212 C 
HETATM   25  C16 UNL     1      23.643   5.423  51.556  1.00  0.00     0.051 C 
HETATM   26  F1  UNL     1      23.877   6.587  49.537  1.00  0.00    -0.244 F 
ENDBRANCH  22  24
ENDBRANCH  19  21
ENDBRANCH  10  19
BRANCH   1  27
HETATM   27  N1  UNL     1      27.124   1.421  54.440  1.00  0.00    -0.337 N 
HETATM   28  H4  UNL     1      27.335   1.745  55.407  1.00  0.00     0.168 HD
BRANCH  27  29
HETATM   29  C3  UNL     1      28.153   0.428  54.210  1.00  0.00     0.141 A 
HETATM   30  C2  UNL     1      29.539   0.424  53.741  1.00  0.00     0.056 A 
HETATM   31  C1  UNL     1      29.619  -0.895  53.872  1.00  0.00     0.209 A 
HETATM   32  O1  UNL     1      28.251  -0.822  54.327  1.00  0.00    -0.332 OA
ENDBRANCH  27  29
ENDBRANCH   1  27
TORSDOF 6
ENDMDL
MODEL 3
REMARK VINA RESULT:      -7.3      2.773      4.581
REMARK  6 active torsions:
REMARK  status: ('A' for Active; 'I' for Inactive)
REMARK    1  A    between atoms: C3_3  and  N1_5 
REMARK    2  A    between atoms: N1_5  and  C4_6 
REMARK    3  A    between atoms: C12_15  and  N3_16 
REMARK    4  A    between atoms: C12_15  and  N4_17 
REMARK    5  A    between atoms: N4_17  and  C13_18 
REMARK    6  A    between atoms: C14_19  and  C15_21 
ROOT
HETATM    1  C4  UNL     1      24.000   4.169  50.837  1.00  0.00     0.034 A 
HETATM    2  C5  UNL     1      24.560   3.749  49.631  1.00  0.00     0.032 A 
HETATM    3  C6  UNL     1      25.035   4.741  48.807  1.00  0.00     0.040 A 
HETATM    4  C7  UNL     1      24.960   6.066  49.156  1.00  0.00     0.086 A 
HETATM    5  C8  UNL     1      24.413   6.518  50.345  1.00  0.00    -0.004 A 
HETATM    6  C9  UNL     1      23.929   5.522  51.183  1.00  0.00     0.041 A 
HETATM    7  C10 UNL     1      24.267   7.882  50.863  1.00  0.00     0.161 C 
HETATM    8  N2  UNL     1      25.516   8.677  50.714  1.00  0.00    -0.379 N 
HETATM    9  C11 UNL     1      26.641   8.737  49.779  1.00  0.00     0.120 C 
HETATM   10  C12 UNL     1      27.881   9.303  50.000  1.00  0.00     0.109 C 
HETATM   11  C17 UNL     1      26.301   8.050  48.484  1.00  0.00     0.195 C 
HETATM   12  N5  UNL     1      26.879   8.654  47.471  1.00  0.00    -0.269 NA
HETATM   13  C18 UNL     1      26.652   8.112  46.158  1.00  0.00     0.180 C 
HETATM   14  O2  UNL     1      25.504   6.915  48.170  1.00  0.00    -0.290 OA
HETATM   15  H10 UNL     1      25.630   9.402  51.483  1.00  0.00     0.160 HD
ENDROOT
BRANCH  10  16
HETATM   16  N3  UNL     1      27.500   9.653  51.235  1.00  0.00    -0.287 NA
HETATM   17  H11 UNL     1      28.249  10.084  51.891  1.00  0.00     0.125 HD
HETATM   18  H12 UNL     1      27.912  10.053  52.067  1.00  0.00     0.125 HD
ENDBRANCH  10  16
BRANCH  10  19
HETATM   19  N4  UNL     1      28.606   9.066  48.768  1.00  0.00    -0.354 N 
HETATM   20  H13 UNL     1      28.062   9.193  47.858  1.00  0.00     0.166 HD
BRANCH  19  21
HETATM   21  C13 UNL     1      29.947   8.673  49.067  1.00  0.00     0.111 C 
HETATM   22  C14 UNL     1      30.504   7.596  48.509  1.00  0.00     0.060 C 
HETATM   23 CL1  UNL     1      32.143   6.956  48.760  1.00  0.00    -0.085 Cl
BRANCH  22  24
HETATM   24  C15 UNL     1      29.910   6.654  47.542  1.00  0.00     0.212 C 
HETATM   25  C16 UNL     1      29.069   5.650  48.337  1.00  0.00     0.051 C 
HETATM   26  F1  UNL     1      30.877   5.923  46.872  1.00  0.00    -0.244 F 
ENDBRANCH  22  24
ENDBRANCH  19  21
ENDBRANCH  10  19
BRANCH   1  27
HETATM   27  N1  UNL     1      23.459   3.316  51.836  1.00  0.00    -0.337 N 
HETATM   28  H4  UNL     1      22.594   2.929  52.271  1.00  0.00     0.168 HD
BRANCH  27  29
HETATM   29  C3  UNL     1      24.508   2.696  52.619  1.00  0.00     0.141 A 
HETATM   30  C2  UNL     1      25.436   1.578  52.455  1.00  0.00     0.056 A 
HETATM   31  C1  UNL     1      25.970   1.796  53.650  1.00  0.00     0.209 A 
HETATM   32  O1  UNL     1      25.029   2.885  53.750  1.00  0.00    -0.332 OA
ENDBRANCH  27  29
ENDBRANCH   1  27
TORSDOF 6
ENDMDL
MODEL 4
REMARK VINA RESULT:      -7.1      4.420      7.394
REMARK  6 active torsions:
REMARK  status: ('A' for Active; 'I' for Inactive)
REMARK    1  A    between atoms: C3_3  and  N1_5 
REMARK    2  A    between atoms: N1_5  and  C4_6 
REMARK    3  A    between atoms: C12_15  and  N3_16 
REMARK    4  A    between atoms: C12_15  and  N4_17 
REMARK    5  A    between atoms: N4_17  and  C13_18 
REMARK    6  A    between atoms: C14_19  and  C15_21 
ROOT
HETATM    1  C4  UNL     1      26.449   5.940  48.780  1.00  0.00     0.034 A 
HETATM    2  C5  UNL     1      27.084   4.699  48.782  1.00  0.00     0.032 A 
HETATM    3  C6  UNL     1      26.629   3.787  49.704  1.00  0.00     0.040 A 
HETATM    4  C7  UNL     1      25.609   4.087  50.571  1.00  0.00     0.086 A 
HETATM    5  C8  UNL     1      24.955   5.308  50.597  1.00  0.00    -0.004 A 
HETATM    6  C9  UNL     1      25.410   6.236  49.668  1.00  0.00     0.041 A 
HETATM    7  C10 UNL     1      23.856   5.777  51.446  1.00  0.00     0.161 C 
HETATM    8  N2  UNL     1      22.758   4.777  51.548  1.00  0.00    -0.379 N 
HETATM    9  C11 UNL     1      22.633   3.318  51.524  1.00  0.00     0.120 C 
HETATM   10  C12 UNL     1      21.492   2.581  51.283  1.00  0.00     0.109 C 
HETATM   11  C17 UNL     1      23.965   2.661  51.775  1.00  0.00     0.195 C 
HETATM   12  N5  UNL     1      23.812   1.544  52.449  1.00  0.00    -0.269 NA
HETATM   13  C18 UNL     1      24.998   0.794  52.767  1.00  0.00     0.180 C 
HETATM   14  O2  UNL     1      25.299   3.013  51.432  1.00  0.00    -0.290 OA
HETATM   15  H10 UNL     1      21.806   5.231  51.678  1.00  0.00     0.160 HD
ENDROOT
BRANCH  10  16
HETATM   16  N3  UNL     1      20.794   3.714  51.133  1.00  0.00    -0.287 NA
HETATM   17  H11 UNL     1      19.917   3.686  50.496  1.00  0.00     0.125 HD
HETATM   18  H12 UNL     1      19.974   4.036  50.636  1.00  0.00     0.125 HD
ENDBRANCH  10  16
BRANCH  10  19
HETATM   19  N4  UNL     1      21.934   1.203  51.358  1.00  0.00    -0.354 N 
HETATM   20  H13 UNL     1      22.973   1.022  51.193  1.00  0.00     0.166 HD
BRANCH  19  21
HETATM   21  C13 UNL     1      20.817   0.353  51.627  1.00  0.00     0.111 C 
HETATM   22  C14 UNL     1      20.536  -0.065  52.864  1.00  0.00     0.060 C 
HETATM   23 CL1  UNL     1      19.203  -1.119  53.386  1.00  0.00    -0.085 Cl
BRANCH  22  24
HETATM   24  C15 UNL     1      21.251   0.234  54.118  1.00  0.00     0.212 C 
HETATM   25  C16 UNL     1      21.882  -1.073  54.610  1.00  0.00     0.051 C 
HETATM   26  F1  UNL     1      20.390   0.662  55.114  1.00  0.00    -0.244 F 
ENDBRANCH  22  24
ENDBRANCH  19  21
ENDBRANCH  10  19
BRANCH   1  27
HETATM   27  N1  UNL     1      26.753   7.021  47.910  1.00  0.00    -0.337 N 
HETATM   28  H4  UNL     1      26.558   7.478  46.994  1.00  0.00     0.168 HD
BRANCH  27  29
HETATM   29  C3  UNL     1      27.761   7.888  48.486  1.00  0.00     0.141 A 
HETATM   30  C2  UNL     1      27.782   9.035  49.393  1.00  0.00     0.056 A 
HETATM   31  C1  UNL     1      29.104   9.120  49.315  1.00  0.00     0.209 A 
HETATM   32  O1  UNL     1      29.014   7.987  48.427  1.00  0.00    -0.332 OA
ENDBRANCH  27  29
ENDBRANCH   1  27
TORSDOF 6
ENDMDL
MODEL 5
REMARK VINA RESULT:      -7.1      4.133      7.943
REMARK  6 active torsions:
REMARK  status: ('A' for Active; 'I' for Inactive)
REMARK    1  A    between atoms: C3_3  and  N1_5 
REMARK    2  A    between atoms: N1_5  and  C4_6 
REMARK    3  A    between atoms: C12_15  and  N3_16 
REMARK    4  A    between atoms: C12_15  and  N4_17 
REMARK    5  A    between atoms: N4_17  and  C13_18 
REMARK    6  A    between atoms: C14_19  and  C15_21 
ROOT
HETATM    1  C4  UNL     1      25.422   8.062  50.233  1.00  0.00     0.034 A 
HETATM    2  C5  UNL     1      24.081   7.914  50.584  1.00  0.00     0.032 A 
HETATM    3  C6  UNL     1      23.561   6.647  50.466  1.00  0.00     0.040 A 
HETATM    4  C7  UNL     1      24.323   5.593  50.029  1.00  0.00     0.086 A 
HETATM    5  C8  UNL     1      25.657   5.703  49.673  1.00  0.00    -0.004 A 
HETATM    6  C9  UNL     1      26.190   6.982  49.788  1.00  0.00     0.041 A 
HETATM    7  C10 UNL     1      26.599   4.685  49.199  1.00  0.00     0.161 C 
HETATM    8  N2  UNL     1      26.545   3.443  50.018  1.00  0.00    -0.379 N 
HETATM    9  C11 UNL     1      25.534   2.710  50.783  1.00  0.00     0.120 C 
HETATM   10  C12 UNL     1      25.754   1.764  51.765  1.00  0.00     0.109 C 
HETATM   11  C17 UNL     1      24.146   3.139  50.390  1.00  0.00     0.195 C 
HETATM   12  N5  UNL     1      23.312   2.127  50.452  1.00  0.00    -0.269 NA
HETATM   13  C18 UNL     1      21.938   2.377  50.106  1.00  0.00     0.180 C 
HETATM   14  O2  UNL     1      23.596   4.385  49.982  1.00  0.00    -0.290 OA
HETATM   15  H10 UNL     1      27.482   2.945  50.063  1.00  0.00     0.160 HD
ENDROOT
BRANCH  10  16
HETATM   16  N3  UNL     1      27.076   1.909  51.607  1.00  0.00    -0.287 NA
HETATM   17  H11 UNL     1      27.542   2.787  52.043  1.00  0.00     0.125 HD
HETATM   18  H12 UNL     1      27.798   2.571  51.858  1.00  0.00     0.125 HD
ENDBRANCH  10  16
BRANCH  10  19
HETATM   19  N4  UNL     1      24.424   1.382  52.196  1.00  0.00    -0.354 N 
HETATM   20  H13 UNL     1      23.604   1.822  51.672  1.00  0.00     0.166 HD
BRANCH  19  21
HETATM   21  C13 UNL     1      24.517   0.474  53.296  1.00  0.00     0.111 C 
HETATM   22  C14 UNL     1      23.437  -0.124  53.805  1.00  0.00     0.060 C 
HETATM   23 CL1  UNL     1      23.358  -1.269  55.162  1.00  0.00    -0.085 Cl
BRANCH  22  24
HETATM   24  C15 UNL     1      22.031   0.007  53.381  1.00  0.00     0.212 C 
HETATM   25  C16 UNL     1      21.177  -0.791  54.371  1.00  0.00     0.051 C 
HETATM   26  F1  UNL     1      21.815  -0.546  52.131  1.00  0.00    -0.244 F 
ENDBRANCH  22  24
ENDBRANCH  19  21
ENDBRANCH  10  19
BRANCH   1  27
HETATM   27  N1  UNL     1      26.159   9.276  50.286  1.00  0.00    -0.337 N 
HETATM   28  H4  UNL     1      26.809   9.872  50.841  1.00  0.00     0.168 HD
BRANCH  27  29
HETATM   29  C3  UNL     1      25.958  10.062  49.087  1.00  0.00     0.141 A 
HETATM   30  C2  UNL     1      25.430   9.832  47.742  1.00  0.00     0.056 A 
HETATM   31  C1  UNL     1      25.653  11.094  47.398  1.00  0.00     0.209 A 
HETATM   32  O1  UNL     1      26.160  11.255  48.739  1.00  0.00    -0.332 OA
ENDBRANCH  27  29
ENDBRANCH   1  27
TORSDOF 6
ENDMDL
MODEL 6
REMARK VINA RESULT:      -7.0      4.279      6.803
REMARK  6 active torsions:
REMARK  status: ('A' for Active; 'I' for Inactive)
REMARK    1  A    between atoms: C3_3  and  N1_5 
REMARK    2  A    between atoms: N1_5  and  C4_6 
REMARK    3  A    between atoms: C12_15  and  N3_16 
REMARK    4  A    between atoms: C12_15  and  N4_17 
REMARK    5  A    between atoms: N4_17  and  C13_18 
REMARK    6  A    between atoms: C14_19  and  C15_21 
ROOT
HETATM    1  C4  UNL     1      25.284   6.182  50.357  1.00  0.00     0.034 A 
HETATM    2  C5  UNL     1      25.736   5.361  49.325  1.00  0.00     0.032 A 
HETATM    3  C6  UNL     1      26.626   5.928  48.444  1.00  0.00     0.040 A 
HETATM    4  C7  UNL     1      27.041   7.229  48.579  1.00  0.00     0.086 A 
HETATM    5  C8  UNL     1      26.615   8.073  49.591  1.00  0.00    -0.004 A 
HETATM    6  C9  UNL     1      25.714   7.506  50.484  1.00  0.00     0.041 A 
HETATM    7  C10 UNL     1      26.966   9.468  49.873  1.00  0.00     0.161 C 
HETATM    8  N2  UNL     1      28.434   9.704  49.799  1.00  0.00    -0.379 N 
HETATM    9  C11 UNL     1      29.568   9.165  49.047  1.00  0.00     0.120 C 
HETATM   10  C12 UNL     1      30.907   9.268  49.367  1.00  0.00     0.109 C 
HETATM   11  C17 UNL     1      29.098   8.412  47.832  1.00  0.00     0.195 C 
HETATM   12  N5  UNL     1      29.947   8.553  46.840  1.00  0.00    -0.269 NA
HETATM   13  C18 UNL     1      29.638   7.888  45.602  1.00  0.00     0.180 C 
HETATM   14  O2  UNL     1      27.952   7.611  47.571  1.00  0.00    -0.290 OA
HETATM   15  H10 UNL     1      28.755  10.472  50.460  1.00  0.00     0.160 HD
ENDROOT
BRANCH  10  16
HETATM   16  N3  UNL     1      30.590   9.966  50.465  1.00  0.00    -0.287 NA
HETATM   17  H11 UNL     1      31.031  10.950  50.583  1.00  0.00     0.125 HD
HETATM   18  H12 UNL     1      30.809  10.861  50.881  1.00  0.00     0.125 HD
ENDBRANCH  10  16
BRANCH  10  19
HETATM   19  N4  UNL     1      31.584   8.546  48.308  1.00  0.00    -0.354 N 
HETATM   20  H13 UNL     1      31.172   8.636  47.327  1.00  0.00     0.166 HD
BRANCH  19  21
HETATM   21  C13 UNL     1      32.692   7.824  48.849  1.00  0.00     0.111 C 
HETATM   22  C14 UNL     1      33.214   6.768  48.222  1.00  0.00     0.060 C 
HETATM   23 CL1  UNL     1      34.578   5.752  48.739  1.00  0.00    -0.085 Cl
BRANCH  22  24
HETATM   24  C15 UNL     1      32.801   6.165  46.941  1.00  0.00     0.212 C 
HETATM   25  C16 UNL     1      31.924   4.952  47.266  1.00  0.00     0.051 C 
HETATM   26  F1  UNL     1      33.884   5.693  46.219  1.00  0.00    -0.244 F 
ENDBRANCH  22  24
ENDBRANCH  19  21
ENDBRANCH  10  19
BRANCH   1  27
HETATM   27  N1  UNL     1      24.373   5.799  51.377  1.00  0.00    -0.337 N 
HETATM   28  H4  UNL     1      23.812   6.107  52.199  1.00  0.00     0.168 HD
BRANCH  27  29
HETATM   29  C3  UNL     1      24.055   4.388  51.291  1.00  0.00     0.141 A 
HETATM   30  C2  UNL     1      24.567   3.147  51.871  1.00  0.00     0.056 A 
HETATM   31  C1  UNL     1      23.666   2.425  51.216  1.00  0.00     0.209 A 
HETATM   32  O1  UNL     1      23.209   3.684  50.680  1.00  0.00    -0.332 OA
ENDBRANCH  27  29
ENDBRANCH   1  27
TORSDOF 6
ENDMDL
MODEL 7
REMARK VINA RESULT:      -7.0      3.422      4.978
REMARK  6 active torsions:
REMARK  status: ('A' for Active; 'I' for Inactive)
REMARK    1  A    between atoms: C3_3  and  N1_5 
REMARK    2  A    between atoms: N1_5  and  C4_6 
REMARK    3  A    between atoms: C12_15  and  N3_16 
REMARK    4  A    between atoms: C12_15  and  N4_17 
REMARK    5  A    between atoms: N4_17  and  C13_18 
REMARK    6  A    between atoms: C14_19  and  C15_21 
ROOT
HETATM    1  C4  UNL     1      23.677   4.137  50.868  1.00  0.00     0.034 A 
HETATM    2  C5  UNL     1      24.043   3.769  49.574  1.00  0.00     0.032 A 
HETATM    3  C6  UNL     1      24.442   4.789  48.744  1.00  0.00     0.040 A 
HETATM    4  C7  UNL     1      24.475   6.093  49.171  1.00  0.00     0.086 A 
HETATM    5  C8  UNL     1      24.121   6.494  50.448  1.00  0.00    -0.004 A 
HETATM    6  C9  UNL     1      23.715   5.468  51.293  1.00  0.00     0.041 A 
HETATM    7  C10 UNL     1      24.109   7.829  51.053  1.00  0.00     0.161 C 
HETATM    8  N2  UNL     1      25.360   8.586  50.770  1.00  0.00    -0.379 N 
HETATM    9  C11 UNL     1      26.345   8.660  49.689  1.00  0.00     0.120 C 
HETATM   10  C12 UNL     1      27.627   9.166  49.761  1.00  0.00     0.109 C 
HETATM   11  C17 UNL     1      25.796   8.062  48.421  1.00  0.00     0.195 C 
HETATM   12  N5  UNL     1      26.252   8.704  47.370  1.00  0.00    -0.269 NA
HETATM   13  C18 UNL     1      25.820   8.249  46.075  1.00  0.00     0.180 C 
HETATM   14  O2  UNL     1      24.913   6.979  48.163  1.00  0.00    -0.290 OA
HETATM   15  H10 UNL     1      25.612   9.260  51.552  1.00  0.00     0.160 HD
ENDROOT
BRANCH  10  16
HETATM   16  N3  UNL     1      27.439   9.456  51.054  1.00  0.00    -0.287 NA
HETATM   17  H11 UNL     1      26.739   8.843  51.612  1.00  0.00     0.125 HD
HETATM   18  H12 UNL     1      26.887   9.118  51.832  1.00  0.00     0.125 HD
ENDBRANCH  10  16
BRANCH  10  19
HETATM   19  N4  UNL     1      28.161   8.975  48.427  1.00  0.00    -0.354 N 
HETATM   20  H13 UNL     1      27.532   9.259  47.613  1.00  0.00     0.166 HD
BRANCH  19  21
HETATM   21  C13 UNL     1      29.467   8.400  48.509  1.00  0.00     0.111 C 
HETATM   22  C14 UNL     1      30.566   9.157  48.534  1.00  0.00     0.060 C 
HETATM   23 CL1  UNL     1      32.260   8.624  48.629  1.00  0.00    -0.085 Cl
BRANCH  22  24
HETATM   24  C15 UNL     1      30.669  10.627  48.488  1.00  0.00     0.212 C 
HETATM   25  C16 UNL     1      31.835  10.977  47.558  1.00  0.00     0.051 C 
HETATM   26  F1  UNL     1      30.972  11.162  49.728  1.00  0.00    -0.244 F 
ENDBRANCH  22  24
ENDBRANCH  19  21
ENDBRANCH  10  19
BRANCH   1  27
HETATM   27  N1  UNL     1      23.244   3.247  51.888  1.00  0.00    -0.337 N 
HETATM   28  H4  UNL     1      22.429   2.810  52.369  1.00  0.00     0.168 HD
BRANCH  27  29
HETATM   29  C3  UNL     1      24.370   2.677  52.597  1.00  0.00     0.141 A 
HETATM   30  C2  UNL     1      25.338   1.605  52.367  1.00  0.00     0.056 A 
HETATM   31  C1  UNL     1      25.937   1.845  53.526  1.00  0.00     0.209 A 
HETATM   32  O1  UNL     1      24.954   2.887  53.693  1.00  0.00    -0.332 OA
ENDBRANCH  27  29
ENDBRANCH   1  27
TORSDOF 6
ENDMDL
MODEL 8
REMARK VINA RESULT:      -6.8      2.772      3.593
REMARK  6 active torsions:
REMARK  status: ('A' for Active; 'I' for Inactive)
REMARK    1  A    between atoms: C3_3  and  N1_5 
REMARK    2  A    between atoms: N1_5  and  C4_6 
REMARK    3  A    between atoms: C12_15  and  N3_16 
REMARK    4  A    between atoms: C12_15  and  N4_17 
REMARK    5  A    between atoms: N4_17  and  C13_18 
REMARK    6  A    between atoms: C14_19  and  C15_21 
ROOT
HETATM    1  C4  UNL     1      24.868   1.568  51.773  1.00  0.00     0.034 A 
HETATM    2  C5  UNL     1      26.241   1.532  51.533  1.00  0.00     0.032 A 
HETATM    3  C6  UNL     1      26.737   2.509  50.704  1.00  0.00     0.040 A 
HETATM    4  C7  UNL     1      25.922   3.463  50.147  1.00  0.00     0.086 A 
HETATM    5  C8  UNL     1      24.556   3.530  50.364  1.00  0.00    -0.004 A 
HETATM    6  C9  UNL     1      24.047   2.544  51.200  1.00  0.00     0.041 A 
HETATM    7  C10 UNL     1      23.561   4.478  49.855  1.00  0.00     0.161 C 
HETATM    8  N2  UNL     1      24.016   5.890  49.976  1.00  0.00    -0.379 N 
HETATM    9  C11 UNL     1      25.290   6.611  49.941  1.00  0.00     0.120 C 
HETATM   10  C12 UNL     1      25.545   7.879  50.421  1.00  0.00     0.109 C 
HETATM   11  C17 UNL     1      26.368   5.765  49.318  1.00  0.00     0.195 C 
HETATM   12  N5  UNL     1      27.209   6.510  48.638  1.00  0.00    -0.269 NA
HETATM   13  C18 UNL     1      28.304   5.846  47.982  1.00  0.00     0.180 C 
HETATM   14  O2  UNL     1      26.632   4.368  49.329  1.00  0.00    -0.290 OA
HETATM   15  H10 UNL     1      23.209   6.566  50.122  1.00  0.00     0.160 HD
ENDROOT
BRANCH  10  16
HETATM   16  N3  UNL     1      24.270   7.987  50.813  1.00  0.00    -0.287 NA
HETATM   17  H11 UNL     1      23.921   7.311  51.587  1.00  0.00     0.125 HD
HETATM   18  H12 UNL     1      23.641   7.541  51.467  1.00  0.00     0.125 HD
ENDBRANCH  10  16
BRANCH  10  19
HETATM   19  N4  UNL     1      26.954   8.087  50.150  1.00  0.00    -0.354 N 
HETATM   20  H13 UNL     1      27.586   7.228  50.212  1.00  0.00     0.166 HD
BRANCH  19  21
HETATM   21  C13 UNL     1      27.193   9.467  49.871  1.00  0.00     0.111 C 
HETATM   22  C14 UNL     1      28.379   9.900  49.434  1.00  0.00     0.060 C 
HETATM   23 CL1  UNL     1      28.859  11.565  49.040  1.00  0.00    -0.085 Cl
BRANCH  22  24
HETATM   24  C15 UNL     1      29.598   9.116  49.165  1.00  0.00     0.212 C 
HETATM   25  C16 UNL     1      30.799   9.996  49.527  1.00  0.00     0.051 C 
HETATM   26  F1  UNL     1      29.724   8.802  47.823  1.00  0.00    -0.244 F 
ENDBRANCH  22  24
ENDBRANCH  19  21
ENDBRANCH  10  19
BRANCH   1  27
HETATM   27  N1  UNL     1      24.152   0.663  52.602  1.00  0.00    -0.337 N 
HETATM   28  H4  UNL     1      23.262   0.142  52.750  1.00  0.00     0.168 HD
BRANCH  27  29
HETATM   29  C3  UNL     1      24.945   0.262  53.746  1.00  0.00     0.141 A 
HETATM   30  C2  UNL     1      25.031  -0.906  54.621  1.00  0.00     0.056 A 
HETATM   31  C1  UNL     1      26.008  -0.352  55.328  1.00  0.00     0.209 A 
HETATM   32  O1  UNL     1      25.872   0.769  54.430  1.00  0.00    -0.332 OA
ENDBRANCH  27  29
ENDBRANCH   1  27
TORSDOF 6
ENDMDL
MODEL 9
REMARK VINA RESULT:      -6.8      7.746     11.108
REMARK  6 active torsions:
REMARK  status: ('A' for Active; 'I' for Inactive)
REMARK    1  A    between atoms: C3_3  and  N1_5 
REMARK    2  A    between atoms: N1_5  and  C4_6 
REMARK    3  A    between atoms: C12_15  and  N3_16 
REMARK    4  A    between atoms: C12_15  and  N4_17 
REMARK    5  A    between atoms: N4_17  and  C13_18 
REMARK    6  A    between atoms: C14_19  and  C15_21 
ROOT
HETATM    1  C4  UNL     1      30.602  12.223  47.025  1.00  0.00     0.034 A 
HETATM    2  C5  UNL     1      31.717  11.942  46.237  1.00  0.00     0.032 A 
HETATM    3  C6  UNL     1      32.459  10.846  46.608  1.00  0.00     0.040 A 
HETATM    4  C7  UNL     1      32.117  10.077  47.692  1.00  0.00     0.086 A 
HETATM    5  C8  UNL     1      31.016  10.326  48.495  1.00  0.00    -0.004 A 
HETATM    6  C9  UNL     1      30.262  11.434  48.127  1.00  0.00     0.041 A 
HETATM    7  C10 UNL     1      30.517   9.605  49.669  1.00  0.00     0.161 C 
HETATM    8  N2  UNL     1      30.480   8.133  49.452  1.00  0.00    -0.379 N 
HETATM    9  C11 UNL     1      31.243   7.145  48.686  1.00  0.00     0.120 C 
HETATM   10  C12 UNL     1      30.843   5.871  48.335  1.00  0.00     0.109 C 
HETATM   11  C17 UNL     1      32.577   7.702  48.269  1.00  0.00     0.195 C 
HETATM   12  N5  UNL     1      33.493   6.761  48.264  1.00  0.00    -0.269 NA
HETATM   13  C18 UNL     1      34.829   7.136  47.882  1.00  0.00     0.180 C 
HETATM   14  O2  UNL     1      33.010   9.004  47.896  1.00  0.00    -0.290 OA
HETATM   15  H10 UNL     1      29.699   7.662  49.997  1.00  0.00     0.160 HD
ENDROOT
BRANCH  10  16
HETATM   16  N3  UNL     1      29.673   6.068  48.956  1.00  0.00    -0.287 NA
HETATM   17  H11 UNL     1      28.911   5.304  48.850  1.00  0.00     0.125 HD
HETATM   18  H12 UNL     1      28.786   5.596  49.062  1.00  0.00     0.125 HD
ENDBRANCH  10  16
BRANCH  10  19
HETATM   19  N4  UNL     1      31.959   5.344  47.576  1.00  0.00    -0.354 N 
HETATM   20  H13 UNL     1      32.759   6.019  47.365  1.00  0.00     0.166 HD
BRANCH  19  21
HETATM   21  C13 UNL     1      31.713   3.975  47.245  1.00  0.00     0.111 C 
HETATM   22  C14 UNL     1      32.678   3.055  47.306  1.00  0.00     0.060 C 
HETATM   23 CL1  UNL     1      32.562   1.321  46.933  1.00  0.00    -0.085 Cl
BRANCH  22  24
HETATM   24  C15 UNL     1      34.090   3.230  47.696  1.00  0.00     0.212 C 
HETATM   25  C16 UNL     1      34.928   3.196  46.414  1.00  0.00     0.051 C 
HETATM   26  F1  UNL     1      34.538   2.191  48.494  1.00  0.00    -0.244 F 
ENDBRANCH  22  24
ENDBRANCH  19  21
ENDBRANCH  10  19
BRANCH   1  27
HETATM   27  N1  UNL     1      29.696  13.298  46.817  1.00  0.00    -0.337 N 
HETATM   28  H4  UNL     1      29.425  14.268  47.085  1.00  0.00     0.168 HD
BRANCH  27  29
HETATM   29  C3  UNL     1      28.698  12.956  45.825  1.00  0.00     0.141 A 
HETATM   30  C2  UNL     1      27.470  12.162  45.783  1.00  0.00     0.056 A 
HETATM   31  C1  UNL     1      27.284  12.447  44.501  1.00  0.00     0.209 A 
HETATM   32  O1  UNL     1      28.502  13.213  44.608  1.00  0.00    -0.332 OA
ENDBRANCH  27  29
ENDBRANCH   1  27
TORSDOF 6
ENDMDL
