MODEL 1
REMARK VINA RESULT:      -8.1      0.000      0.000
REMARK  3 active torsions:
REMARK  status: ('A' for Active; 'I' for Inactive)
REMARK    1  A    between atoms: C1_2  and  C2_4 
REMARK    2  A    between atoms: C2_4  and  O1_6 
REMARK    3  A    between atoms: O1_6  and  C3_7 
ROOT
HETATM    1  C3  UNL     1      25.839   0.457  53.787  1.00  0.00     0.079 C 
HETATM    2  C4  UNL     1      26.082   1.736  53.458  1.00  0.00     0.034 C 
HETATM    3  C5  UNL     1      25.032   2.522  53.693  1.00  0.00     0.247 C 
HETATM    4  N1  UNL     1      23.780   2.405  53.126  1.00  0.00     0.093 N 
HETATM    5  C6  UNL     1      22.772   2.761  52.177  1.00  0.00     0.428 A 
HETATM    6  N2  UNL     1      21.813   2.787  51.324  1.00  0.00    -0.234 NA
HETATM    7  C7  UNL     1      21.042   1.831  50.777  1.00  0.00     0.118 A 
HETATM    8  C8  UNL     1      21.156   0.438  51.078  1.00  0.00     0.047 A 
HETATM    9  C9  UNL     1      22.176   0.599  51.954  1.00  0.00     0.057 A 
HETATM   10  N3  UNL     1      22.831   1.546  52.399  1.00  0.00    -0.139 N 
HETATM   11  C10 UNL     1      23.061  -0.299  52.837  1.00  0.00     0.047 A 
HETATM   12  C11 UNL     1      22.055  -0.837  53.600  1.00  0.00    -0.007 A 
HETATM   13  C12 UNL     1      22.715  -1.114  54.842  1.00  0.00     0.018 A 
HETATM   14  C13 UNL     1      24.092  -0.763  54.899  1.00  0.00     0.028 A 
HETATM   15 CL1  UNL     1      25.151  -0.991  56.311  1.00  0.00    -0.088 Cl
HETATM   16  C14 UNL     1      24.572  -0.212  53.717  1.00  0.00     0.070 A 
HETATM   17  C15 UNL     1      24.259   0.139  52.474  1.00  0.00     0.034 A 
HETATM   18  H4  UNL     1      24.238   3.186  52.517  1.00  0.00     0.321 HD
ENDROOT
BRANCH   1  19
HETATM   19  O1  UNL     1      26.750  -0.455  54.255  1.00  0.00    -0.312 OA
BRANCH  19  20
HETATM   20  C2  UNL     1      27.722  -1.063  53.423  1.00  0.00     0.377 C 
HETATM   21  F3  UNL     1      27.467  -0.829  52.092  1.00  0.00    -0.213 F 
BRANCH  20  22
HETATM   22  C1  UNL     1      29.045  -0.462  53.823  1.00  0.00     0.413 C 
HETATM   23  F1  UNL     1      28.959   0.123  55.076  1.00  0.00    -0.209 F 
HETATM   24  F2  UNL     1      29.993  -1.474  53.852  1.00  0.00    -0.209 F 
ENDBRANCH  20  22
ENDBRANCH  19  20
ENDBRANCH   1  19
TORSDOF 3
ENDMDL
MODEL 2
REMARK VINA RESULT:      -7.8      1.527      2.088
REMARK  3 active torsions:
REMARK  status: ('A' for Active; 'I' for Inactive)
REMARK    1  A    between atoms: C1_2  and  C2_4 
REMARK    2  A    between atoms: C2_4  and  O1_6 
REMARK    3  A    between atoms: O1_6  and  C3_7 
ROOT
HETATM    1  C3  UNL     1      25.023   1.047  53.100  1.00  0.00     0.079 C 
HETATM    2  C4  UNL     1      25.512   2.273  53.346  1.00  0.00     0.034 C 
HETATM    3  C5  UNL     1      24.544   3.172  53.519  1.00  0.00     0.247 C 
HETATM    4  N1  UNL     1      23.581   3.523  52.596  1.00  0.00     0.093 N 
HETATM    5  C6  UNL     1      23.035   4.371  51.582  1.00  0.00     0.428 A 
HETATM    6  N2  UNL     1      22.464   4.873  50.548  1.00  0.00    -0.234 NA
HETATM    7  C7  UNL     1      21.843   4.330  49.485  1.00  0.00     0.118 A 
HETATM    8  C8  UNL     1      21.682   2.924  49.281  1.00  0.00     0.047 A 
HETATM    9  C9  UNL     1      22.324   2.575  50.422  1.00  0.00     0.057 A 
HETATM   10  N3  UNL     1      22.873   3.167  51.356  1.00  0.00    -0.139 N 
HETATM   11  C10 UNL     1      22.718   1.274  51.144  1.00  0.00     0.047 A 
HETATM   12  C11 UNL     1      21.449   0.779  51.316  1.00  0.00    -0.007 A 
HETATM   13  C12 UNL     1      21.575  -0.002  52.511  1.00  0.00     0.018 A 
HETATM   14  C13 UNL     1      22.866  -0.012  53.107  1.00  0.00     0.028 A 
HETATM   15 CL1  UNL     1      23.303  -0.892  54.591  1.00  0.00    -0.088 Cl
HETATM   16  C14 UNL     1      23.803   0.742  52.411  1.00  0.00     0.070 A 
HETATM   17  C15 UNL     1      24.007   1.511  51.347  1.00  0.00     0.034 A 
HETATM   18  H4  UNL     1      24.313   4.323  52.481  1.00  0.00     0.321 HD
ENDROOT
BRANCH   1  19
HETATM   19  O1  UNL     1      25.592  -0.148  53.459  1.00  0.00    -0.312 OA
BRANCH  19  20
HETATM   20  C2  UNL     1      26.684  -0.718  52.760  1.00  0.00     0.377 C 
HETATM   21  F3  UNL     1      26.808  -0.189  51.496  1.00  0.00    -0.213 F 
BRANCH  20  22
HETATM   22  C1  UNL     1      27.909  -0.414  53.585  1.00  0.00     0.413 C 
HETATM   23  F1  UNL     1      28.563   0.706  53.097  1.00  0.00    -0.209 F 
HETATM   24  F2  UNL     1      27.507  -0.179  54.892  1.00  0.00    -0.209 F 
ENDBRANCH  20  22
ENDBRANCH  19  20
ENDBRANCH   1  19
TORSDOF 3
ENDMDL
MODEL 3
REMARK VINA RESULT:      -7.7      4.136      5.414
REMARK  3 active torsions:
REMARK  status: ('A' for Active; 'I' for Inactive)
REMARK    1  A    between atoms: C1_2  and  C2_4 
REMARK    2  A    between atoms: C2_4  and  O1_6 
REMARK    3  A    between atoms: O1_6  and  C3_7 
ROOT
HETATM    1  C3  UNL     1      24.385   2.906  51.274  1.00  0.00     0.079 C 
HETATM    2  C4  UNL     1      25.558   2.560  51.827  1.00  0.00     0.034 C 
HETATM    3  C5  UNL     1      25.704   1.238  51.906  1.00  0.00     0.247 C 
HETATM    4  N1  UNL     1      24.890   0.367  52.600  1.00  0.00     0.093 N 
HETATM    5  C6  UNL     1      24.563  -0.445  53.731  1.00  0.00     0.428 A 
HETATM    6  N2  UNL     1      23.993  -1.075  54.693  1.00  0.00    -0.234 NA
HETATM    7  C7  UNL     1      22.721  -1.135  55.128  1.00  0.00     0.118 A 
HETATM    8  C8  UNL     1      21.634  -0.425  54.530  1.00  0.00     0.047 A 
HETATM    9  C9  UNL     1      22.398   0.160  53.576  1.00  0.00     0.057 A 
HETATM   10  N3  UNL     1      23.589   0.149  53.255  1.00  0.00    -0.139 N 
HETATM   11  C10 UNL     1      22.194   1.147  52.414  1.00  0.00     0.047 A 
HETATM   12  C11 UNL     1      21.299   0.391  51.698  1.00  0.00    -0.007 A 
HETATM   13  C12 UNL     1      21.545   0.805  50.348  1.00  0.00     0.018 A 
HETATM   14  C13 UNL     1      22.565   1.781  50.179  1.00  0.00     0.028 A 
HETATM   15 CL1  UNL     1      23.078   2.469  48.620  1.00  0.00    -0.088 Cl
HETATM   16  C14 UNL     1      23.151   2.181  51.374  1.00  0.00     0.070 A 
HETATM   17  C15 UNL     1      23.149   2.024  52.693  1.00  0.00     0.034 A 
HETATM   18  H4  UNL     1      25.723   0.507  53.292  1.00  0.00     0.321 HD
ENDROOT
BRANCH   1  19
HETATM   19  O1  UNL     1      24.138   4.016  50.506  1.00  0.00    -0.312 OA
BRANCH  19  20
HETATM   20  C2  UNL     1      25.152   4.932  50.135  1.00  0.00     0.377 C 
HETATM   21  F3  UNL     1      25.353   4.942  48.775  1.00  0.00    -0.213 F 
BRANCH  20  22
HETATM   22  C1  UNL     1      24.684   6.284  50.612  1.00  0.00     0.413 C 
HETATM   23  F1  UNL     1      24.072   6.182  51.851  1.00  0.00    -0.209 F 
HETATM   24  F2  UNL     1      25.788   7.119  50.710  1.00  0.00    -0.209 F 
ENDBRANCH  20  22
ENDBRANCH  19  20
ENDBRANCH   1  19
TORSDOF 3
ENDMDL
MODEL 4
REMARK VINA RESULT:      -7.7      2.228      3.342
REMARK  3 active torsions:
REMARK  status: ('A' for Active; 'I' for Inactive)
REMARK    1  A    between atoms: C1_2  and  C2_4 
REMARK    2  A    between atoms: C2_4  and  O1_6 
REMARK    3  A    between atoms: O1_6  and  C3_7 
ROOT
HETATM    1  C3  UNL     1      24.052   1.990  52.816  1.00  0.00     0.079 C 
HETATM    2  C4  UNL     1      24.258   3.308  52.971  1.00  0.00     0.034 C 
HETATM    3  C5  UNL     1      23.191   4.026  52.625  1.00  0.00     0.247 C 
HETATM    4  N1  UNL     1      22.600   4.063  51.379  1.00  0.00     0.093 N 
HETATM    5  C6  UNL     1      22.367   4.648  50.095  1.00  0.00     0.428 A 
HETATM    6  N2  UNL     1      22.159   4.890  48.852  1.00  0.00    -0.234 NA
HETATM    7  C7  UNL     1      22.048   4.101  47.768  1.00  0.00     0.118 A 
HETATM    8  C8  UNL     1      22.150   2.676  47.797  1.00  0.00     0.047 A 
HETATM    9  C9  UNL     1      22.363   2.610  49.134  1.00  0.00     0.057 A 
HETATM   10  N3  UNL     1      22.451   3.415  50.065  1.00  0.00    -0.139 N 
HETATM   11  C10 UNL     1      22.622   1.516  50.184  1.00  0.00     0.047 A 
HETATM   12  C11 UNL     1      21.452   0.822  50.005  1.00  0.00    -0.007 A 
HETATM   13  C12 UNL     1      21.224   0.247  51.298  1.00  0.00     0.018 A 
HETATM   14  C13 UNL     1      22.194   0.559  52.289  1.00  0.00     0.028 A 
HETATM   15 CL1  UNL     1      22.159  -0.014  53.974  1.00  0.00    -0.088 Cl
HETATM   16  C14 UNL     1      23.221   1.372  51.824  1.00  0.00     0.070 A 
HETATM   17  C15 UNL     1      23.705   2.015  50.766  1.00  0.00     0.034 A 
HETATM   18  H4  UNL     1      23.218   4.962  51.369  1.00  0.00     0.321 HD
ENDROOT
BRANCH   1  19
HETATM   19  O1  UNL     1      24.592   0.983  53.572  1.00  0.00    -0.312 OA
BRANCH  19  20
HETATM   20  C2  UNL     1      25.987   0.837  53.772  1.00  0.00     0.377 C 
HETATM   21  F3  UNL     1      26.280   0.498  55.072  1.00  0.00    -0.213 F 
BRANCH  20  22
HETATM   22  C1  UNL     1      26.429  -0.253  52.827  1.00  0.00     0.413 C 
HETATM   23  F1  UNL     1      25.469  -1.247  52.743  1.00  0.00    -0.209 F 
HETATM   24  F2  UNL     1      26.622   0.310  51.573  1.00  0.00    -0.209 F 
ENDBRANCH  20  22
ENDBRANCH  19  20
ENDBRANCH   1  19
TORSDOF 3
ENDMDL
MODEL 5
REMARK VINA RESULT:      -7.4      2.094      3.526
REMARK  3 active torsions:
REMARK  status: ('A' for Active; 'I' for Inactive)
REMARK    1  A    between atoms: C1_2  and  C2_4 
REMARK    2  A    between atoms: C2_4  and  O1_6 
REMARK    3  A    between atoms: O1_6  and  C3_7 
ROOT
HETATM    1  C3  UNL     1      24.553   0.467  53.341  1.00  0.00     0.079 C 
HETATM    2  C4  UNL     1      23.278   0.067  53.471  1.00  0.00     0.034 C 
HETATM    3  C5  UNL     1      22.550   0.355  52.392  1.00  0.00     0.247 C 
HETATM    4  N1  UNL     1      22.313   1.613  51.879  1.00  0.00     0.093 N 
HETATM    5  C6  UNL     1      21.516   2.786  51.696  1.00  0.00     0.428 A 
HETATM    6  N2  UNL     1      21.064   3.979  51.554  1.00  0.00    -0.234 NA
HETATM    7  C7  UNL     1      21.648   5.190  51.550  1.00  0.00     0.118 A 
HETATM    8  C8  UNL     1      23.051   5.406  51.721  1.00  0.00     0.047 A 
HETATM    9  C9  UNL     1      23.347   4.090  51.855  1.00  0.00     0.057 A 
HETATM   10  N3  UNL     1      22.720   3.028  51.843  1.00  0.00    -0.139 N 
HETATM   11  C10 UNL     1      24.601   3.234  52.102  1.00  0.00     0.047 A 
HETATM   12  C11 UNL     1      25.296   3.615  50.982  1.00  0.00    -0.007 A 
HETATM   13  C12 UNL     1      26.102   2.463  50.703  1.00  0.00     0.018 A 
HETATM   14  C13 UNL     1      25.937   1.366  51.593  1.00  0.00     0.028 A 
HETATM   15 CL1  UNL     1      26.803  -0.184  51.483  1.00  0.00    -0.088 Cl
HETATM   16  C14 UNL     1      25.014   1.608  52.604  1.00  0.00     0.070 A 
HETATM   17  C15 UNL     1      24.174   2.499  53.120  1.00  0.00     0.034 A 
HETATM   18  H4  UNL     1      21.404   1.421  52.450  1.00  0.00     0.321 HD
ENDROOT
BRANCH   1  19
HETATM   19  O1  UNL     1      25.659  -0.136  53.883  1.00  0.00    -0.312 OA
BRANCH  19  20
HETATM   20  C2  UNL     1      26.229   0.274  55.113  1.00  0.00     0.377 C 
HETATM   21  F3  UNL     1      25.904  -0.588  56.134  1.00  0.00    -0.213 F 
BRANCH  20  22
HETATM   22  C1  UNL     1      27.721   0.294  54.892  1.00  0.00     0.413 C 
HETATM   23  F1  UNL     1      28.124  -0.818  54.170  1.00  0.00    -0.209 F 
HETATM   24  F2  UNL     1      28.042   1.444  54.185  1.00  0.00    -0.209 F 
ENDBRANCH  20  22
ENDBRANCH  19  20
ENDBRANCH   1  19
TORSDOF 3
ENDMDL
MODEL 6
REMARK VINA RESULT:      -7.1      3.846      5.444
REMARK  3 active torsions:
REMARK  status: ('A' for Active; 'I' for Inactive)
REMARK    1  A    between atoms: C1_2  and  C2_4 
REMARK    2  A    between atoms: C2_4  and  O1_6 
REMARK    3  A    between atoms: O1_6  and  C3_7 
ROOT
HETATM    1  C3  UNL     1      21.678   0.829  51.454  1.00  0.00     0.079 C 
HETATM    2  C4  UNL     1      21.279   0.741  50.175  1.00  0.00     0.034 C 
HETATM    3  C5  UNL     1      22.030   1.484  49.363  1.00  0.00     0.247 C 
HETATM    4  N1  UNL     1      22.194   2.852  49.427  1.00  0.00     0.093 N 
HETATM    5  C6  UNL     1      21.908   4.191  49.014  1.00  0.00     0.428 A 
HETATM    6  N2  UNL     1      21.675   5.451  48.936  1.00  0.00    -0.234 NA
HETATM    7  C7  UNL     1      21.602   6.432  49.854  1.00  0.00     0.118 A 
HETATM    8  C8  UNL     1      21.791   6.235  51.257  1.00  0.00     0.047 A 
HETATM    9  C9  UNL     1      22.012   4.902  51.151  1.00  0.00     0.057 A 
HETATM   10  N3  UNL     1      22.058   4.075  50.236  1.00  0.00    -0.139 N 
HETATM   11  C10 UNL     1      22.302   3.726  52.098  1.00  0.00     0.047 A 
HETATM   12  C11 UNL     1      23.473   4.211  52.625  1.00  0.00    -0.007 A 
HETATM   13  C12 UNL     1      24.190   3.015  52.955  1.00  0.00     0.018 A 
HETATM   14  C13 UNL     1      23.527   1.795  52.648  1.00  0.00     0.028 A 
HETATM   15 CL1  UNL     1      24.184   0.168  52.945  1.00  0.00    -0.088 Cl
HETATM   16  C14 UNL     1      22.271   1.975  52.081  1.00  0.00     0.070 A 
HETATM   17  C15 UNL     1      21.373   2.872  51.689  1.00  0.00     0.034 A 
HETATM   18  H4  UNL     1      21.441   2.746  48.644  1.00  0.00     0.321 HD
ENDROOT
BRANCH   1  19
HETATM   19  O1  UNL     1      21.600  -0.155  52.405  1.00  0.00    -0.312 OA
BRANCH  19  20
HETATM   20  C2  UNL     1      20.535  -0.237  53.337  1.00  0.00     0.377 C 
HETATM   21  F3  UNL     1      19.388  -0.721  52.753  1.00  0.00    -0.213 F 
BRANCH  20  22
HETATM   22  C1  UNL     1      21.009  -1.168  54.425  1.00  0.00     0.413 C 
HETATM   23  F1  UNL     1      21.759  -2.204  53.893  1.00  0.00    -0.209 F 
HETATM   24  F2  UNL     1      21.792  -0.440  55.310  1.00  0.00    -0.209 F 
ENDBRANCH  20  22
ENDBRANCH  19  20
ENDBRANCH   1  19
TORSDOF 3
ENDMDL
MODEL 7
REMARK VINA RESULT:      -7.0      4.651      6.649
REMARK  3 active torsions:
REMARK  status: ('A' for Active; 'I' for Inactive)
REMARK    1  A    between atoms: C1_2  and  C2_4 
REMARK    2  A    between atoms: C2_4  and  O1_6 
REMARK    3  A    between atoms: O1_6  and  C3_7 
ROOT
HETATM    1  C3  UNL     1      21.301   0.200  52.457  1.00  0.00     0.079 C 
HETATM    2  C4  UNL     1      21.332  -0.830  53.316  1.00  0.00     0.034 C 
HETATM    3  C5  UNL     1      22.145  -0.599  54.346  1.00  0.00     0.247 C 
HETATM    4  N1  UNL     1      23.501  -0.356  54.277  1.00  0.00     0.093 N 
HETATM    5  C6  UNL     1      24.873  -0.749  54.365  1.00  0.00     0.428 A 
HETATM    6  N2  UNL     1      26.135  -0.921  54.208  1.00  0.00    -0.234 NA
HETATM    7  C7  UNL     1      27.027  -0.436  53.325  1.00  0.00     0.118 A 
HETATM    8  C8  UNL     1      26.701   0.470  52.269  1.00  0.00     0.047 A 
HETATM    9  C9  UNL     1      25.383   0.529  52.580  1.00  0.00     0.057 A 
HETATM   10  N3  UNL     1      24.644   0.031  53.434  1.00  0.00    -0.139 N 
HETATM   11  C10 UNL     1      24.123   1.223  52.034  1.00  0.00     0.047 A 
HETATM   12  C11 UNL     1      24.555   2.517  52.192  1.00  0.00    -0.007 A 
HETATM   13  C12 UNL     1      23.332   3.235  52.396  1.00  0.00     0.018 A 
HETATM   14  C13 UNL     1      22.147   2.449  52.387  1.00  0.00     0.028 A 
HETATM   15 CL1  UNL     1      20.498   3.076  52.618  1.00  0.00    -0.088 Cl
HETATM   16  C14 UNL     1      22.382   1.097  52.166  1.00  0.00     0.070 A 
HETATM   17  C15 UNL     1      23.314   0.177  51.938  1.00  0.00     0.034 A 
HETATM   18  H4  UNL     1      23.469  -1.416  54.531  1.00  0.00     0.321 HD
ENDROOT
BRANCH   1  19
HETATM   19  O1  UNL     1      20.233   0.597  51.693  1.00  0.00    -0.312 OA
BRANCH  19  20
HETATM   20  C2  UNL     1      19.013  -0.122  51.649  1.00  0.00     0.377 C 
HETATM   21  F3  UNL     1      18.331  -0.036  52.840  1.00  0.00    -0.213 F 
BRANCH  20  22
HETATM   22  C1  UNL     1      18.208   0.496  50.533  1.00  0.00     0.413 C 
HETATM   23  F1  UNL     1      19.043   1.048  49.574  1.00  0.00    -0.209 F 
HETATM   24  F2  UNL     1      17.434  -0.499  49.952  1.00  0.00    -0.209 F 
ENDBRANCH  20  22
ENDBRANCH  19  20
ENDBRANCH   1  19
TORSDOF 3
ENDMDL
MODEL 8
REMARK VINA RESULT:      -6.9      4.535      6.076
REMARK  3 active torsions:
REMARK  status: ('A' for Active; 'I' for Inactive)
REMARK    1  A    between atoms: C1_2  and  C2_4 
REMARK    2  A    between atoms: C2_4  and  O1_6 
REMARK    3  A    between atoms: O1_6  and  C3_7 
ROOT
HETATM    1  C3  UNL     1      24.604   3.975  50.415  1.00  0.00     0.079 C 
HETATM    2  C4  UNL     1      25.929   3.862  50.602  1.00  0.00     0.034 C 
HETATM    3  C5  UNL     1      26.347   2.603  50.470  1.00  0.00     0.247 C 
HETATM    4  N1  UNL     1      25.945   1.526  51.232  1.00  0.00     0.093 N 
HETATM    5  C6  UNL     1      26.110   0.583  52.295  1.00  0.00     0.428 A 
HETATM    6  N2  UNL     1      25.963  -0.225  53.281  1.00  0.00    -0.234 NA
HETATM    7  C7  UNL     1      24.899  -0.598  54.015  1.00  0.00     0.118 A 
HETATM    8  C8  UNL     1      23.572  -0.108  53.810  1.00  0.00     0.047 A 
HETATM    9  C9  UNL     1      23.911   0.699  52.777  1.00  0.00     0.057 A 
HETATM   10  N3  UNL     1      24.946   0.977  52.163  1.00  0.00    -0.139 N 
HETATM   11  C10 UNL     1      23.204   1.695  51.841  1.00  0.00     0.047 A 
HETATM   12  C11 UNL     1      22.313   0.811  51.287  1.00  0.00    -0.007 A 
HETATM   13  C12 UNL     1      22.088   1.363  49.984  1.00  0.00     0.018 A 
HETATM   14  C13 UNL     1      22.809   2.552  49.687  1.00  0.00     0.028 A 
HETATM   15 CL1  UNL     1      22.726   3.445  48.150  1.00  0.00    -0.088 Cl
HETATM   16  C14 UNL     1      23.614   2.988  50.733  1.00  0.00     0.070 A 
HETATM   17  C15 UNL     1      24.008   2.741  51.978  1.00  0.00     0.034 A 
HETATM   18  H4  UNL     1      26.892   1.799  51.699  1.00  0.00     0.321 HD
ENDROOT
BRANCH   1  19
HETATM   19  O1  UNL     1      23.942   5.053  49.885  1.00  0.00    -0.312 OA
BRANCH  19  20
HETATM   20  C2  UNL     1      23.746   6.260  50.601  1.00  0.00     0.377 C 
HETATM   21  F3  UNL     1      23.977   6.094  51.946  1.00  0.00    -0.213 F 
BRANCH  20  22
HETATM   22  C1  UNL     1      24.719   7.252  50.014  1.00  0.00     0.413 C 
HETATM   23  F1  UNL     1      25.906   7.255  50.728  1.00  0.00    -0.209 F 
HETATM   24  F2  UNL     1      24.972   6.887  48.699  1.00  0.00    -0.209 F 
ENDBRANCH  20  22
ENDBRANCH  19  20
ENDBRANCH   1  19
TORSDOF 3
ENDMDL
MODEL 9
REMARK VINA RESULT:      -6.8      2.865      4.267
REMARK  3 active torsions:
REMARK  status: ('A' for Active; 'I' for Inactive)
REMARK    1  A    between atoms: C1_2  and  C2_4 
REMARK    2  A    between atoms: C2_4  and  O1_6 
REMARK    3  A    between atoms: O1_6  and  C3_7 
ROOT
HETATM    1  C3  UNL     1      21.989   1.476  52.187  1.00  0.00     0.079 C 
HETATM    2  C4  UNL     1      21.943   2.789  51.909  1.00  0.00     0.034 C 
HETATM    3  C5  UNL     1      20.782   3.336  52.268  1.00  0.00     0.247 C 
HETATM    4  N1  UNL     1      19.534   2.987  51.794  1.00  0.00     0.093 N 
HETATM    5  C6  UNL     1      18.397   3.166  50.946  1.00  0.00     0.428 A 
HETATM    6  N2  UNL     1      17.382   3.029  50.173  1.00  0.00    -0.234 NA
HETATM    7  C7  UNL     1      16.772   1.956  49.636  1.00  0.00     0.118 A 
HETATM    8  C8  UNL     1      17.188   0.606  49.852  1.00  0.00     0.047 A 
HETATM    9  C9  UNL     1      18.228   0.938  50.654  1.00  0.00     0.057 A 
HETATM   10  N3  UNL     1      18.716   1.982  51.097  1.00  0.00    -0.139 N 
HETATM   11  C10 UNL     1      19.346   0.207  51.415  1.00  0.00     0.047 A 
HETATM   12  C11 UNL     1      18.539  -0.553  52.224  1.00  0.00    -0.007 A 
HETATM   13  C12 UNL     1      19.346  -0.736  53.394  1.00  0.00     0.018 A 
HETATM   14  C13 UNL     1      20.625  -0.114  53.363  1.00  0.00     0.028 A 
HETATM   15 CL1  UNL     1      21.826  -0.174  54.675  1.00  0.00    -0.088 Cl
HETATM   16  C14 UNL     1      20.881   0.566  52.179  1.00  0.00     0.070 A 
HETATM   17  C15 UNL     1      20.397   0.892  50.985  1.00  0.00     0.034 A 
HETATM   18  H4  UNL     1      19.772   3.867  51.194  1.00  0.00     0.321 HD
ENDROOT
BRANCH   1  19
HETATM   19  O1  UNL     1      23.101   0.752  52.533  1.00  0.00    -0.312 OA
BRANCH  19  20
HETATM   20  C2  UNL     1      24.396   1.323  52.609  1.00  0.00     0.377 C 
HETATM   21  F3  UNL     1      24.484   2.243  53.627  1.00  0.00    -0.213 F 
BRANCH  20  22
HETATM   22  C1  UNL     1      25.342   0.174  52.848  1.00  0.00     0.413 C 
HETATM   23  F1  UNL     1      24.641  -0.996  53.093  1.00  0.00    -0.209 F 
HETATM   24  F2  UNL     1      26.126   0.012  51.714  1.00  0.00    -0.209 F 
ENDBRANCH  20  22
ENDBRANCH  19  20
ENDBRANCH   1  19
TORSDOF 3
ENDMDL
