MODEL 1
REMARK VINA RESULT:      -8.6      0.000      0.000
REMARK  5 active torsions:
REMARK  status: ('A' for Active; 'I' for Inactive)
REMARK    1  A    between atoms: O1_2  and  C2_3 
REMARK    2  A    between atoms: C2_3  and  C3_4 
REMARK    3  A    between atoms: C3_4  and  O2_6 
REMARK    4  A    between atoms: O2_6  and  C5_7 
REMARK    5  A    between atoms: C9_13  and  C10_14 
ROOT
HETATM    1  C5  UNL     1      21.765   1.033  52.097  1.00  0.00     0.107 A 
HETATM    2  C6  UNL     1      21.605   0.223  53.201  1.00  0.00     0.072 A 
HETATM    3  C7  UNL     1      22.654  -0.282  53.935  1.00  0.00     0.076 A 
HETATM    4  N1  UNL     1      22.442  -1.089  54.998  1.00  0.00    -0.241 NA
HETATM    5  C8  UNL     1      23.517  -1.567  55.663  1.00  0.00     0.234 A 
HETATM    6  N2  UNL     1      24.740  -1.244  55.272  1.00  0.00    -0.240 NA
HETATM    7  C9  UNL     1      24.997  -0.431  54.205  1.00  0.00     0.084 A 
HETATM    8  C16 UNL     1      23.914   0.047  53.535  1.00  0.00     0.059 A 
HETATM    9  C17 UNL     1      24.176   0.838  52.456  1.00  0.00     0.119 A 
HETATM   10  C18 UNL     1      23.088   1.326  51.744  1.00  0.00     0.136 A 
HETATM   11  O3  UNL     1      23.408   2.143  50.638  1.00  0.00    -0.344 OA
HETATM   12  C19 UNL     1      24.527   3.031  50.788  1.00  0.00     0.202 C 
HETATM   13  C20 UNL     1      25.739   2.336  51.315  1.00  0.00     0.202 C 
HETATM   14  O4  UNL     1      25.440   1.169  52.038  1.00  0.00    -0.345 OA
ENDROOT
BRANCH   7  15
HETATM   15  C10 UNL     1      26.417  -0.233  53.994  1.00  0.00    -0.004 A 
HETATM   16  C11 UNL     1      27.035  -1.290  53.313  1.00  0.00     0.017 A 
HETATM   17  C12 UNL     1      28.381  -1.373  53.028  1.00  0.00     0.045 A 
HETATM   18  C13 UNL     1      29.196  -0.344  53.438  1.00  0.00     0.138 A 
HETATM   19  F1  UNL     1      30.533  -0.283  53.231  1.00  0.00    -0.204 F 
HETATM   20  C14 UNL     1      28.644   0.724  54.112  1.00  0.00     0.073 A 
HETATM   21 CL1  UNL     1      29.580   2.088  54.681  1.00  0.00    -0.081 Cl
HETATM   22  C15 UNL     1      27.297   0.760  54.373  1.00  0.00     0.041 A 
ENDBRANCH   7  15
BRANCH   1  23
HETATM   23  O2  UNL     1      20.766   1.570  51.322  1.00  0.00    -0.341 OA
BRANCH  23  24
HETATM   24  C3  UNL     1      19.729   2.379  51.800  1.00  0.00     0.148 C 
HETATM   25  C4  UNL     1      18.383   1.978  51.186  1.00  0.00     0.042 C 
BRANCH  24  26
HETATM   26  C2  UNL     1      19.958   3.818  51.339  1.00  0.00     0.199 C 
BRANCH  26  27
HETATM   27  O1  UNL     1      21.066   4.364  51.941  1.00  0.00    -0.393 OA
HETATM   28  C1  UNL     1      21.613   5.417  51.185  1.00  0.00     0.201 C 
ENDBRANCH  26  27
ENDBRANCH  24  26
ENDBRANCH  23  24
ENDBRANCH   1  23
TORSDOF 5
ENDMDL
MODEL 2
REMARK VINA RESULT:      -8.4      1.288      1.827
REMARK  5 active torsions:
REMARK  status: ('A' for Active; 'I' for Inactive)
REMARK    1  A    between atoms: O1_2  and  C2_3 
REMARK    2  A    between atoms: C2_3  and  C3_4 
REMARK    3  A    between atoms: C3_4  and  O2_6 
REMARK    4  A    between atoms: O2_6  and  C5_7 
REMARK    5  A    between atoms: C9_13  and  C10_14 
ROOT
HETATM    1  C5  UNL     1      22.073   1.385  51.530  1.00  0.00     0.107 A 
HETATM    2  C6  UNL     1      21.772   0.572  52.601  1.00  0.00     0.072 A 
HETATM    3  C7  UNL     1      22.723   0.012  53.424  1.00  0.00     0.076 A 
HETATM    4  N1  UNL     1      22.374  -0.795  54.450  1.00  0.00    -0.241 NA
HETATM    5  C8  UNL     1      23.358  -1.329  55.207  1.00  0.00     0.234 A 
HETATM    6  N2  UNL     1      24.626  -1.059  54.939  1.00  0.00    -0.240 NA
HETATM    7  C9  UNL     1      25.020  -0.247  53.913  1.00  0.00     0.084 A 
HETATM    8  C16 UNL     1      24.029   0.286  53.151  1.00  0.00     0.059 A 
HETATM    9  C17 UNL     1      24.427   1.075  52.113  1.00  0.00     0.119 A 
HETATM   10  C18 UNL     1      23.436   1.621  51.308  1.00  0.00     0.136 A 
HETATM   11  O3  UNL     1      23.896   2.433  50.249  1.00  0.00    -0.344 OA
HETATM   12  C19 UNL     1      25.035   3.267  50.518  1.00  0.00     0.202 C 
HETATM   13  C20 UNL     1      26.158   2.511  51.147  1.00  0.00     0.202 C 
HETATM   14  O4  UNL     1      25.739   1.352  51.822  1.00  0.00    -0.345 OA
ENDROOT
BRANCH   7  15
HETATM   15  C10 UNL     1      26.461  -0.113  53.841  1.00  0.00    -0.004 A 
HETATM   16  C11 UNL     1      27.097  -1.213  53.251  1.00  0.00     0.017 A 
HETATM   17  C12 UNL     1      28.460  -1.358  53.104  1.00  0.00     0.045 A 
HETATM   18  C13 UNL     1      29.274  -0.352  53.569  1.00  0.00     0.138 A 
HETATM   19  F1  UNL     1      30.626  -0.351  53.495  1.00  0.00    -0.204 F 
HETATM   20  C14 UNL     1      28.704   0.756  54.159  1.00  0.00     0.073 A 
HETATM   21 CL1  UNL     1      29.638   2.097  54.785  1.00  0.00    -0.081 Cl
HETATM   22  C15 UNL     1      27.341   0.853  54.282  1.00  0.00     0.041 A 
ENDBRANCH   7  15
BRANCH   1  23
HETATM   23  O2  UNL     1      21.178   1.976  50.671  1.00  0.00    -0.341 OA
BRANCH  23  24
HETATM   24  C3  UNL     1      20.546   1.327  49.603  1.00  0.00     0.148 C 
HETATM   25  C4  UNL     1      20.881   2.000  48.268  1.00  0.00     0.042 C 
BRANCH  24  26
HETATM   26  C2  UNL     1      19.032   1.474  49.748  1.00  0.00     0.199 C 
BRANCH  26  27
HETATM   27  O1  UNL     1      18.632   1.261  51.046  1.00  0.00    -0.393 OA
HETATM   28  C1  UNL     1      18.265  -0.077  51.272  1.00  0.00     0.201 C 
ENDBRANCH  26  27
ENDBRANCH  24  26
ENDBRANCH  23  24
ENDBRANCH   1  23
TORSDOF 5
ENDMDL
MODEL 3
REMARK VINA RESULT:      -8.2      2.506      3.907
REMARK  5 active torsions:
REMARK  status: ('A' for Active; 'I' for Inactive)
REMARK    1  A    between atoms: O1_2  and  C2_3 
REMARK    2  A    between atoms: C2_3  and  C3_4 
REMARK    3  A    between atoms: C3_4  and  O2_6 
REMARK    4  A    between atoms: O2_6  and  C5_7 
REMARK    5  A    between atoms: C9_13  and  C10_14 
ROOT
HETATM    1  C5  UNL     1      21.814   2.099  52.120  1.00  0.00     0.107 A 
HETATM    2  C6  UNL     1      22.484   2.800  51.140  1.00  0.00     0.072 A 
HETATM    3  C7  UNL     1      23.841   2.707  50.929  1.00  0.00     0.076 A 
HETATM    4  N1  UNL     1      24.452   3.432  49.966  1.00  0.00    -0.241 NA
HETATM    5  C8  UNL     1      25.790   3.309  49.825  1.00  0.00     0.234 A 
HETATM    6  N2  UNL     1      26.471   2.495  50.615  1.00  0.00    -0.240 NA
HETATM    7  C9  UNL     1      25.892   1.744  51.599  1.00  0.00     0.084 A 
HETATM    8  C16 UNL     1      24.546   1.872  51.742  1.00  0.00     0.059 A 
HETATM    9  C17 UNL     1      23.975   1.139  52.740  1.00  0.00     0.119 A 
HETATM   10  C18 UNL     1      22.604   1.263  52.918  1.00  0.00     0.136 A 
HETATM   11  O3  UNL     1      22.058   0.483  53.961  1.00  0.00    -0.344 OA
HETATM   12  C19 UNL     1      22.613  -0.828  54.152  1.00  0.00     0.202 C 
HETATM   13  C20 UNL     1      24.105  -0.810  54.214  1.00  0.00     0.202 C 
HETATM   14  O4  UNL     1      24.676   0.301  53.571  1.00  0.00    -0.345 OA
ENDROOT
BRANCH   7  15
HETATM   15  C10 UNL     1      26.859   0.935  52.315  1.00  0.00    -0.004 A 
HETATM   16  C11 UNL     1      27.725   1.684  53.122  1.00  0.00     0.017 A 
HETATM   17  C12 UNL     1      28.762   1.165  53.869  1.00  0.00     0.045 A 
HETATM   18  C13 UNL     1      28.976  -0.193  53.827  1.00  0.00     0.138 A 
HETATM   19  F1  UNL     1      29.951  -0.846  54.503  1.00  0.00    -0.204 F 
HETATM   20  C14 UNL     1      28.154  -0.980  53.049  1.00  0.00     0.073 A 
HETATM   21 CL1  UNL     1      28.330  -2.716  52.919  1.00  0.00    -0.081 Cl
HETATM   22  C15 UNL     1      27.135  -0.416  52.324  1.00  0.00     0.041 A 
ENDBRANCH   7  15
BRANCH   1  23
HETATM   23  O2  UNL     1      20.467   2.145  52.385  1.00  0.00    -0.341 OA
BRANCH  23  24
HETATM   24  C3  UNL     1      19.458   2.113  51.414  1.00  0.00     0.148 C 
HETATM   25  C4  UNL     1      18.495   3.295  51.575  1.00  0.00     0.042 C 
BRANCH  24  26
HETATM   26  C2  UNL     1      18.594   0.870  51.624  1.00  0.00     0.199 C 
BRANCH  26  27
HETATM   27  O1  UNL     1      19.294  -0.120  52.271  1.00  0.00    -0.393 OA
HETATM   28  C1  UNL     1      18.462  -0.911  53.082  1.00  0.00     0.201 C 
ENDBRANCH  26  27
ENDBRANCH  24  26
ENDBRANCH  23  24
ENDBRANCH   1  23
TORSDOF 5
ENDMDL
MODEL 4
REMARK VINA RESULT:      -7.9      3.588      6.938
REMARK  5 active torsions:
REMARK  status: ('A' for Active; 'I' for Inactive)
REMARK    1  A    between atoms: O1_2  and  C2_3 
REMARK    2  A    between atoms: C2_3  and  C3_4 
REMARK    3  A    between atoms: C3_4  and  O2_6 
REMARK    4  A    between atoms: O2_6  and  C5_7 
REMARK    5  A    between atoms: C9_13  and  C10_14 
ROOT
HETATM    1  C5  UNL     1      25.363  -0.178  54.274  1.00  0.00     0.107 A 
HETATM    2  C6  UNL     1      24.337  -0.991  54.705  1.00  0.00     0.072 A 
HETATM    3  C7  UNL     1      23.034  -0.865  54.279  1.00  0.00     0.076 A 
HETATM    4  N1  UNL     1      22.061  -1.676  54.749  1.00  0.00    -0.241 NA
HETATM    5  C8  UNL     1      20.799  -1.486  54.305  1.00  0.00     0.234 A 
HETATM    6  N2  UNL     1      20.538  -0.527  53.430  1.00  0.00    -0.240 NA
HETATM    7  C9  UNL     1      21.492   0.312  52.929  1.00  0.00     0.084 A 
HETATM    8  C16 UNL     1      22.761   0.122  53.380  1.00  0.00     0.059 A 
HETATM    9  C17 UNL     1      23.705   0.977  52.897  1.00  0.00     0.119 A 
HETATM   10  C18 UNL     1      25.007   0.815  53.353  1.00  0.00     0.136 A 
HETATM   11  O3  UNL     1      25.950   1.721  52.822  1.00  0.00    -0.344 OA
HETATM   12  C19 UNL     1      25.796   2.084  51.440  1.00  0.00     0.202 C 
HETATM   13  C20 UNL     1      24.401   2.504  51.115  1.00  0.00     0.202 C 
HETATM   14  O4  UNL     1      23.442   1.980  51.998  1.00  0.00    -0.345 OA
ENDROOT
BRANCH   7  15
HETATM   15  C10 UNL     1      20.945   1.267  51.987  1.00  0.00    -0.004 A 
HETATM   16  C11 UNL     1      20.289   2.344  52.599  1.00  0.00     0.017 A 
HETATM   17  C12 UNL     1      19.643   3.363  51.931  1.00  0.00     0.045 A 
HETATM   18  C13 UNL     1      19.631   3.334  50.557  1.00  0.00     0.138 A 
HETATM   19  F1  UNL     1      19.039   4.261  49.766  1.00  0.00    -0.204 F 
HETATM   20  C14 UNL     1      20.260   2.298  49.900  1.00  0.00     0.073 A 
HETATM   21 CL1  UNL     1      20.310   2.157  48.157  1.00  0.00    -0.081 Cl
HETATM   22  C15 UNL     1      20.889   1.307  50.609  1.00  0.00     0.041 A 
ENDBRANCH   7  15
BRANCH   1  23
HETATM   23  O2  UNL     1      26.681  -0.248  54.657  1.00  0.00    -0.341 OA
BRANCH  23  24
HETATM   24  C3  UNL     1      27.773  -0.183  53.783  1.00  0.00     0.148 C 
HETATM   25  C4  UNL     1      28.049  -1.545  53.137  1.00  0.00     0.042 C 
BRANCH  24  26
HETATM   26  C2  UNL     1      29.037   0.139  54.579  1.00  0.00     0.199 C 
BRANCH  26  27
HETATM   27  O1  UNL     1      29.053   1.454  54.980  1.00  0.00    -0.393 OA
HETATM   28  C1  UNL     1      29.009   2.339  53.888  1.00  0.00     0.201 C 
ENDBRANCH  26  27
ENDBRANCH  24  26
ENDBRANCH  23  24
ENDBRANCH   1  23
TORSDOF 5
ENDMDL
MODEL 5
REMARK VINA RESULT:      -7.9      4.154      7.701
REMARK  5 active torsions:
REMARK  status: ('A' for Active; 'I' for Inactive)
REMARK    1  A    between atoms: O1_2  and  C2_3 
REMARK    2  A    between atoms: C2_3  and  C3_4 
REMARK    3  A    between atoms: C3_4  and  O2_6 
REMARK    4  A    between atoms: O2_6  and  C5_7 
REMARK    5  A    between atoms: C9_13  and  C10_14 
ROOT
HETATM    1  C5  UNL     1      26.614   0.397  52.313  1.00  0.00     0.107 A 
HETATM    2  C6  UNL     1      26.910   1.489  51.525  1.00  0.00     0.072 A 
HETATM    3  C7  UNL     1      25.956   2.333  51.002  1.00  0.00     0.076 A 
HETATM    4  N1  UNL     1      26.299   3.379  50.219  1.00  0.00    -0.241 NA
HETATM    5  C8  UNL     1      25.312   4.156  49.721  1.00  0.00     0.234 A 
HETATM    6  N2  UNL     1      24.047   3.888  50.003  1.00  0.00    -0.240 NA
HETATM    7  C9  UNL     1      23.658   2.842  50.791  1.00  0.00     0.084 A 
HETATM    8  C16 UNL     1      24.653   2.059  51.289  1.00  0.00     0.059 A 
HETATM    9  C17 UNL     1      24.260   1.002  52.054  1.00  0.00     0.119 A 
HETATM   10  C18 UNL     1      25.254   0.177  52.563  1.00  0.00     0.136 A 
HETATM   11  O3  UNL     1      24.799  -0.901  53.352  1.00  0.00    -0.344 OA
HETATM   12  C19 UNL     1      23.675  -0.650  54.211  1.00  0.00     0.202 C 
HETATM   13  C20 UNL     1      22.545   0.007  53.489  1.00  0.00     0.202 C 
HETATM   14  O4  UNL     1      22.950   0.711  52.343  1.00  0.00    -0.345 OA
ENDROOT
BRANCH   7  15
HETATM   15  C10 UNL     1      22.219   2.774  50.945  1.00  0.00    -0.004 A 
HETATM   16  C11 UNL     1      21.724   3.615  51.952  1.00  0.00     0.017 A 
HETATM   17  C12 UNL     1      20.401   3.706  52.332  1.00  0.00     0.045 A 
HETATM   18  C13 UNL     1      19.483   2.915  51.682  1.00  0.00     0.138 A 
HETATM   19  F1  UNL     1      18.155   2.894  51.942  1.00  0.00    -0.204 F 
HETATM   20  C14 UNL     1      19.912   2.068  50.682  1.00  0.00     0.073 A 
HETATM   21 CL1  UNL     1      18.837   1.018  49.787  1.00  0.00    -0.081 Cl
HETATM   22  C15 UNL     1      21.240   2.013  50.341  1.00  0.00     0.041 A 
ENDBRANCH   7  15
BRANCH   1  23
HETATM   23  O2  UNL     1      27.513  -0.483  52.865  1.00  0.00    -0.341 OA
BRANCH  23  24
HETATM   24  C3  UNL     1      28.727  -0.119  53.460  1.00  0.00     0.148 C 
HETATM   25  C4  UNL     1      29.687  -1.312  53.538  1.00  0.00     0.042 C 
BRANCH  24  26
HETATM   26  C2  UNL     1      28.477   0.281  54.914  1.00  0.00     0.199 C 
BRANCH  26  27
HETATM   27  O1  UNL     1      29.097   1.469  55.218  1.00  0.00    -0.393 OA
HETATM   28  C1  UNL     1      29.239   2.295  54.088  1.00  0.00     0.201 C 
ENDBRANCH  26  27
ENDBRANCH  24  26
ENDBRANCH  23  24
ENDBRANCH   1  23
TORSDOF 5
ENDMDL
MODEL 6
REMARK VINA RESULT:      -7.9      3.722      7.211
REMARK  5 active torsions:
REMARK  status: ('A' for Active; 'I' for Inactive)
REMARK    1  A    between atoms: O1_2  and  C2_3 
REMARK    2  A    between atoms: C2_3  and  C3_4 
REMARK    3  A    between atoms: C3_4  and  O2_6 
REMARK    4  A    between atoms: O2_6  and  C5_7 
REMARK    5  A    between atoms: C9_13  and  C10_14 
ROOT
HETATM    1  C5  UNL     1      26.761   1.189  52.619  1.00  0.00     0.107 A 
HETATM    2  C6  UNL     1      25.930   0.277  53.232  1.00  0.00     0.072 A 
HETATM    3  C7  UNL     1      24.581   0.182  52.977  1.00  0.00     0.076 A 
HETATM    4  N1  UNL     1      23.807  -0.718  53.622  1.00  0.00    -0.241 NA
HETATM    5  C8  UNL     1      22.486  -0.745  53.340  1.00  0.00     0.234 A 
HETATM    6  N2  UNL     1      21.977   0.094  52.451  1.00  0.00    -0.240 NA
HETATM    7  C9  UNL     1      22.725   1.018  51.777  1.00  0.00     0.084 A 
HETATM    8  C16 UNL     1      24.053   1.045  52.065  1.00  0.00     0.059 A 
HETATM    9  C17 UNL     1      24.791   1.984  51.408  1.00  0.00     0.119 A 
HETATM   10  C18 UNL     1      26.149   2.045  51.695  1.00  0.00     0.136 A 
HETATM   11  O3  UNL     1      26.871   3.031  50.988  1.00  0.00    -0.344 OA
HETATM   12  C19 UNL     1      26.495   3.257  49.620  1.00  0.00     0.202 C 
HETATM   13  C20 UNL     1      25.023   3.448  49.460  1.00  0.00     0.202 C 
HETATM   14  O4  UNL     1      24.270   2.865  50.494  1.00  0.00    -0.345 OA
ENDROOT
BRANCH   7  15
HETATM   15  C10 UNL     1      21.927   1.807  50.860  1.00  0.00    -0.004 A 
HETATM   16  C11 UNL     1      21.733   1.193  49.615  1.00  0.00     0.017 A 
HETATM   17  C12 UNL     1      21.053   1.749  48.552  1.00  0.00     0.045 A 
HETATM   18  C13 UNL     1      20.518   3.005  48.710  1.00  0.00     0.138 A 
HETATM   19  F1  UNL     1      19.827   3.679  47.760  1.00  0.00    -0.204 F 
HETATM   20  C14 UNL     1      20.677   3.659  49.913  1.00  0.00     0.073 A 
HETATM   21 CL1  UNL     1      20.041   5.258  50.229  1.00  0.00    -0.081 Cl
HETATM   22  C15 UNL     1      21.363   3.063  50.941  1.00  0.00     0.041 A 
ENDBRANCH   7  15
BRANCH   1  23
HETATM   23  O2  UNL     1      28.111   1.338  52.825  1.00  0.00    -0.341 OA
BRANCH  23  24
HETATM   24  C3  UNL     1      28.786   0.978  53.998  1.00  0.00     0.148 C 
HETATM   25  C4  UNL     1      29.643   2.135  54.522  1.00  0.00     0.042 C 
BRANCH  24  26
HETATM   26  C2  UNL     1      29.781  -0.139  53.686  1.00  0.00     0.199 C 
BRANCH  26  27
HETATM   27  O1  UNL     1      29.324  -1.354  54.135  1.00  0.00    -0.393 OA
HETATM   28  C1  UNL     1      28.961  -2.206  53.077  1.00  0.00     0.201 C 
ENDBRANCH  26  27
ENDBRANCH  24  26
ENDBRANCH  23  24
ENDBRANCH   1  23
TORSDOF 5
ENDMDL
MODEL 7
REMARK VINA RESULT:      -7.9      2.892      4.492
REMARK  5 active torsions:
REMARK  status: ('A' for Active; 'I' for Inactive)
REMARK    1  A    between atoms: O1_2  and  C2_3 
REMARK    2  A    between atoms: C2_3  and  C3_4 
REMARK    3  A    between atoms: C3_4  and  O2_6 
REMARK    4  A    between atoms: O2_6  and  C5_7 
REMARK    5  A    between atoms: C9_13  and  C10_14 
ROOT
HETATM    1  C5  UNL     1      20.147   0.991  52.098  1.00  0.00     0.107 A 
HETATM    2  C6  UNL     1      20.656   1.779  51.088  1.00  0.00     0.072 A 
HETATM    3  C7  UNL     1      22.000   2.014  50.909  1.00  0.00     0.076 A 
HETATM    4  N1  UNL     1      22.446   2.812  49.914  1.00  0.00    -0.241 NA
HETATM    5  C8  UNL     1      23.777   3.018  49.806  1.00  0.00     0.234 A 
HETATM    6  N2  UNL     1      24.611   2.446  50.660  1.00  0.00    -0.240 NA
HETATM    7  C9  UNL     1      24.202   1.632  51.679  1.00  0.00     0.084 A 
HETATM    8  C16 UNL     1      22.862   1.429  51.787  1.00  0.00     0.059 A 
HETATM    9  C17 UNL     1      22.456   0.636  52.819  1.00  0.00     0.119 A 
HETATM   10  C18 UNL     1      21.091   0.424  52.963  1.00  0.00     0.136 A 
HETATM   11  O3  UNL     1      20.720  -0.405  54.043  1.00  0.00    -0.344 OA
HETATM   12  C19 UNL     1      21.575  -1.524  54.328  1.00  0.00     0.202 C 
HETATM   13  C20 UNL     1      23.013  -1.131  54.418  1.00  0.00     0.202 C 
HETATM   14  O4  UNL     1      23.313   0.048  53.715  1.00  0.00    -0.345 OA
ENDROOT
BRANCH   7  15
HETATM   15  C10 UNL     1      25.313   1.132  52.463  1.00  0.00    -0.004 A 
HETATM   16  C11 UNL     1      25.720   2.008  53.478  1.00  0.00     0.017 A 
HETATM   17  C12 UNL     1      26.780   1.795  54.334  1.00  0.00     0.045 A 
HETATM   18  C13 UNL     1      27.506   0.636  54.192  1.00  0.00     0.138 A 
HETATM   19  F1  UNL     1      28.569   0.287  54.955  1.00  0.00    -0.204 F 
HETATM   20  C14 UNL     1      27.151  -0.264  53.210  1.00  0.00     0.073 A 
HETATM   21 CL1  UNL     1      27.999  -1.770  52.936  1.00  0.00    -0.081 Cl
HETATM   22  C15 UNL     1      26.088  -0.006  52.382  1.00  0.00     0.041 A 
ENDBRANCH   7  15
BRANCH   1  23
HETATM   23  O2  UNL     1      18.822   0.714  52.334  1.00  0.00    -0.341 OA
BRANCH  23  24
HETATM   24  C3  UNL     1      18.141  -0.411  51.855  1.00  0.00     0.148 C 
HETATM   25  C4  UNL     1      17.441  -0.112  50.525  1.00  0.00     0.042 C 
BRANCH  24  26
HETATM   26  C2  UNL     1      17.013  -0.768  52.822  1.00  0.00     0.199 C 
BRANCH  26  27
HETATM   27  O1  UNL     1      16.826  -2.128  52.889  1.00  0.00    -0.393 OA
HETATM   28  C1  UNL     1      17.793  -2.755  53.695  1.00  0.00     0.201 C 
ENDBRANCH  26  27
ENDBRANCH  24  26
ENDBRANCH  23  24
ENDBRANCH   1  23
TORSDOF 5
ENDMDL
MODEL 8
REMARK VINA RESULT:      -7.8      3.470      6.783
REMARK  5 active torsions:
REMARK  status: ('A' for Active; 'I' for Inactive)
REMARK    1  A    between atoms: O1_2  and  C2_3 
REMARK    2  A    between atoms: C2_3  and  C3_4 
REMARK    3  A    between atoms: C3_4  and  O2_6 
REMARK    4  A    between atoms: O2_6  and  C5_7 
REMARK    5  A    between atoms: C9_13  and  C10_14 
ROOT
HETATM    1  C5  UNL     1      25.951   0.430  54.516  1.00  0.00     0.107 A 
HETATM    2  C6  UNL     1      25.074  -0.522  54.990  1.00  0.00     0.072 A 
HETATM    3  C7  UNL     1      23.789  -0.676  54.520  1.00  0.00     0.076 A 
HETATM    4  N1  UNL     1      22.962  -1.613  55.034  1.00  0.00    -0.241 NA
HETATM    5  C8  UNL     1      21.707  -1.697  54.542  1.00  0.00     0.234 A 
HETATM    6  N2  UNL     1      21.312  -0.878  53.580  1.00  0.00    -0.240 NA
HETATM    7  C9  UNL     1      22.116   0.081  53.032  1.00  0.00     0.084 A 
HETATM    8  C16 UNL     1      23.378   0.167  53.532  1.00  0.00     0.059 A 
HETATM    9  C17 UNL     1      24.170   1.140  53.000  1.00  0.00     0.119 A 
HETATM   10  C18 UNL     1      25.459   1.261  53.503  1.00  0.00     0.136 A 
HETATM   11  O3  UNL     1      26.241   2.281  52.919  1.00  0.00    -0.344 OA
HETATM   12  C19 UNL     1      26.082   2.496  51.508  1.00  0.00     0.202 C 
HETATM   13  C20 UNL     1      24.648   2.621  51.111  1.00  0.00     0.202 C 
HETATM   14  O4  UNL     1      23.765   2.001  52.011  1.00  0.00    -0.345 OA
ENDROOT
BRANCH   7  15
HETATM   15  C10 UNL     1      21.443   0.837  51.996  1.00  0.00    -0.004 A 
HETATM   16  C11 UNL     1      21.608   0.298  50.713  1.00  0.00     0.017 A 
HETATM   17  C12 UNL     1      21.111   0.848  49.550  1.00  0.00     0.045 A 
HETATM   18  C13 UNL     1      20.396   2.019  49.640  1.00  0.00     0.138 A 
HETATM   19  F1  UNL     1      19.847   2.675  48.590  1.00  0.00    -0.204 F 
HETATM   20  C14 UNL     1      20.201   2.596  50.876  1.00  0.00     0.073 A 
HETATM   21 CL1  UNL     1      19.308   4.082  51.113  1.00  0.00    -0.081 Cl
HETATM   22  C15 UNL     1      20.716   2.010  52.005  1.00  0.00     0.041 A 
ENDBRANCH   7  15
BRANCH   1  23
HETATM   23  O2  UNL     1      27.242   0.638  54.938  1.00  0.00    -0.341 OA
BRANCH  23  24
HETATM   24  C3  UNL     1      28.354  -0.094  54.504  1.00  0.00     0.148 C 
HETATM   25  C4  UNL     1      29.577   0.811  54.322  1.00  0.00     0.042 C 
BRANCH  24  26
HETATM   26  C2  UNL     1      28.073  -0.661  53.113  1.00  0.00     0.199 C 
BRANCH  26  27
HETATM   27  O1  UNL     1      27.879  -2.021  53.159  1.00  0.00    -0.393 OA
HETATM   28  C1  UNL     1      26.839  -2.435  52.307  1.00  0.00     0.201 C 
ENDBRANCH  26  27
ENDBRANCH  24  26
ENDBRANCH  23  24
ENDBRANCH   1  23
TORSDOF 5
ENDMDL
MODEL 9
REMARK VINA RESULT:      -7.6      2.865      4.117
REMARK  5 active torsions:
REMARK  status: ('A' for Active; 'I' for Inactive)
REMARK    1  A    between atoms: O1_2  and  C2_3 
REMARK    2  A    between atoms: C2_3  and  C3_4 
REMARK    3  A    between atoms: C3_4  and  O2_6 
REMARK    4  A    between atoms: O2_6  and  C5_7 
REMARK    5  A    between atoms: C9_13  and  C10_14 
ROOT
HETATM    1  C5  UNL     1      21.974   3.218  50.856  1.00  0.00     0.107 A 
HETATM    2  C6  UNL     1      22.902   3.855  50.061  1.00  0.00     0.072 A 
HETATM    3  C7  UNL     1      24.254   3.602  50.114  1.00  0.00     0.076 A 
HETATM    4  N1  UNL     1      25.124   4.270  49.325  1.00  0.00    -0.241 NA
HETATM    5  C8  UNL     1      26.440   3.988  49.442  1.00  0.00     0.234 A 
HETATM    6  N2  UNL     1      26.852   3.077  50.310  1.00  0.00    -0.240 NA
HETATM    7  C9  UNL     1      26.005   2.379  51.124  1.00  0.00     0.084 A 
HETATM    8  C16 UNL     1      24.682   2.667  51.007  1.00  0.00     0.059 A 
HETATM    9  C17 UNL     1      23.843   1.986  51.838  1.00  0.00     0.119 A 
HETATM   10  C18 UNL     1      22.487   2.272  51.751  1.00  0.00     0.136 A 
HETATM   11  O3  UNL     1      21.658   1.540  52.629  1.00  0.00    -0.344 OA
HETATM   12  C19 UNL     1      22.009   0.166  52.861  1.00  0.00     0.202 C 
HETATM   13  C20 UNL     1      23.451   0.000  53.214  1.00  0.00     0.202 C 
HETATM   14  O4  UNL     1      24.262   1.049  52.749  1.00  0.00    -0.345 OA
ENDROOT
BRANCH   7  15
HETATM   15  C10 UNL     1      26.710   1.441  51.975  1.00  0.00    -0.004 A 
HETATM   16  C11 UNL     1      27.500   2.059  52.954  1.00  0.00     0.017 A 
HETATM   17  C12 UNL     1      28.305   1.398  53.858  1.00  0.00     0.045 A 
HETATM   18  C13 UNL     1      28.347   0.024  53.807  1.00  0.00     0.138 A 
HETATM   19  F1  UNL     1      29.087  -0.760  54.626  1.00  0.00    -0.204 F 
HETATM   20  C14 UNL     1      27.590  -0.638  52.865  1.00  0.00     0.073 A 
HETATM   21 CL1  UNL     1      27.562  -2.380  52.707  1.00  0.00    -0.081 Cl
HETATM   22  C15 UNL     1      26.804   0.065  51.986  1.00  0.00     0.041 A 
ENDBRANCH   7  15
BRANCH   1  23
HETATM   23  O2  UNL     1      20.615   3.421  50.855  1.00  0.00    -0.341 OA
BRANCH  23  24
HETATM   24  C3  UNL     1      19.863   3.801  49.736  1.00  0.00     0.148 C 
HETATM   25  C4  UNL     1      18.556   4.485  50.151  1.00  0.00     0.042 C 
BRANCH  24  26
HETATM   26  C2  UNL     1      19.427   2.550  48.974  1.00  0.00     0.199 C 
BRANCH  26  27
HETATM   27  O1  UNL     1      19.504   2.742  47.615  1.00  0.00    -0.393 OA
HETATM   28  C1  UNL     1      20.569   3.590  47.261  1.00  0.00     0.201 C 
ENDBRANCH  26  27
ENDBRANCH  24  26
ENDBRANCH  23  24
ENDBRANCH   1  23
TORSDOF 5
ENDMDL
