MODEL 1
REMARK VINA RESULT:      -9.0      0.000      0.000
REMARK  6 active torsions:
REMARK  status: ('A' for Active; 'I' for Inactive)
REMARK    1  A    between atoms: N1_1  and  C1_2 
REMARK    2  A    between atoms: C2_4  and  C3_5 
REMARK    3  A    between atoms: N4_15  and  C11_16 
REMARK    4  A    between atoms: C11_16  and  C12_17 
REMARK    5  A    between atoms: C13_18  and  C14_19 
REMARK    6  A    between atoms: C19_24  and  N5_25 
ROOT
HETATM    1  C1  UNL     1      27.737   1.840  53.110  1.00  0.00     0.722 A 
HETATM    2  N2  UNL     1      26.809   1.073  53.753  1.00  0.00    -0.062 NA
HETATM    3  C2  UNL     1      25.592   1.017  53.181  1.00  0.00     0.098 A 
HETATM    4  C9  UNL     1      25.325   1.703  52.009  1.00  0.00     0.036 A 
HETATM    5  C10 UNL     1      26.299   2.475  51.382  1.00  0.00     0.155 A 
HETATM    6  N3  UNL     1      27.510   2.525  51.961  1.00  0.00    -0.045 NA
HETATM    7  N4  UNL     1      25.334   2.789  50.396  1.00  0.00    -0.356 N 
HETATM    8  C23 UNL     1      24.273   1.998  51.010  1.00  0.00     0.169 A 
ENDROOT
BRANCH   7   9
HETATM    9  C11 UNL     1      25.172   3.538  49.198  1.00  0.00     0.164 C 
BRANCH   9  10
HETATM   10  C12 UNL     1      25.276   4.981  49.498  1.00  0.00    -0.029 A 
HETATM   11  C13 UNL     1      24.475   5.876  50.113  1.00  0.00    -0.014 A 
HETATM   12  C20 UNL     1      24.804   7.303  50.314  1.00  0.00     0.214 A 
HETATM   13  O1  UNL     1      26.025   7.685  49.698  1.00  0.00    -0.358 OA
HETATM   14  C21 UNL     1      26.863   6.778  49.067  1.00  0.00     0.135 A 
HETATM   15  C22 UNL     1      26.547   5.503  48.951  1.00  0.00     0.033 A 
BRANCH  11  16
HETATM   16  C14 UNL     1      23.195   5.401  50.621  1.00  0.00    -0.001 A 
HETATM   17  C15 UNL     1      22.178   5.246  49.670  1.00  0.00     0.014 A 
HETATM   18  C16 UNL     1      20.933   4.770  50.031  1.00  0.00     0.001 A 
HETATM   19  C17 UNL     1      20.717   4.455  51.351  1.00  0.00     0.002 A 
HETATM   20  C18 UNL     1      21.681   4.590  52.327  1.00  0.00     0.030 A 
HETATM   21  C19 UNL     1      22.926   5.068  51.946  1.00  0.00     0.036 A 
BRANCH  21  22
HETATM   22  N5  UNL     1      23.942   5.219  52.924  1.00  0.00    -0.398 N 
HETATM   23  H13 UNL     1      24.988   5.338  52.924  1.00  0.00     0.156 HD
HETATM   24  H14 UNL     1      23.444   5.196  53.846  1.00  0.00     0.156 HD
ENDBRANCH  21  22
ENDBRANCH  11  16
ENDBRANCH   9  10
ENDBRANCH   7   9
BRANCH   3  25
HETATM   25  C3  UNL     1      24.544   0.207  53.831  1.00  0.00    -0.005 A 
HETATM   26  C4  UNL     1      24.825  -0.721  54.811  1.00  0.00     0.014 A 
HETATM   27  C5  UNL     1      23.768  -1.447  55.356  1.00  0.00     0.002 A 
HETATM   28  C6  UNL     1      22.445  -1.279  54.960  1.00  0.00     0.019 A 
HETATM   29  C7  UNL     1      22.180  -0.354  53.986  1.00  0.00     0.011 A 
HETATM   30 BR1  UNL     1      20.355  -0.139  53.448  1.00  0.00    -0.051 Br
HETATM   31  C8  UNL     1      23.235   0.374  53.436  1.00  0.00     0.032 A 
ENDBRANCH   3  25
BRANCH   1  32
HETATM   32  N1  UNL     1      29.084   2.004  53.593  1.00  0.00    -0.231 N 
HETATM   33  H1  UNL     1      29.643   2.660  54.215  1.00  0.00     0.174 HD
HETATM   34  H2  UNL     1      29.677   1.240  53.208  1.00  0.00     0.174 HD
ENDBRANCH   1  32
TORSDOF 6
ENDMDL
MODEL 2
REMARK VINA RESULT:      -8.7      3.300      5.090
REMARK  6 active torsions:
REMARK  status: ('A' for Active; 'I' for Inactive)
REMARK    1  A    between atoms: N1_1  and  C1_2 
REMARK    2  A    between atoms: C2_4  and  C3_5 
REMARK    3  A    between atoms: N4_15  and  C11_16 
REMARK    4  A    between atoms: C11_16  and  C12_17 
REMARK    5  A    between atoms: C13_18  and  C14_19 
REMARK    6  A    between atoms: C19_24  and  N5_25 
ROOT
HETATM    1  C1  UNL     1      22.195  -0.455  54.109  1.00  0.00     0.722 A 
HETATM    2  N2  UNL     1      23.516  -0.797  54.101  1.00  0.00    -0.062 NA
HETATM    3  C2  UNL     1      24.335   0.029  53.424  1.00  0.00     0.098 A 
HETATM    4  C9  UNL     1      23.841   1.152  52.783  1.00  0.00     0.036 A 
HETATM    5  C10 UNL     1      22.485   1.467  52.814  1.00  0.00     0.155 A 
HETATM    6  N3  UNL     1      21.677   0.638  53.492  1.00  0.00    -0.045 NA
HETATM    7  N4  UNL     1      22.791   2.601  52.023  1.00  0.00    -0.356 N 
HETATM    8  C23 UNL     1      24.219   2.319  51.955  1.00  0.00     0.169 A 
ENDROOT
BRANCH   7   9
HETATM    9  C11 UNL     1      22.172   3.720  51.400  1.00  0.00     0.164 C 
BRANCH   9  10
HETATM   10  C12 UNL     1      21.932   3.422  49.973  1.00  0.00    -0.029 A 
HETATM   11  C13 UNL     1      22.595   3.692  48.829  1.00  0.00    -0.014 A 
HETATM   12  C20 UNL     1      22.158   3.268  47.482  1.00  0.00     0.214 A 
HETATM   13  O1  UNL     1      20.893   2.625  47.484  1.00  0.00    -0.358 OA
HETATM   14  C21 UNL     1      20.200   2.334  48.650  1.00  0.00     0.135 A 
HETATM   15  C22 UNL     1      20.652   2.693  49.835  1.00  0.00     0.033 A 
BRANCH  11  16
HETATM   16  C14 UNL     1      23.836   4.449  48.929  1.00  0.00    -0.001 A 
HETATM   17  C15 UNL     1      24.994   3.696  49.165  1.00  0.00     0.014 A 
HETATM   18  C16 UNL     1      26.232   4.303  49.245  1.00  0.00     0.001 A 
HETATM   19  C17 UNL     1      26.297   5.667  49.088  1.00  0.00     0.002 A 
HETATM   20  C18 UNL     1      25.189   6.455  48.856  1.00  0.00     0.030 A 
HETATM   21  C19 UNL     1      23.955   5.827  48.778  1.00  0.00     0.036 A 
BRANCH  21  22
HETATM   22  N5  UNL     1      22.793   6.607  48.539  1.00  0.00    -0.398 N 
HETATM   23  H13 UNL     1      21.809   6.641  48.911  1.00  0.00     0.156 HD
HETATM   24  H14 UNL     1      23.070   7.294  47.797  1.00  0.00     0.156 HD
ENDBRANCH  21  22
ENDBRANCH  11  16
ENDBRANCH   9  10
ENDBRANCH   7   9
BRANCH   3  25
HETATM   25  C3  UNL     1      25.774  -0.289  53.375  1.00  0.00    -0.005 A 
HETATM   26  C4  UNL     1      26.253  -1.492  52.899  1.00  0.00     0.014 A 
HETATM   27  C5  UNL     1      27.630  -1.705  52.905  1.00  0.00     0.002 A 
HETATM   28  C6  UNL     1      28.543  -0.763  53.369  1.00  0.00     0.019 A 
HETATM   29  C7  UNL     1      28.055   0.427  53.840  1.00  0.00     0.011 A 
HETATM   30 BR1  UNL     1      29.325   1.709  54.478  1.00  0.00    -0.051 Br
HETATM   31  C8  UNL     1      26.677   0.643  53.836  1.00  0.00     0.032 A 
ENDBRANCH   3  25
BRANCH   1  32
HETATM   32  N1  UNL     1      21.191  -1.234  54.787  1.00  0.00    -0.231 N 
HETATM   33  H1  UNL     1      20.405  -1.099  55.491  1.00  0.00     0.174 HD
HETATM   34  H2  UNL     1      21.272  -2.227  54.485  1.00  0.00     0.174 HD
ENDBRANCH   1  32
TORSDOF 6
ENDMDL
MODEL 3
REMARK VINA RESULT:      -8.6      2.900      4.733
REMARK  6 active torsions:
REMARK  status: ('A' for Active; 'I' for Inactive)
REMARK    1  A    between atoms: N1_1  and  C1_2 
REMARK    2  A    between atoms: C2_4  and  C3_5 
REMARK    3  A    between atoms: N4_15  and  C11_16 
REMARK    4  A    between atoms: C11_16  and  C12_17 
REMARK    5  A    between atoms: C13_18  and  C14_19 
REMARK    6  A    between atoms: C19_24  and  N5_25 
ROOT
HETATM    1  C1  UNL     1      22.944   0.431  52.703  1.00  0.00     0.722 A 
HETATM    2  N2  UNL     1      24.224   0.421  53.177  1.00  0.00    -0.062 NA
HETATM    3  C2  UNL     1      25.103   1.196  52.516  1.00  0.00     0.098 A 
HETATM    4  C9  UNL     1      24.707   1.950  51.425  1.00  0.00     0.036 A 
HETATM    5  C10 UNL     1      23.391   1.934  50.971  1.00  0.00     0.155 A 
HETATM    6  N3  UNL     1      22.521   1.157  51.637  1.00  0.00    -0.045 NA
HETATM    7  N4  UNL     1      23.788   2.844  49.963  1.00  0.00    -0.356 N 
HETATM    8  C23 UNL     1      25.181   2.898  50.392  1.00  0.00     0.169 A 
ENDROOT
BRANCH   7   9
HETATM    9  C11 UNL     1      23.270   3.569  48.854  1.00  0.00     0.164 C 
BRANCH   9  10
HETATM   10  C12 UNL     1      22.377   4.642  49.337  1.00  0.00    -0.029 A 
HETATM   11  C13 UNL     1      22.545   5.948  49.631  1.00  0.00    -0.014 A 
HETATM   12  C20 UNL     1      21.473   6.852  50.096  1.00  0.00     0.214 A 
HETATM   13  O1  UNL     1      20.238   6.186  50.312  1.00  0.00    -0.358 OA
HETATM   14  C21 UNL     1      20.045   4.846  50.010  1.00  0.00     0.135 A 
HETATM   15  C22 UNL     1      21.022   4.088  49.553  1.00  0.00     0.033 A 
BRANCH  11  16
HETATM   16  C14 UNL     1      23.880   6.511  49.471  1.00  0.00    -0.001 A 
HETATM   17  C15 UNL     1      24.290   6.748  48.153  1.00  0.00     0.014 A 
HETATM   18  C16 UNL     1      25.522   7.310  47.882  1.00  0.00     0.001 A 
HETATM   19  C17 UNL     1      26.337   7.629  48.941  1.00  0.00     0.002 A 
HETATM   20  C18 UNL     1      25.983   7.415  50.257  1.00  0.00     0.030 A 
HETATM   21  C19 UNL     1      24.742   6.851  50.510  1.00  0.00     0.036 A 
BRANCH  21  22
HETATM   22  N5  UNL     1      24.345   6.618  51.852  1.00  0.00    -0.398 N 
HETATM   23  H13 UNL     1      23.911   7.183  52.627  1.00  0.00     0.156 HD
HETATM   24  H14 UNL     1      24.574   5.612  52.037  1.00  0.00     0.156 HD
ENDBRANCH  21  22
ENDBRANCH  11  16
ENDBRANCH   9  10
ENDBRANCH   7   9
BRANCH   3  25
HETATM   25  C3  UNL     1      26.504   1.225  52.978  1.00  0.00    -0.005 A 
HETATM   26  C4  UNL     1      27.126   2.385  53.388  1.00  0.00     0.014 A 
HETATM   27  C5  UNL     1      28.457   2.314  53.795  1.00  0.00     0.002 A 
HETATM   28  C6  UNL     1      29.186   1.129  53.806  1.00  0.00     0.019 A 
HETATM   29  C7  UNL     1      28.557  -0.016  53.396  1.00  0.00     0.011 A 
HETATM   30 BR1  UNL     1      29.576  -1.636  53.413  1.00  0.00    -0.051 Br
HETATM   31  C8  UNL     1      27.225   0.052  52.987  1.00  0.00     0.032 A 
ENDBRANCH   3  25
BRANCH   1  32
HETATM   32  N1  UNL     1      21.886  -0.344  53.298  1.00  0.00    -0.231 N 
HETATM   33  H1  UNL     1      20.842  -0.270  53.490  1.00  0.00     0.174 HD
HETATM   34  H2  UNL     1      22.277  -1.247  53.638  1.00  0.00     0.174 HD
ENDBRANCH   1  32
TORSDOF 6
ENDMDL
MODEL 4
REMARK VINA RESULT:      -8.5      3.002      6.574
REMARK  6 active torsions:
REMARK  status: ('A' for Active; 'I' for Inactive)
REMARK    1  A    between atoms: N1_1  and  C1_2 
REMARK    2  A    between atoms: C2_4  and  C3_5 
REMARK    3  A    between atoms: N4_15  and  C11_16 
REMARK    4  A    between atoms: C11_16  and  C12_17 
REMARK    5  A    between atoms: C13_18  and  C14_19 
REMARK    6  A    between atoms: C19_24  and  N5_25 
ROOT
HETATM    1  C1  UNL     1      26.339   3.919  49.719  1.00  0.00     0.722 A 
HETATM    2  N2  UNL     1      25.038   4.292  49.539  1.00  0.00    -0.062 NA
HETATM    3  C2  UNL     1      24.194   3.988  50.542  1.00  0.00     0.098 A 
HETATM    4  C9  UNL     1      24.643   3.336  51.677  1.00  0.00     0.036 A 
HETATM    5  C10 UNL     1      25.979   2.971  51.823  1.00  0.00     0.155 A 
HETATM    6  N3  UNL     1      26.814   3.279  50.818  1.00  0.00    -0.045 NA
HETATM    7  N4  UNL     1      25.633   2.428  53.084  1.00  0.00    -0.356 N 
HETATM    8  C23 UNL     1      24.222   2.784  52.985  1.00  0.00     0.169 A 
ENDROOT
BRANCH   7   9
HETATM    9  C11 UNL     1      26.205   1.753  54.198  1.00  0.00     0.164 C 
BRANCH   9  10
HETATM   10  C12 UNL     1      26.662   0.411  53.783  1.00  0.00    -0.029 A 
HETATM   11  C13 UNL     1      26.057  -0.784  53.623  1.00  0.00    -0.014 A 
HETATM   12  C20 UNL     1      26.734  -2.018  53.173  1.00  0.00     0.214 A 
HETATM   13  O1  UNL     1      28.136  -1.859  53.016  1.00  0.00    -0.358 OA
HETATM   14  C21 UNL     1      28.774  -0.637  53.170  1.00  0.00     0.135 A 
HETATM   15  C22 UNL     1      28.120   0.450  53.530  1.00  0.00     0.033 A 
BRANCH  11  16
HETATM   16  C14 UNL     1      24.631  -0.863  53.909  1.00  0.00    -0.001 A 
HETATM   17  C15 UNL     1      23.775  -0.634  52.823  1.00  0.00     0.014 A 
HETATM   18  C16 UNL     1      22.405  -0.716  52.968  1.00  0.00     0.001 A 
HETATM   19  C17 UNL     1      21.901  -1.027  54.209  1.00  0.00     0.002 A 
HETATM   20  C18 UNL     1      22.697  -1.259  55.310  1.00  0.00     0.030 A 
HETATM   21  C19 UNL     1      24.071  -1.174  55.145  1.00  0.00     0.036 A 
BRANCH  21  22
HETATM   22  N5  UNL     1      24.920  -1.409  56.257  1.00  0.00    -0.398 N 
HETATM   23  H13 UNL     1      24.963  -2.098  57.051  1.00  0.00     0.156 HD
HETATM   24  H14 UNL     1      25.662  -0.670  56.199  1.00  0.00     0.156 HD
ENDBRANCH  21  22
ENDBRANCH  11  16
ENDBRANCH   9  10
ENDBRANCH   7   9
BRANCH   3  25
HETATM   25  C3  UNL     1      22.773   4.362  50.406  1.00  0.00    -0.005 A 
HETATM   26  C4  UNL     1      21.757   3.429  50.407  1.00  0.00     0.014 A 
HETATM   27  C5  UNL     1      20.447   3.879  50.259  1.00  0.00     0.002 A 
HETATM   28  C6  UNL     1      20.116   5.222  50.111  1.00  0.00     0.019 A 
HETATM   29  C7  UNL     1      21.135   6.138  50.112  1.00  0.00     0.011 A 
HETATM   30 BR1  UNL     1      20.662   7.981  49.902  1.00  0.00    -0.051 Br
HETATM   31  C8  UNL     1      22.448   5.691  50.258  1.00  0.00     0.032 A 
ENDBRANCH   3  25
BRANCH   1  32
HETATM   32  N1  UNL     1      27.365   4.171  48.741  1.00  0.00    -0.231 N 
HETATM   33  H1  UNL     1      27.748   3.744  47.845  1.00  0.00     0.174 HD
HETATM   34  H2  UNL     1      27.879   5.037  49.005  1.00  0.00     0.174 HD
ENDBRANCH   1  32
TORSDOF 6
ENDMDL
MODEL 5
REMARK VINA RESULT:      -8.5      3.372      7.454
REMARK  6 active torsions:
REMARK  status: ('A' for Active; 'I' for Inactive)
REMARK    1  A    between atoms: N1_1  and  C1_2 
REMARK    2  A    between atoms: C2_4  and  C3_5 
REMARK    3  A    between atoms: N4_15  and  C11_16 
REMARK    4  A    between atoms: C11_16  and  C12_17 
REMARK    5  A    between atoms: C13_18  and  C14_19 
REMARK    6  A    between atoms: C19_24  and  N5_25 
ROOT
HETATM    1  C1  UNL     1      22.266   2.110  49.101  1.00  0.00     0.722 A 
HETATM    2  N2  UNL     1      22.643   3.267  48.483  1.00  0.00    -0.062 NA
HETATM    3  C2  UNL     1      23.485   4.057  49.175  1.00  0.00     0.098 A 
HETATM    4  C9  UNL     1      23.927   3.695  50.435  1.00  0.00     0.036 A 
HETATM    5  C10 UNL     1      23.519   2.505  51.033  1.00  0.00     0.155 A 
HETATM    6  N3  UNL     1      22.680   1.723  50.335  1.00  0.00    -0.045 NA
HETATM    7  N4  UNL     1      24.315   2.859  52.148  1.00  0.00    -0.356 N 
HETATM    8  C23 UNL     1      24.774   4.118  51.573  1.00  0.00     0.169 A 
ENDROOT
BRANCH   7   9
HETATM    9  C11 UNL     1      24.698   2.388  53.434  1.00  0.00     0.164 C 
BRANCH   9  10
HETATM   10  C12 UNL     1      25.602   1.229  53.289  1.00  0.00    -0.029 A 
HETATM   11  C13 UNL     1      25.469  -0.100  53.476  1.00  0.00    -0.014 A 
HETATM   12  C20 UNL     1      26.537  -1.095  53.247  1.00  0.00     0.214 A 
HETATM   13  O1  UNL     1      27.782  -0.506  52.903  1.00  0.00    -0.358 OA
HETATM   14  C21 UNL     1      27.937   0.857  52.701  1.00  0.00     0.135 A 
HETATM   15  C22 UNL     1      26.941   1.704  52.874  1.00  0.00     0.033 A 
BRANCH  11  16
HETATM   16  C14 UNL     1      24.175  -0.593  53.929  1.00  0.00    -0.001 A 
HETATM   17  C15 UNL     1      23.129  -0.511  52.999  1.00  0.00     0.014 A 
HETATM   18  C16 UNL     1      21.867  -0.978  53.307  1.00  0.00     0.001 A 
HETATM   19  C17 UNL     1      21.662  -1.524  54.551  1.00  0.00     0.002 A 
HETATM   20  C18 UNL     1      22.654  -1.628  55.503  1.00  0.00     0.030 A 
HETATM   21  C19 UNL     1      23.916  -1.155  55.176  1.00  0.00     0.036 A 
BRANCH  21  22
HETATM   22  N5  UNL     1      24.961  -1.246  56.131  1.00  0.00    -0.398 N 
HETATM   23  H13 UNL     1      25.040  -1.483  57.154  1.00  0.00     0.156 HD
HETATM   24  H14 UNL     1      25.837  -1.004  55.607  1.00  0.00     0.156 HD
ENDBRANCH  21  22
ENDBRANCH  11  16
ENDBRANCH   9  10
ENDBRANCH   7   9
BRANCH   3  25
HETATM   25  C3  UNL     1      23.926   5.324  48.562  1.00  0.00    -0.005 A 
HETATM   26  C4  UNL     1      23.087   6.113  47.803  1.00  0.00     0.014 A 
HETATM   27  C5  UNL     1      23.601   7.287  47.254  1.00  0.00     0.002 A 
HETATM   28  C6  UNL     1      24.917   7.699  47.436  1.00  0.00     0.019 A 
HETATM   29  C7  UNL     1      25.739   6.907  48.192  1.00  0.00     0.011 A 
HETATM   30 BR1  UNL     1      27.548   7.487  48.428  1.00  0.00    -0.051 Br
HETATM   31  C8  UNL     1      25.229   5.731  48.742  1.00  0.00     0.032 A 
ENDBRANCH   3  25
BRANCH   1  32
HETATM   32  N1  UNL     1      21.371   1.158  48.496  1.00  0.00    -0.231 N 
HETATM   33  H1  UNL     1      20.355   0.849  48.564  1.00  0.00     0.174 HD
HETATM   34  H2  UNL     1      21.890   0.617  47.774  1.00  0.00     0.174 HD
ENDBRANCH   1  32
TORSDOF 6
ENDMDL
MODEL 6
REMARK VINA RESULT:      -8.5      2.961      4.552
REMARK  6 active torsions:
REMARK  status: ('A' for Active; 'I' for Inactive)
REMARK    1  A    between atoms: N1_1  and  C1_2 
REMARK    2  A    between atoms: C2_4  and  C3_5 
REMARK    3  A    between atoms: N4_15  and  C11_16 
REMARK    4  A    between atoms: C11_16  and  C12_17 
REMARK    5  A    between atoms: C13_18  and  C14_19 
REMARK    6  A    between atoms: C19_24  and  N5_25 
ROOT
HETATM    1  C1  UNL     1      26.459   4.060  49.921  1.00  0.00     0.722 A 
HETATM    2  N2  UNL     1      26.848   2.880  50.487  1.00  0.00    -0.062 NA
HETATM    3  C2  UNL     1      26.030   2.382  51.433  1.00  0.00     0.098 A 
HETATM    4  C9  UNL     1      24.870   3.046  51.791  1.00  0.00     0.036 A 
HETATM    5  C10 UNL     1      24.507   4.249  51.190  1.00  0.00     0.155 A 
HETATM    6  N3  UNL     1      25.329   4.737  50.248  1.00  0.00    -0.045 NA
HETATM    7  N4  UNL     1      23.360   4.250  52.019  1.00  0.00    -0.356 N 
HETATM    8  C23 UNL     1      23.691   2.995  52.684  1.00  0.00     0.169 A 
ENDROOT
BRANCH   7   9
HETATM    9  C11 UNL     1      22.200   5.020  52.310  1.00  0.00     0.164 C 
BRANCH   9  10
HETATM   10  C12 UNL     1      21.392   5.182  51.084  1.00  0.00    -0.029 A 
HETATM   11  C13 UNL     1      20.680   4.340  50.306  1.00  0.00    -0.014 A 
HETATM   12  C20 UNL     1      19.920   4.742  49.104  1.00  0.00     0.214 A 
HETATM   13  O1  UNL     1      20.093   6.111  48.768  1.00  0.00    -0.358 OA
HETATM   14  C21 UNL     1      20.816   6.991  49.558  1.00  0.00     0.135 A 
HETATM   15  C22 UNL     1      21.441   6.595  50.650  1.00  0.00     0.033 A 
BRANCH  11  16
HETATM   16  C14 UNL     1      20.651   2.933  50.683  1.00  0.00    -0.001 A 
HETATM   17  C15 UNL     1      19.736   2.587  51.687  1.00  0.00     0.014 A 
HETATM   18  C16 UNL     1      19.598   1.278  52.102  1.00  0.00     0.001 A 
HETATM   19  C17 UNL     1      20.382   0.321  51.504  1.00  0.00     0.002 A 
HETATM   20  C18 UNL     1      21.298   0.606  50.513  1.00  0.00     0.030 A 
HETATM   21  C19 UNL     1      21.422   1.927  50.108  1.00  0.00     0.036 A 
BRANCH  21  22
HETATM   22  N5  UNL     1      22.354   2.257  49.090  1.00  0.00    -0.398 N 
HETATM   23  H13 UNL     1      22.413   2.962  48.311  1.00  0.00     0.156 HD
HETATM   24  H14 UNL     1      23.150   1.586  49.216  1.00  0.00     0.156 HD
ENDBRANCH  21  22
ENDBRANCH  11  16
ENDBRANCH   9  10
ENDBRANCH   7   9
BRANCH   3  25
HETATM   25  C3  UNL     1      26.398   1.111  52.085  1.00  0.00    -0.005 A 
HETATM   26  C4  UNL     1      25.481   0.111  52.330  1.00  0.00     0.014 A 
HETATM   27  C5  UNL     1      25.922  -1.050  52.963  1.00  0.00     0.002 A 
HETATM   28  C6  UNL     1      27.241  -1.245  53.360  1.00  0.00     0.019 A 
HETATM   29  C7  UNL     1      28.142  -0.244  53.111  1.00  0.00     0.011 A 
HETATM   30 BR1  UNL     1      29.951  -0.528  53.667  1.00  0.00    -0.051 Br
HETATM   31  C8  UNL     1      27.704   0.919  52.478  1.00  0.00     0.032 A 
ENDBRANCH   3  25
BRANCH   1  32
HETATM   32  N1  UNL     1      27.223   4.723  48.896  1.00  0.00    -0.231 N 
HETATM   33  H1  UNL     1      27.934   4.488  48.140  1.00  0.00     0.174 HD
HETATM   34  H2  UNL     1      27.001   5.740  48.913  1.00  0.00     0.174 HD
ENDBRANCH   1  32
TORSDOF 6
ENDMDL
MODEL 7
REMARK VINA RESULT:      -8.1      3.938      5.918
REMARK  6 active torsions:
REMARK  status: ('A' for Active; 'I' for Inactive)
REMARK    1  A    between atoms: N1_1  and  C1_2 
REMARK    2  A    between atoms: C2_4  and  C3_5 
REMARK    3  A    between atoms: N4_15  and  C11_16 
REMARK    4  A    between atoms: C11_16  and  C12_17 
REMARK    5  A    between atoms: C13_18  and  C14_19 
REMARK    6  A    between atoms: C19_24  and  N5_25 
ROOT
HETATM    1  C1  UNL     1      21.458  -1.007  54.483  1.00  0.00     0.722 A 
HETATM    2  N2  UNL     1      20.280  -1.629  54.188  1.00  0.00    -0.062 NA
HETATM    3  C2  UNL     1      19.408  -0.919  53.448  1.00  0.00     0.098 A 
HETATM    4  C9  UNL     1      19.713   0.362  53.024  1.00  0.00     0.036 A 
HETATM    5  C10 UNL     1      20.927   0.963  53.346  1.00  0.00     0.155 A 
HETATM    6  N3  UNL     1      21.791   0.247  54.084  1.00  0.00    -0.045 NA
HETATM    7  N4  UNL     1      20.488   2.101  52.629  1.00  0.00    -0.356 N 
HETATM    8  C23 UNL     1      19.200   1.524  52.263  1.00  0.00     0.169 A 
ENDROOT
BRANCH   7   9
HETATM    9  C11 UNL     1      20.906   3.409  52.255  1.00  0.00     0.164 C 
BRANCH   9  10
HETATM   10  C12 UNL     1      21.632   3.349  50.970  1.00  0.00    -0.029 A 
HETATM   11  C13 UNL     1      22.873   2.965  50.605  1.00  0.00    -0.014 A 
HETATM   12  C20 UNL     1      23.387   2.979  49.220  1.00  0.00     0.214 A 
HETATM   13  O1  UNL     1      22.472   3.544  48.293  1.00  0.00    -0.358 OA
HETATM   14  C21 UNL     1      21.191   3.939  48.648  1.00  0.00     0.135 A 
HETATM   15  C22 UNL     1      20.760   3.865  49.892  1.00  0.00     0.033 A 
BRANCH  11  16
HETATM   16  C14 UNL     1      23.770   2.495  51.652  1.00  0.00    -0.001 A 
HETATM   17  C15 UNL     1      24.039   1.119  51.656  1.00  0.00     0.014 A 
HETATM   18  C16 UNL     1      24.901   0.566  52.582  1.00  0.00     0.001 A 
HETATM   19  C17 UNL     1      25.489   1.401  53.502  1.00  0.00     0.002 A 
HETATM   20  C18 UNL     1      25.259   2.760  53.543  1.00  0.00     0.030 A 
HETATM   21  C19 UNL     1      24.391   3.298  52.605  1.00  0.00     0.036 A 
BRANCH  21  22
HETATM   22  N5  UNL     1      24.131   4.693  52.618  1.00  0.00    -0.398 N 
HETATM   23  H13 UNL     1      23.295   5.311  52.782  1.00  0.00     0.156 HD
HETATM   24  H14 UNL     1      25.052   5.147  52.402  1.00  0.00     0.156 HD
ENDBRANCH  21  22
ENDBRANCH  11  16
ENDBRANCH   9  10
ENDBRANCH   7   9
BRANCH   3  25
HETATM   25  C3  UNL     1      18.114  -1.536  53.099  1.00  0.00    -0.005 A 
HETATM   26  C4  UNL     1      17.180  -0.901  52.308  1.00  0.00     0.014 A 
HETATM   27  C5  UNL     1      15.980  -1.560  52.044  1.00  0.00     0.002 A 
HETATM   28  C6  UNL     1      15.682  -2.825  52.541  1.00  0.00     0.019 A 
HETATM   29  C7  UNL     1      16.618  -3.444  53.326  1.00  0.00     0.011 A 
HETATM   30 BR1  UNL     1      16.189  -5.181  54.005  1.00  0.00    -0.051 Br
HETATM   31  C8  UNL     1      17.820  -2.787  53.593  1.00  0.00     0.032 A 
ENDBRANCH   3  25
BRANCH   1  32
HETATM   32  N1  UNL     1      22.495  -1.630  55.265  1.00  0.00    -0.231 N 
HETATM   33  H1  UNL     1      23.542  -1.814  55.216  1.00  0.00     0.174 HD
HETATM   34  H2  UNL     1      22.078  -2.010  56.139  1.00  0.00     0.174 HD
ENDBRANCH   1  32
TORSDOF 6
ENDMDL
MODEL 8
REMARK VINA RESULT:      -8.1      3.024      5.326
REMARK  6 active torsions:
REMARK  status: ('A' for Active; 'I' for Inactive)
REMARK    1  A    between atoms: N1_1  and  C1_2 
REMARK    2  A    between atoms: C2_4  and  C3_5 
REMARK    3  A    between atoms: N4_15  and  C11_16 
REMARK    4  A    between atoms: C11_16  and  C12_17 
REMARK    5  A    between atoms: C13_18  and  C14_19 
REMARK    6  A    between atoms: C19_24  and  N5_25 
ROOT
HETATM    1  C1  UNL     1      18.620   4.025  50.249  1.00  0.00     0.722 A 
HETATM    2  N2  UNL     1      18.386   2.926  51.023  1.00  0.00    -0.062 NA
HETATM    3  C2  UNL     1      19.373   2.011  51.061  1.00  0.00     0.098 A 
HETATM    4  C9  UNL     1      20.545   2.200  50.350  1.00  0.00     0.036 A 
HETATM    5  C10 UNL     1      20.746   3.336  49.571  1.00  0.00     0.155 A 
HETATM    6  N3  UNL     1      19.757   4.242  49.539  1.00  0.00    -0.045 NA
HETATM    7  N4  UNL     1      22.015   2.808  49.232  1.00  0.00    -0.356 N 
HETATM    8  C23 UNL     1      21.858   1.597  50.029  1.00  0.00     0.169 A 
ENDROOT
BRANCH   7   9
HETATM    9  C11 UNL     1      23.171   3.103  48.457  1.00  0.00     0.164 C 
BRANCH   9  10
HETATM   10  C12 UNL     1      23.776   4.365  48.931  1.00  0.00    -0.029 A 
HETATM   11  C13 UNL     1      24.573   4.697  49.968  1.00  0.00    -0.014 A 
HETATM   12  C20 UNL     1      25.078   6.059  50.241  1.00  0.00     0.214 A 
HETATM   13  O1  UNL     1      24.555   7.035  49.352  1.00  0.00    -0.358 OA
HETATM   14  C21 UNL     1      23.740   6.711  48.278  1.00  0.00     0.135 A 
HETATM   15  C22 UNL     1      23.351   5.472  48.048  1.00  0.00     0.033 A 
BRANCH  11  16
HETATM   16  C14 UNL     1      24.971   3.635  50.883  1.00  0.00    -0.001 A 
HETATM   17  C15 UNL     1      26.129   2.928  50.532  1.00  0.00     0.014 A 
HETATM   18  C16 UNL     1      26.620   1.922  51.340  1.00  0.00     0.001 A 
HETATM   19  C17 UNL     1      25.940   1.631  52.499  1.00  0.00     0.002 A 
HETATM   20  C18 UNL     1      24.796   2.293  52.890  1.00  0.00     0.030 A 
HETATM   21  C19 UNL     1      24.319   3.302  52.066  1.00  0.00     0.036 A 
BRANCH  21  22
HETATM   22  N5  UNL     1      23.144   4.005  52.438  1.00  0.00    -0.398 N 
HETATM   23  H13 UNL     1      22.579   4.803  52.049  1.00  0.00     0.156 HD
HETATM   24  H14 UNL     1      22.825   3.557  53.331  1.00  0.00     0.156 HD
ENDBRANCH  21  22
ENDBRANCH  11  16
ENDBRANCH   9  10
ENDBRANCH   7   9
BRANCH   3  25
HETATM   25  C3  UNL     1      19.178   0.798  51.878  1.00  0.00    -0.005 A 
HETATM   26  C4  UNL     1      18.006   0.072  51.859  1.00  0.00     0.014 A 
HETATM   27  C5  UNL     1      17.912  -1.053  52.676  1.00  0.00     0.002 A 
HETATM   28  C6  UNL     1      18.944  -1.477  53.508  1.00  0.00     0.019 A 
HETATM   29  C7  UNL     1      20.102  -0.746  53.518  1.00  0.00     0.011 A 
HETATM   30 BR1  UNL     1      21.509  -1.340  54.672  1.00  0.00    -0.051 Br
HETATM   31  C8  UNL     1      20.199   0.381  52.702  1.00  0.00     0.032 A 
ENDBRANCH   3  25
BRANCH   1  32
HETATM   32  N1  UNL     1      17.666   5.094  50.102  1.00  0.00    -0.231 N 
HETATM   33  H1  UNL     1      17.154   5.807  50.703  1.00  0.00     0.174 HD
HETATM   34  H2  UNL     1      17.409   5.182  49.097  1.00  0.00     0.174 HD
ENDBRANCH   1  32
TORSDOF 6
ENDMDL
MODEL 9
REMARK VINA RESULT:      -8.1      6.379      9.681
REMARK  6 active torsions:
REMARK  status: ('A' for Active; 'I' for Inactive)
REMARK    1  A    between atoms: N1_1  and  C1_2 
REMARK    2  A    between atoms: C2_4  and  C3_5 
REMARK    3  A    between atoms: N4_15  and  C11_16 
REMARK    4  A    between atoms: C11_16  and  C12_17 
REMARK    5  A    between atoms: C13_18  and  C14_19 
REMARK    6  A    between atoms: C19_24  and  N5_25 
ROOT
HETATM    1  C1  UNL     1      27.827   9.018  46.624  1.00  0.00     0.722 A 
HETATM    2  N2  UNL     1      27.110   8.111  47.349  1.00  0.00    -0.062 NA
HETATM    3  C2  UNL     1      27.807   7.073  47.848  1.00  0.00     0.098 A 
HETATM    4  C9  UNL     1      29.168   6.957  47.625  1.00  0.00     0.036 A 
HETATM    5  C10 UNL     1      29.864   7.905  46.879  1.00  0.00     0.155 A 
HETATM    6  N3  UNL     1      29.161   8.936  46.386  1.00  0.00    -0.045 NA
HETATM    7  N4  UNL     1      31.032   7.137  47.103  1.00  0.00    -0.356 N 
HETATM    8  C23 UNL     1      30.355   6.113  47.890  1.00  0.00     0.169 A 
ENDROOT
BRANCH   7   9
HETATM    9  C11 UNL     1      32.423   7.118  46.805  1.00  0.00     0.164 C 
BRANCH   9  10
HETATM   10  C12 UNL     1      32.639   6.498  45.482  1.00  0.00    -0.029 A 
HETATM   11  C13 UNL     1      32.960   5.256  45.065  1.00  0.00    -0.014 A 
HETATM   12  C20 UNL     1      33.111   4.854  43.650  1.00  0.00     0.214 A 
HETATM   13  O1  UNL     1      32.988   5.943  42.747  1.00  0.00    -0.358 OA
HETATM   14  C21 UNL     1      32.652   7.224  43.157  1.00  0.00     0.135 A 
HETATM   15  C22 UNL     1      32.482   7.525  44.430  1.00  0.00     0.033 A 
BRANCH  11  16
HETATM   16  C14 UNL     1      33.166   4.232  46.081  1.00  0.00    -0.001 A 
HETATM   17  C15 UNL     1      32.155   3.267  46.191  1.00  0.00     0.014 A 
HETATM   18  C16 UNL     1      32.259   2.231  47.098  1.00  0.00     0.001 A 
HETATM   19  C17 UNL     1      33.379   2.171  47.891  1.00  0.00     0.002 A 
HETATM   20  C18 UNL     1      34.401   3.095  47.825  1.00  0.00     0.030 A 
HETATM   21  C19 UNL     1      34.281   4.128  46.908  1.00  0.00     0.036 A 
BRANCH  21  22
HETATM   22  N5  UNL     1      35.314   5.096  46.812  1.00  0.00    -0.398 N 
HETATM   23  H13 UNL     1      35.911   5.499  46.045  1.00  0.00     0.156 HD
HETATM   24  H14 UNL     1      35.456   5.446  47.790  1.00  0.00     0.156 HD
ENDBRANCH  21  22
ENDBRANCH  11  16
ENDBRANCH   9  10
ENDBRANCH   7   9
BRANCH   3  25
HETATM   25  C3  UNL     1      27.088   6.056  48.638  1.00  0.00    -0.005 A 
HETATM   26  C4  UNL     1      27.478   4.734  48.676  1.00  0.00     0.014 A 
HETATM   27  C5  UNL     1      26.726   3.845  49.441  1.00  0.00     0.002 A 
HETATM   28  C6  UNL     1      25.603   4.227  50.168  1.00  0.00     0.019 A 
HETATM   29  C7  UNL     1      25.226   5.543  50.122  1.00  0.00     0.011 A 
HETATM   30 BR1  UNL     1      23.676   6.051  51.123  1.00  0.00    -0.051 Br
HETATM   31  C8  UNL     1      25.976   6.436  49.356  1.00  0.00     0.032 A 
ENDBRANCH   3  25
BRANCH   1  32
HETATM   32  N1  UNL     1      27.230  10.183  46.024  1.00  0.00    -0.231 N 
HETATM   33  H1  UNL     1      27.523  11.054  45.488  1.00  0.00     0.174 HD
HETATM   34  H2  UNL     1      26.199  10.147  46.165  1.00  0.00     0.174 HD
ENDBRANCH   1  32
TORSDOF 6
ENDMDL
