MODEL 1
REMARK VINA RESULT:      -7.2      0.000      0.000
REMARK  5 active torsions:
REMARK  status: ('A' for Active; 'I' for Inactive)
REMARK    1  A    between atoms: C2_2  and  C3_3 
REMARK    2  A    between atoms: C8_9  and  N2_10 
REMARK    3  A    between atoms: N2_10  and  C9_11 
REMARK    4  A    between atoms: C9_11  and  C10_12 
REMARK    5  A    between atoms: C12_15  and  C13_16 
ROOT
HETATM    1  C3  UNL     1      28.490   0.765  53.372  1.00  0.00     0.032 C 
HETATM    2  C4  UNL     1      27.296   0.631  52.814  1.00  0.00     0.057 C 
HETATM    3  C5  UNL     1      26.497  -0.597  52.912  1.00  0.00     0.084 C 
HETATM    4  C6  UNL     1      25.315  -0.505  53.819  1.00  0.00     0.126 C 
HETATM    5  N1  UNL     1      24.332   0.462  53.437  1.00  0.00    -0.383 N 
HETATM    6  C7  UNL     1      24.396   1.584  52.565  1.00  0.00     0.128 A 
HETATM    7  C8  UNL     1      23.138   2.085  52.328  1.00  0.00     0.160 A 
HETATM    8  N3  UNL     1      23.047   3.149  51.524  1.00  0.00    -0.222 NA
HETATM    9  C14 UNL     1      24.109   3.734  50.951  1.00  0.00     0.238 A 
HETATM   10  N4  UNL     1      25.330   3.224  51.199  1.00  0.00    -0.215 NA
HETATM   11  C15 UNL     1      25.539   2.164  51.987  1.00  0.00     0.201 A 
HETATM   12  O1  UNL     1      26.876   1.786  52.119  1.00  0.00    -0.294 OA
HETATM   13  H9  UNL     1      23.414   0.288  53.901  1.00  0.00     0.159 HD
ENDROOT
BRANCH   7  14
HETATM   14  N2  UNL     1      21.936   1.566  52.861  1.00  0.00    -0.339 N 
HETATM   15  H10 UNL     1      21.218   1.755  53.577  1.00  0.00     0.167 HD
BRANCH  14  16
HETATM   16  C9  UNL     1      21.375   0.346  52.326  1.00  0.00     0.029 C 
HETATM   17  C12 UNL     1      20.985  -0.529  53.270  1.00  0.00     0.033 C 
BRANCH  16  18
HETATM   18  C10 UNL     1      21.478   0.603  50.886  1.00  0.00     0.024 C 
HETATM   19  C11 UNL     1      20.878   0.926  49.760  1.00  0.00     0.261 C 
HETATM   20 CL1  UNL     1      19.147   1.252  49.676  1.00  0.00    -0.251 Cl
ENDBRANCH  16  18
BRANCH  17  21
HETATM   21  C13 UNL     1      21.227  -0.026  54.624  1.00  0.00     0.252 C 
HETATM   22  F1  UNL     1      22.097  -0.833  55.361  1.00  0.00    -0.251 F 
ENDBRANCH  17  21
ENDBRANCH  14  16
ENDBRANCH   7  14
BRANCH   1  23
HETATM   23  C2  UNL     1      29.106  -0.315  54.137  1.00  0.00    -0.008 C 
HETATM   24  C1  UNL     1      30.078  -1.048  53.634  1.00  0.00     0.011 C 
ENDBRANCH   1  23
TORSDOF 5
ENDMDL
MODEL 2
REMARK VINA RESULT:      -7.1      2.712      3.869
REMARK  5 active torsions:
REMARK  status: ('A' for Active; 'I' for Inactive)
REMARK    1  A    between atoms: C2_2  and  C3_3 
REMARK    2  A    between atoms: C8_9  and  N2_10 
REMARK    3  A    between atoms: N2_10  and  C9_11 
REMARK    4  A    between atoms: C9_11  and  C10_12 
REMARK    5  A    between atoms: C12_15  and  C13_16 
ROOT
HETATM    1  C3  UNL     1      27.896  -0.282  54.311  1.00  0.00     0.032 C 
HETATM    2  C4  UNL     1      26.861   0.488  54.009  1.00  0.00     0.057 C 
HETATM    3  C5  UNL     1      26.998   1.881  53.566  1.00  0.00     0.084 C 
HETATM    4  C6  UNL     1      26.725   2.106  52.116  1.00  0.00     0.126 C 
HETATM    5  N1  UNL     1      25.396   1.787  51.692  1.00  0.00    -0.383 N 
HETATM    6  C7  UNL     1      24.380   0.989  52.285  1.00  0.00     0.128 A 
HETATM    7  C8  UNL     1      23.184   1.160  51.628  1.00  0.00     0.160 A 
HETATM    8  N3  UNL     1      22.135   0.465  52.078  1.00  0.00    -0.222 NA
HETATM    9  C14 UNL     1      22.200  -0.374  53.123  1.00  0.00     0.238 A 
HETATM   10  N4  UNL     1      23.381  -0.524  53.750  1.00  0.00    -0.215 NA
HETATM   11  C15 UNL     1      24.495   0.120  53.385  1.00  0.00     0.201 A 
HETATM   12  O1  UNL     1      25.619  -0.169  54.160  1.00  0.00    -0.294 OA
HETATM   13  H9  UNL     1      25.162   2.230  50.778  1.00  0.00     0.159 HD
ENDROOT
BRANCH   7  14
HETATM   14  N2  UNL     1      22.974   2.012  50.520  1.00  0.00    -0.339 N 
HETATM   15  H10 UNL     1      23.432   2.354  49.661  1.00  0.00     0.167 HD
BRANCH  14  16
HETATM   16  C9  UNL     1      21.730   2.736  50.389  1.00  0.00     0.029 C 
HETATM   17  C12 UNL     1      21.006   2.377  49.314  1.00  0.00     0.033 C 
BRANCH  16  18
HETATM   18  C10 UNL     1      21.793   3.608  51.566  1.00  0.00     0.024 C 
HETATM   19  C11 UNL     1      22.397   4.589  52.203  1.00  0.00     0.261 C 
HETATM   20 CL1  UNL     1      23.817   5.403  51.546  1.00  0.00    -0.251 Cl
ENDBRANCH  16  18
BRANCH  17  21
HETATM   21  C13 UNL     1      21.664   1.330  48.528  1.00  0.00     0.252 C 
HETATM   22  F1  UNL     1      22.353   1.828  47.419  1.00  0.00    -0.251 F 
ENDBRANCH  17  21
ENDBRANCH  14  16
ENDBRANCH   7  14
BRANCH   1  23
HETATM   23  C2  UNL     1      29.269   0.206  54.221  1.00  0.00    -0.008 C 
HETATM   24  C1  UNL     1      30.172  -0.409  53.485  1.00  0.00     0.011 C 
ENDBRANCH   1  23
TORSDOF 5
ENDMDL
MODEL 3
REMARK VINA RESULT:      -7.0      2.286      2.810
REMARK  5 active torsions:
REMARK  status: ('A' for Active; 'I' for Inactive)
REMARK    1  A    between atoms: C2_2  and  C3_3 
REMARK    2  A    between atoms: C8_9  and  N2_10 
REMARK    3  A    between atoms: N2_10  and  C9_11 
REMARK    4  A    between atoms: C9_11  and  C10_12 
REMARK    5  A    between atoms: C12_15  and  C13_16 
ROOT
HETATM    1  C3  UNL     1      27.934   1.037  54.101  1.00  0.00     0.032 C 
HETATM    2  C4  UNL     1      26.951   1.004  53.213  1.00  0.00     0.057 C 
HETATM    3  C5  UNL     1      26.638  -0.180  52.403  1.00  0.00     0.084 C 
HETATM    4  C6  UNL     1      25.393  -0.900  52.802  1.00  0.00     0.126 C 
HETATM    5  N1  UNL     1      24.188  -0.135  52.691  1.00  0.00    -0.383 N 
HETATM    6  C7  UNL     1      23.962   1.266  52.599  1.00  0.00     0.128 A 
HETATM    7  C8  UNL     1      22.650   1.524  52.276  1.00  0.00     0.160 A 
HETATM    8  N3  UNL     1      22.292   2.806  52.159  1.00  0.00    -0.222 NA
HETATM    9  C14 UNL     1      23.141   3.829  52.340  1.00  0.00     0.238 A 
HETATM   10  N4  UNL     1      24.420   3.550  52.656  1.00  0.00    -0.215 NA
HETATM   11  C15 UNL     1      24.888   2.305  52.799  1.00  0.00     0.201 A 
HETATM   12  O1  UNL     1      26.241   2.222  53.128  1.00  0.00    -0.294 OA
HETATM   13  H9  UNL     1      23.341  -0.743  52.682  1.00  0.00     0.159 HD
ENDROOT
BRANCH   7  14
HETATM   14  N2  UNL     1      21.654   0.546  52.053  1.00  0.00    -0.339 N 
HETATM   15  H10 UNL     1      21.451  -0.289  51.484  1.00  0.00     0.167 HD
BRANCH  14  16
HETATM   16  C9  UNL     1      20.424   0.582  52.811  1.00  0.00     0.029 C 
HETATM   17  C12 UNL     1      19.327   0.759  52.052  1.00  0.00     0.033 C 
BRANCH  16  18
HETATM   18  C10 UNL     1      20.932   0.396  54.173  1.00  0.00     0.024 C 
HETATM   19  C11 UNL     1      21.492  -0.398  55.062  1.00  0.00     0.261 C 
HETATM   20 CL1  UNL     1      21.935  -2.064  54.688  1.00  0.00    -0.251 Cl
ENDBRANCH  16  18
BRANCH  17  21
HETATM   21  C13 UNL     1      19.653   0.874  50.628  1.00  0.00     0.252 C 
HETATM   22  F1  UNL     1      18.594   0.507  49.793  1.00  0.00    -0.251 F 
ENDBRANCH  17  21
ENDBRANCH  14  16
ENDBRANCH   7  14
BRANCH   1  23
HETATM   23  C2  UNL     1      28.789  -0.121  54.343  1.00  0.00    -0.008 C 
HETATM   24  C1  UNL     1      29.889  -0.323  53.648  1.00  0.00     0.011 C 
ENDBRANCH   1  23
TORSDOF 5
ENDMDL
MODEL 4
REMARK VINA RESULT:      -6.9      2.512      3.756
REMARK  5 active torsions:
REMARK  status: ('A' for Active; 'I' for Inactive)
REMARK    1  A    between atoms: C2_2  and  C3_3 
REMARK    2  A    between atoms: C8_9  and  N2_10 
REMARK    3  A    between atoms: N2_10  and  C9_11 
REMARK    4  A    between atoms: C9_11  and  C10_12 
REMARK    5  A    between atoms: C12_15  and  C13_16 
ROOT
HETATM    1  C3  UNL     1      26.720  -0.544  53.678  1.00  0.00     0.032 C 
HETATM    2  C4  UNL     1      25.553   0.084  53.659  1.00  0.00     0.057 C 
HETATM    3  C5  UNL     1      25.364   1.410  53.059  1.00  0.00     0.084 C 
HETATM    4  C6  UNL     1      24.620   1.411  51.765  1.00  0.00     0.126 C 
HETATM    5  N1  UNL     1      23.277   0.921  51.837  1.00  0.00    -0.383 N 
HETATM    6  C7  UNL     1      22.612   0.125  52.809  1.00  0.00     0.128 A 
HETATM    7  C8  UNL     1      21.258   0.099  52.570  1.00  0.00     0.160 A 
HETATM    8  N3  UNL     1      20.503  -0.619  53.408  1.00  0.00    -0.222 NA
HETATM    9  C14 UNL     1      21.002  -1.299  54.450  1.00  0.00     0.238 A 
HETATM   10  N4  UNL     1      22.330  -1.257  54.665  1.00  0.00    -0.215 NA
HETATM   11  C15 UNL     1      23.179  -0.573  53.890  1.00  0.00     0.201 A 
HETATM   12  O1  UNL     1      24.518  -0.653  54.276  1.00  0.00    -0.294 OA
HETATM   13  H9  UNL     1      22.711   1.215  51.013  1.00  0.00     0.159 HD
ENDROOT
BRANCH   7  14
HETATM   14  N2  UNL     1      20.601   0.771  51.513  1.00  0.00    -0.339 N 
HETATM   15  H10 UNL     1      20.554   0.813  50.484  1.00  0.00     0.167 HD
BRANCH  14  16
HETATM   16  C9  UNL     1      19.615   1.787  51.805  1.00  0.00     0.029 C 
HETATM   17  C12 UNL     1      18.366   1.450  51.438  1.00  0.00     0.033 C 
BRANCH  16  18
HETATM   18  C10 UNL     1      20.456   2.819  52.420  1.00  0.00     0.024 C 
HETATM   19  C11 UNL     1      21.225   3.876  52.266  1.00  0.00     0.261 C 
HETATM   20 CL1  UNL     1      21.557   4.575  50.680  1.00  0.00    -0.251 Cl
ENDBRANCH  16  18
BRANCH  17  21
HETATM   21  C13 UNL     1      18.309   0.121  50.825  1.00  0.00     0.252 C 
HETATM   22  F1  UNL     1      17.780  -0.853  51.675  1.00  0.00    -0.251 F 
ENDBRANCH  17  21
ENDBRANCH  14  16
ENDBRANCH   7  14
BRANCH   1  23
HETATM   23  C2  UNL     1      27.920   0.047  53.092  1.00  0.00    -0.008 C 
HETATM   24  C1  UNL     1      29.029   0.189  53.789  1.00  0.00     0.011 C 
ENDBRANCH   1  23
TORSDOF 5
ENDMDL
MODEL 5
REMARK VINA RESULT:      -6.8      2.308      2.424
REMARK  5 active torsions:
REMARK  status: ('A' for Active; 'I' for Inactive)
REMARK    1  A    between atoms: C2_2  and  C3_3 
REMARK    2  A    between atoms: C8_9  and  N2_10 
REMARK    3  A    between atoms: N2_10  and  C9_11 
REMARK    4  A    between atoms: C9_11  and  C10_12 
REMARK    5  A    between atoms: C12_15  and  C13_16 
ROOT
HETATM    1  C3  UNL     1      28.558   1.077  53.290  1.00  0.00     0.032 C 
HETATM    2  C4  UNL     1      27.547   1.028  52.434  1.00  0.00     0.057 C 
HETATM    3  C5  UNL     1      26.706  -0.161  52.251  1.00  0.00     0.084 C 
HETATM    4  C6  UNL     1      25.332  -0.049  52.822  1.00  0.00     0.126 C 
HETATM    5  N1  UNL     1      24.520   0.982  52.253  1.00  0.00    -0.383 N 
HETATM    6  C7  UNL     1      24.853   2.137  51.492  1.00  0.00     0.128 A 
HETATM    7  C8  UNL     1      23.720   2.711  50.964  1.00  0.00     0.160 A 
HETATM    8  N3  UNL     1      23.883   3.813  50.225  1.00  0.00    -0.222 NA
HETATM    9  C14 UNL     1      25.080   4.368  49.983  1.00  0.00     0.238 A 
HETATM   10  N4  UNL     1      26.173   3.787  50.511  1.00  0.00    -0.215 NA
HETATM   11  C15 UNL     1      26.128   2.683  51.265  1.00  0.00     0.201 A 
HETATM   12  O1  UNL     1      27.368   2.233  51.720  1.00  0.00    -0.294 OA
HETATM   13  H9  UNL     1      23.507   0.834  52.451  1.00  0.00     0.159 HD
ENDROOT
BRANCH   7  14
HETATM   14  N2  UNL     1      22.402   2.230  51.135  1.00  0.00    -0.339 N 
HETATM   15  H10 UNL     1      21.810   1.705  51.796  1.00  0.00     0.167 HD
BRANCH  14  16
HETATM   16  C9  UNL     1      21.405   2.476  50.118  1.00  0.00     0.029 C 
HETATM   17  C12 UNL     1      20.350   3.186  50.557  1.00  0.00     0.033 C 
BRANCH  16  18
HETATM   18  C10 UNL     1      22.013   1.803  48.967  1.00  0.00     0.024 C 
HETATM   19  C11 UNL     1      22.341   1.838  47.693  1.00  0.00     0.261 C 
HETATM   20 CL1  UNL     1      21.999   3.237  46.672  1.00  0.00    -0.251 Cl
ENDBRANCH  16  18
BRANCH  17  21
HETATM   21  C13 UNL     1      20.470   3.539  51.973  1.00  0.00     0.252 C 
HETATM   22  F1  UNL     1      19.815   2.640  52.820  1.00  0.00    -0.251 F 
ENDBRANCH  17  21
ENDBRANCH  14  16
ENDBRANCH   7  14
BRANCH   1  23
HETATM   23  C2  UNL     1      28.910  -0.066  54.127  1.00  0.00    -0.008 C 
HETATM   24  C1  UNL     1      29.883  -0.889  53.795  1.00  0.00     0.011 C 
ENDBRANCH   1  23
TORSDOF 5
ENDMDL
MODEL 6
REMARK VINA RESULT:      -6.7      2.884      4.618
REMARK  5 active torsions:
REMARK  status: ('A' for Active; 'I' for Inactive)
REMARK    1  A    between atoms: C2_2  and  C3_3 
REMARK    2  A    between atoms: C8_9  and  N2_10 
REMARK    3  A    between atoms: N2_10  and  C9_11 
REMARK    4  A    between atoms: C9_11  and  C10_12 
REMARK    5  A    between atoms: C12_15  and  C13_16 
ROOT
HETATM    1  C3  UNL     1      26.457   5.616  48.859  1.00  0.00     0.032 C 
HETATM    2  C4  UNL     1      25.848   4.539  49.331  1.00  0.00     0.057 C 
HETATM    3  C5  UNL     1      26.520   3.244  49.501  1.00  0.00     0.084 C 
HETATM    4  C6  UNL     1      26.811   2.871  50.916  1.00  0.00     0.126 C 
HETATM    5  N1  UNL     1      25.659   2.721  51.753  1.00  0.00    -0.383 N 
HETATM    6  C7  UNL     1      24.320   3.176  51.609  1.00  0.00     0.128 A 
HETATM    7  C8  UNL     1      23.507   2.595  52.553  1.00  0.00     0.160 A 
HETATM    8  N3  UNL     1      22.214   2.935  52.539  1.00  0.00    -0.222 NA
HETATM    9  C14 UNL     1      21.690   3.801  51.660  1.00  0.00     0.238 A 
HETATM   10  N4  UNL     1      22.506   4.357  50.744  1.00  0.00    -0.215 NA
HETATM   11  C15 UNL     1      23.814   4.090  50.667  1.00  0.00     0.201 A 
HETATM   12  O1  UNL     1      24.490   4.765  49.650  1.00  0.00    -0.294 OA
HETATM   13  H9  UNL     1      25.874   2.180  52.617  1.00  0.00     0.159 HD
ENDROOT
BRANCH   7  14
HETATM   14  N2  UNL     1      23.925   1.666  53.533  1.00  0.00    -0.339 N 
HETATM   15  H10 UNL     1      24.311   1.613  54.488  1.00  0.00     0.167 HD
BRANCH  14  16
HETATM   16  C9  UNL     1      23.850   0.248  53.264  1.00  0.00     0.029 C 
HETATM   17  C12 UNL     1      24.995  -0.412  53.517  1.00  0.00     0.033 C 
BRANCH  16  18
HETATM   18  C10 UNL     1      22.464   0.127  52.802  1.00  0.00     0.024 C 
HETATM   19  C11 UNL     1      21.273  -0.410  52.958  1.00  0.00     0.261 C 
HETATM   20 CL1  UNL     1      20.920  -1.551  54.257  1.00  0.00    -0.251 Cl
ENDBRANCH  16  18
BRANCH  17  21
HETATM   21  C13 UNL     1      26.050   0.479  54.007  1.00  0.00     0.252 C 
HETATM   22  F1  UNL     1      26.396   0.236  55.339  1.00  0.00    -0.251 F 
ENDBRANCH  17  21
ENDBRANCH  14  16
ENDBRANCH   7  14
BRANCH   1  23
HETATM   23  C2  UNL     1      27.864   5.594  48.470  1.00  0.00    -0.008 C 
HETATM   24  C1  UNL     1      28.452   6.652  47.950  1.00  0.00     0.011 C 
ENDBRANCH   1  23
TORSDOF 5
ENDMDL
MODEL 7
REMARK VINA RESULT:      -6.7      3.216      6.131
REMARK  5 active torsions:
REMARK  status: ('A' for Active; 'I' for Inactive)
REMARK    1  A    between atoms: C2_2  and  C3_3 
REMARK    2  A    between atoms: C8_9  and  N2_10 
REMARK    3  A    between atoms: N2_10  and  C9_11 
REMARK    4  A    between atoms: C9_11  and  C10_12 
REMARK    5  A    between atoms: C12_15  and  C13_16 
ROOT
HETATM    1  C3  UNL     1      20.366  -1.110  53.737  1.00  0.00     0.032 C 
HETATM    2  C4  UNL     1      21.234  -0.425  53.006  1.00  0.00     0.057 C 
HETATM    3  C5  UNL     1      20.844   0.378  51.839  1.00  0.00     0.084 C 
HETATM    4  C6  UNL     1      20.887   1.854  52.052  1.00  0.00     0.126 C 
HETATM    5  N1  UNL     1      22.179   2.385  52.362  1.00  0.00    -0.383 N 
HETATM    6  C7  UNL     1      23.368   1.765  52.837  1.00  0.00     0.128 A 
HETATM    7  C8  UNL     1      24.430   2.637  52.767  1.00  0.00     0.160 A 
HETATM    8  N3  UNL     1      25.616   2.187  53.187  1.00  0.00    -0.222 NA
HETATM    9  C14 UNL     1      25.810   0.948  53.661  1.00  0.00     0.238 A 
HETATM   10  N4  UNL     1      24.755   0.113  53.719  1.00  0.00    -0.215 NA
HETATM   11  C15 UNL     1      23.523   0.456  53.327  1.00  0.00     0.201 A 
HETATM   12  O1  UNL     1      22.564  -0.548  53.464  1.00  0.00    -0.294 OA
HETATM   13  H9  UNL     1      22.226   3.414  52.204  1.00  0.00     0.159 HD
ENDROOT
BRANCH   7  14
HETATM   14  N2  UNL     1      24.368   3.965  52.286  1.00  0.00    -0.339 N 
HETATM   15  H10 UNL     1      24.328   4.943  52.610  1.00  0.00     0.167 HD
BRANCH  14  16
HETATM   16  C9  UNL     1      24.349   4.218  50.864  1.00  0.00     0.029 C 
HETATM   17  C12 UNL     1      23.414   5.108  50.486  1.00  0.00     0.033 C 
BRANCH  16  18
HETATM   18  C10 UNL     1      25.432   3.339  50.412  1.00  0.00     0.024 C 
HETATM   19  C11 UNL     1      26.545   3.194  49.725  1.00  0.00     0.261 C 
HETATM   20 CL1  UNL     1      27.288   4.531  48.845  1.00  0.00    -0.251 Cl
ENDBRANCH  16  18
BRANCH  17  21
HETATM   21  C13 UNL     1      22.634   5.607  51.621  1.00  0.00     0.252 C 
HETATM   22  F1  UNL     1      21.267   5.340  51.506  1.00  0.00    -0.251 F 
ENDBRANCH  17  21
ENDBRANCH  14  16
ENDBRANCH   7  14
BRANCH   1  23
HETATM   23  C2  UNL     1      18.939  -1.115  53.432  1.00  0.00    -0.008 C 
HETATM   24  C1  UNL     1      18.204  -2.196  53.592  1.00  0.00     0.011 C 
ENDBRANCH   1  23
TORSDOF 5
ENDMDL
MODEL 8
REMARK VINA RESULT:      -6.7      1.745      4.006
REMARK  5 active torsions:
REMARK  status: ('A' for Active; 'I' for Inactive)
REMARK    1  A    between atoms: C2_2  and  C3_3 
REMARK    2  A    between atoms: C8_9  and  N2_10 
REMARK    3  A    between atoms: N2_10  and  C9_11 
REMARK    4  A    between atoms: C9_11  and  C10_12 
REMARK    5  A    between atoms: C12_15  and  C13_16 
ROOT
HETATM    1  C3  UNL     1      26.520   4.364  49.237  1.00  0.00     0.032 C 
HETATM    2  C4  UNL     1      25.991   3.977  50.389  1.00  0.00     0.057 C 
HETATM    3  C5  UNL     1      24.999   4.772  51.125  1.00  0.00     0.084 C 
HETATM    4  C6  UNL     1      23.608   4.234  51.081  1.00  0.00     0.126 C 
HETATM    5  N1  UNL     1      23.441   2.937  51.661  1.00  0.00    -0.383 N 
HETATM    6  C7  UNL     1      24.376   1.912  51.971  1.00  0.00     0.128 A 
HETATM    7  C8  UNL     1      23.784   0.931  52.732  1.00  0.00     0.160 A 
HETATM    8  N3  UNL     1      24.549  -0.103  53.097  1.00  0.00    -0.222 NA
HETATM    9  C14 UNL     1      25.841  -0.220  52.759  1.00  0.00     0.238 A 
HETATM   10  N4  UNL     1      26.398   0.754  52.014  1.00  0.00    -0.215 NA
HETATM   11  C15 UNL     1      25.728   1.832  51.593  1.00  0.00     0.201 A 
HETATM   12  O1  UNL     1      26.479   2.729  50.832  1.00  0.00    -0.294 OA
HETATM   13  H9  UNL     1      22.442   2.735  51.881  1.00  0.00     0.159 HD
ENDROOT
BRANCH   7  14
HETATM   14  N2  UNL     1      22.437   0.929  53.162  1.00  0.00    -0.339 N 
HETATM   15  H10 UNL     1      21.780   1.439  53.771  1.00  0.00     0.167 HD
BRANCH  14  16
HETATM   16  C9  UNL     1      21.522  -0.074  52.667  1.00  0.00     0.029 C 
HETATM   17  C12 UNL     1      21.020  -0.869  53.629  1.00  0.00     0.033 C 
BRANCH  16  18
HETATM   18  C10 UNL     1      21.532   0.227  51.232  1.00  0.00     0.024 C 
HETATM   19  C11 UNL     1      20.866   0.606  50.162  1.00  0.00     0.261 C 
HETATM   20 CL1  UNL     1      19.145   0.993  50.213  1.00  0.00    -0.251 Cl
ENDBRANCH  16  18
BRANCH  17  21
HETATM   21  C13 UNL     1      21.531  -0.521  54.957  1.00  0.00     0.252 C 
HETATM   22  F1  UNL     1      22.624  -1.300  55.346  1.00  0.00    -0.251 F 
ENDBRANCH  17  21
ENDBRANCH  14  16
ENDBRANCH   7  14
BRANCH   1  23
HETATM   23  C2  UNL     1      26.148   5.626  48.606  1.00  0.00    -0.008 C 
HETATM   24  C1  UNL     1      27.034   6.577  48.392  1.00  0.00     0.011 C 
ENDBRANCH   1  23
TORSDOF 5
ENDMDL
MODEL 9
REMARK VINA RESULT:      -6.6      2.441      3.677
REMARK  5 active torsions:
REMARK  status: ('A' for Active; 'I' for Inactive)
REMARK    1  A    between atoms: C2_2  and  C3_3 
REMARK    2  A    between atoms: C8_9  and  N2_10 
REMARK    3  A    between atoms: N2_10  and  C9_11 
REMARK    4  A    between atoms: C9_11  and  C10_12 
REMARK    5  A    between atoms: C12_15  and  C13_16 
ROOT
HETATM    1  C3  UNL     1      27.434  -0.987  53.434  1.00  0.00     0.032 C 
HETATM    2  C4  UNL     1      26.427  -0.174  53.717  1.00  0.00     0.057 C 
HETATM    3  C5  UNL     1      26.610   1.239  54.071  1.00  0.00     0.084 C 
HETATM    4  C6  UNL     1      26.206   2.207  53.009  1.00  0.00     0.126 C 
HETATM    5  N1  UNL     1      24.823   2.167  52.646  1.00  0.00    -0.383 N 
HETATM    6  C7  UNL     1      23.822   1.177  52.842  1.00  0.00     0.128 A 
HETATM    7  C8  UNL     1      22.579   1.676  52.529  1.00  0.00     0.160 A 
HETATM    8  N3  UNL     1      21.537   0.849  52.664  1.00  0.00    -0.222 NA
HETATM    9  C14 UNL     1      21.652  -0.419  53.084  1.00  0.00     0.238 A 
HETATM   10  N4  UNL     1      22.879  -0.884  53.386  1.00  0.00    -0.215 NA
HETATM   11  C15 UNL     1      23.991  -0.146  53.287  1.00  0.00     0.201 A 
HETATM   12  O1  UNL     1      25.166  -0.807  53.645  1.00  0.00    -0.294 OA
HETATM   13  H9  UNL     1      24.527   3.033  52.146  1.00  0.00     0.159 HD
ENDROOT
BRANCH   7  14
HETATM   14  N2  UNL     1      22.314   2.990  52.080  1.00  0.00    -0.339 N 
HETATM   15  H10 UNL     1      21.989   3.911  52.413  1.00  0.00     0.167 HD
BRANCH  14  16
HETATM   16  C9  UNL     1      22.521   3.336  50.692  1.00  0.00     0.029 C 
HETATM   17  C12 UNL     1      23.136   4.518  50.515  1.00  0.00     0.033 C 
BRANCH  16  18
HETATM   18  C10 UNL     1      21.934   2.169  50.026  1.00  0.00     0.024 C 
HETATM   19  C11 UNL     1      21.785   1.464  48.925  1.00  0.00     0.261 C 
HETATM   20 CL1  UNL     1      22.544   1.927  47.402  1.00  0.00    -0.251 Cl
ENDBRANCH  16  18
BRANCH  17  21
HETATM   21  C13 UNL     1      23.449   5.175  51.787  1.00  0.00     0.252 C 
HETATM   22  F1  UNL     1      23.488   6.568  51.689  1.00  0.00    -0.251 F 
ENDBRANCH  17  21
ENDBRANCH  14  16
ENDBRANCH   7  14
BRANCH   1  23
HETATM   23  C2  UNL     1      28.819  -0.529  53.451  1.00  0.00    -0.008 C 
HETATM   24  C1  UNL     1      29.824  -1.376  53.537  1.00  0.00     0.011 C 
ENDBRANCH   1  23
TORSDOF 5
ENDMDL
