MODEL 1
REMARK VINA RESULT:      -8.4      0.000      0.000
REMARK  3 active torsions:
REMARK  status: ('A' for Active; 'I' for Inactive)
REMARK    1  A    between atoms: C2_2  and  C4_4 
REMARK    2  A    between atoms: C5_5  and  O1_6 
REMARK    3  A    between atoms: C6_7  and  C7_8 
ROOT
HETATM    1  C4  UNL     1      24.728  -0.178  53.368  1.00  0.00    -0.043 C 
HETATM    2  C5  UNL     1      25.992  -0.592  53.258  1.00  0.00     0.051 C 
HETATM    3  C6  UNL     1      26.937   0.368  52.703  1.00  0.00     0.050 C 
HETATM    4  C10 UNL     1      26.393   1.209  51.590  1.00  0.00     0.048 C 
HETATM    5  C11 UNL     1      25.024   1.678  51.814  1.00  0.00    -0.050 C 
HETATM    6  C12 UNL     1      24.486   2.562  50.991  1.00  0.00     0.043 C 
HETATM    7  N1  UNL     1      23.136   3.078  51.143  1.00  0.00    -0.310 N 
HETATM    8  C13 UNL     1      23.078   4.411  50.580  1.00  0.00     0.327 C 
HETATM    9  O2  UNL     1      22.058   5.186  50.528  1.00  0.00    -0.246 OA
HETATM   10  N2  UNL     1      24.403   4.713  50.082  1.00  0.00    -0.296 N 
HETATM   11  C14 UNL     1      25.112   5.936  49.945  1.00  0.00     0.097 A 
HETATM   12  C15 UNL     1      26.381   5.795  49.521  1.00  0.00     0.017 A 
HETATM   13  C16 UNL     1      26.922   4.471  49.233  1.00  0.00    -0.000 A 
HETATM   14  C17 UNL     1      26.201   3.352  49.360  1.00  0.00     0.005 A 
HETATM   15  C18 UNL     1      24.805   3.331  49.791  1.00  0.00     0.167 A 
HETATM   16  C19 UNL     1      24.257   1.151  52.971  1.00  0.00     0.073 C 
HETATM   17  H19 UNL     1      22.281   2.607  51.590  1.00  0.00     0.170 HD
ENDROOT
BRANCH   3  18
HETATM   18  C7  UNL     1      27.523   1.303  53.758  1.00  0.00    -0.012 C 
HETATM   19  C8  UNL     1      28.360   2.375  53.113  1.00  0.00     0.010 C 
HETATM   20  C9  UNL     1      28.371   0.548  54.740  1.00  0.00     0.010 C 
ENDBRANCH   3  18
BRANCH   1  21
HETATM   21  C2  UNL     1      23.726  -1.123  53.930  1.00  0.00     0.009 C 
HETATM   22  C1  UNL     1      23.821  -1.002  55.435  1.00  0.00     0.014 C 
HETATM   23  C3  UNL     1      22.320  -0.836  53.515  1.00  0.00     0.014 C 
ENDBRANCH   1  21
BRANCH   2  24
HETATM   24  O1  UNL     1      26.411  -1.870  53.648  1.00  0.00    -0.364 OA
HETATM   25  H8  UNL     1      25.843  -2.484  54.201  1.00  0.00     0.217 HD
ENDBRANCH   2  24
TORSDOF 3
ENDMDL
MODEL 2
REMARK VINA RESULT:      -8.2      2.714      5.886
REMARK  3 active torsions:
REMARK  status: ('A' for Active; 'I' for Inactive)
REMARK    1  A    between atoms: C2_2  and  C4_4 
REMARK    2  A    between atoms: C5_5  and  O1_6 
REMARK    3  A    between atoms: C6_7  and  C7_8 
ROOT
HETATM    1  C4  UNL     1      26.336   1.924  52.341  1.00  0.00    -0.043 C 
HETATM    2  C5  UNL     1      26.125   2.750  51.315  1.00  0.00     0.051 C 
HETATM    3  C6  UNL     1      24.733   3.032  50.992  1.00  0.00     0.050 C 
HETATM    4  C10 UNL     1      23.810   1.861  51.129  1.00  0.00     0.048 C 
HETATM    5  C11 UNL     1      24.063   1.040  52.315  1.00  0.00    -0.050 C 
HETATM    6  C12 UNL     1      23.220   0.076  52.643  1.00  0.00     0.043 C 
HETATM    7  N1  UNL     1      23.398  -0.782  53.802  1.00  0.00    -0.310 N 
HETATM    8  C13 UNL     1      22.098  -1.222  54.264  1.00  0.00     0.327 C 
HETATM    9  O2  UNL     1      21.849  -1.988  55.261  1.00  0.00    -0.246 OA
HETATM   10  N2  UNL     1      21.117  -0.627  53.382  1.00  0.00    -0.296 N 
HETATM   11  C14 UNL     1      19.772  -0.221  53.589  1.00  0.00     0.097 A 
HETATM   12  C15 UNL     1      19.208   0.387  52.530  1.00  0.00     0.017 A 
HETATM   13  C16 UNL     1      19.963   0.576  51.296  1.00  0.00    -0.000 A 
HETATM   14  C17 UNL     1      21.224   0.154  51.148  1.00  0.00     0.005 A 
HETATM   15  C18 UNL     1      21.975  -0.540  52.192  1.00  0.00     0.167 A 
HETATM   16  C19 UNL     1      25.272   1.305  53.135  1.00  0.00     0.073 C 
HETATM   17  H19 UNL     1      24.308  -1.077  54.289  1.00  0.00     0.170 HD
ENDROOT
BRANCH   3  18
HETATM   18  C7  UNL     1      24.156   4.186  51.807  1.00  0.00    -0.012 C 
HETATM   19  C8  UNL     1      22.699   3.951  52.103  1.00  0.00     0.010 C 
HETATM   20  C9  UNL     1      24.300   5.490  51.078  1.00  0.00     0.010 C 
ENDBRANCH   3  18
BRANCH   1  21
HETATM   21  C2  UNL     1      27.742   1.606  52.710  1.00  0.00     0.009 C 
HETATM   22  C1  UNL     1      28.104   2.530  53.852  1.00  0.00     0.014 C 
HETATM   23  C3  UNL     1      27.950   0.194  53.152  1.00  0.00     0.014 C 
ENDBRANCH   1  21
BRANCH   2  24
HETATM   24  O1  UNL     1      27.166   3.326  50.575  1.00  0.00    -0.364 OA
HETATM   25  H8  UNL     1      28.119   3.028  50.655  1.00  0.00     0.217 HD
ENDBRANCH   2  24
TORSDOF 3
ENDMDL
MODEL 3
REMARK VINA RESULT:      -7.9      1.653      3.877
REMARK  3 active torsions:
REMARK  status: ('A' for Active; 'I' for Inactive)
REMARK    1  A    between atoms: C2_2  and  C4_4 
REMARK    2  A    between atoms: C5_5  and  O1_6 
REMARK    3  A    between atoms: C6_7  and  C7_8 
ROOT
HETATM    1  C4  UNL     1      25.865  -0.113  53.236  1.00  0.00    -0.043 C 
HETATM    2  C5  UNL     1      24.853  -0.394  54.059  1.00  0.00     0.051 C 
HETATM    3  C6  UNL     1      23.589   0.272  53.774  1.00  0.00     0.050 C 
HETATM    4  C10 UNL     1      23.720   1.690  53.310  1.00  0.00     0.048 C 
HETATM    5  C11 UNL     1      24.813   1.905  52.359  1.00  0.00    -0.050 C 
HETATM    6  C12 UNL     1      24.935   3.071  51.746  1.00  0.00     0.043 C 
HETATM    7  N1  UNL     1      25.989   3.364  50.790  1.00  0.00    -0.310 N 
HETATM    8  C13 UNL     1      25.508   4.356  49.852  1.00  0.00     0.327 C 
HETATM    9  O2  UNL     1      26.149   4.866  48.866  1.00  0.00    -0.246 OA
HETATM   10  N2  UNL     1      24.148   4.670  50.235  1.00  0.00    -0.296 N 
HETATM   11  C14 UNL     1      23.018   5.088  49.482  1.00  0.00     0.097 A 
HETATM   12  C15 UNL     1      21.884   5.190  50.197  1.00  0.00     0.017 A 
HETATM   13  C16 UNL     1      21.879   4.892  51.625  1.00  0.00    -0.000 A 
HETATM   14  C17 UNL     1      22.979   4.521  52.290  1.00  0.00     0.005 A 
HETATM   15  C18 UNL     1      24.294   4.380  51.668  1.00  0.00     0.167 A 
HETATM   16  C19 UNL     1      25.773   0.804  52.097  1.00  0.00     0.073 C 
HETATM   17  H19 UNL     1      26.978   2.951  50.729  1.00  0.00     0.170 HD
ENDROOT
BRANCH   3  18
HETATM   18  C7  UNL     1      22.736  -0.481  52.757  1.00  0.00    -0.012 C 
HETATM   19  C8  UNL     1      21.850   0.471  51.998  1.00  0.00     0.010 C 
HETATM   20  C9  UNL     1      21.878  -1.514  53.427  1.00  0.00     0.010 C 
ENDBRANCH   3  18
BRANCH   1  21
HETATM   21  C2  UNL     1      27.177  -0.769  53.486  1.00  0.00     0.009 C 
HETATM   22  C1  UNL     1      27.245  -1.958  52.552  1.00  0.00     0.014 C 
HETATM   23  C3  UNL     1      28.356   0.110  53.227  1.00  0.00     0.014 C 
ENDBRANCH   1  21
BRANCH   2  24
HETATM   24  O1  UNL     1      24.973  -1.276  55.140  1.00  0.00    -0.364 OA
HETATM   25  H8  UNL     1      24.440  -1.178  55.983  1.00  0.00     0.217 HD
ENDBRANCH   2  24
TORSDOF 3
ENDMDL
MODEL 4
REMARK VINA RESULT:      -7.9      2.060      6.877
REMARK  3 active torsions:
REMARK  status: ('A' for Active; 'I' for Inactive)
REMARK    1  A    between atoms: C2_2  and  C4_4 
REMARK    2  A    between atoms: C5_5  and  O1_6 
REMARK    3  A    between atoms: C6_7  and  C7_8 
ROOT
HETATM    1  C4  UNL     1      24.369   3.510  50.239  1.00  0.00    -0.043 C 
HETATM    2  C5  UNL     1      23.113   3.503  49.790  1.00  0.00     0.051 C 
HETATM    3  C6  UNL     1      22.141   2.788  50.606  1.00  0.00     0.050 C 
HETATM    4  C10 UNL     1      22.654   1.523  51.223  1.00  0.00     0.048 C 
HETATM    5  C11 UNL     1      24.015   1.629  51.752  1.00  0.00    -0.050 C 
HETATM    6  C12 UNL     1      24.525   0.640  52.467  1.00  0.00     0.043 C 
HETATM    7  N1  UNL     1      25.865   0.667  53.027  1.00  0.00    -0.310 N 
HETATM    8  C13 UNL     1      25.889  -0.146  54.225  1.00  0.00     0.327 C 
HETATM    9  O2  UNL     1      26.891  -0.364  54.993  1.00  0.00    -0.246 OA
HETATM   10  N2  UNL     1      24.552  -0.671  54.401  1.00  0.00    -0.296 N 
HETATM   11  C14 UNL     1      23.815  -1.032  55.561  1.00  0.00     0.097 A 
HETATM   12  C15 UNL     1      22.545  -1.400  55.316  1.00  0.00     0.017 A 
HETATM   13  C16 UNL     1      22.027  -1.416  53.953  1.00  0.00    -0.000 A 
HETATM   14  C17 UNL     1      22.773  -1.085  52.892  1.00  0.00     0.005 A 
HETATM   15  C18 UNL     1      24.174  -0.681  52.981  1.00  0.00     0.167 A 
HETATM   16  C19 UNL     1      24.808   2.853  51.474  1.00  0.00     0.073 C 
HETATM   17  H19 UNL     1      26.735   1.183  52.668  1.00  0.00     0.170 HD
ENDROOT
BRANCH   3  18
HETATM   18  C7  UNL     1      21.550   3.650  51.718  1.00  0.00    -0.012 C 
HETATM   19  C8  UNL     1      20.456   2.909  52.440  1.00  0.00     0.010 C 
HETATM   20  C9  UNL     1      20.990   4.930  51.171  1.00  0.00     0.010 C 
ENDBRANCH   3  18
BRANCH   1  21
HETATM   21  C2  UNL     1      25.398   4.228  49.440  1.00  0.00     0.009 C 
HETATM   22  C1  UNL     1      25.474   5.631  50.003  1.00  0.00     0.014 C 
HETATM   23  C3  UNL     1      26.757   3.613  49.505  1.00  0.00     0.014 C 
ENDBRANCH   1  21
BRANCH   2  24
HETATM   24  O1  UNL     1      22.725   4.141  48.605  1.00  0.00    -0.364 OA
HETATM   25  H8  UNL     1      22.357   3.645  47.815  1.00  0.00     0.217 HD
ENDBRANCH   2  24
TORSDOF 3
ENDMDL
MODEL 5
REMARK VINA RESULT:      -7.8      2.229      6.629
REMARK  3 active torsions:
REMARK  status: ('A' for Active; 'I' for Inactive)
REMARK    1  A    between atoms: C2_2  and  C4_4 
REMARK    2  A    between atoms: C5_5  and  O1_6 
REMARK    3  A    between atoms: C6_7  and  C7_8 
ROOT
HETATM    1  C4  UNL     1      24.552   4.542  49.625  1.00  0.00    -0.043 C 
HETATM    2  C5  UNL     1      23.429   3.916  49.271  1.00  0.00     0.051 C 
HETATM    3  C6  UNL     1      22.979   2.850  50.156  1.00  0.00     0.050 C 
HETATM    4  C10 UNL     1      24.078   2.011  50.731  1.00  0.00     0.048 C 
HETATM    5  C11 UNL     1      25.251   2.778  51.157  1.00  0.00    -0.050 C 
HETATM    6  C12 UNL     1      26.220   2.182  51.831  1.00  0.00     0.043 C 
HETATM    7  N1  UNL     1      27.415   2.870  52.289  1.00  0.00    -0.310 N 
HETATM    8  C13 UNL     1      27.907   2.212  53.482  1.00  0.00     0.327 C 
HETATM    9  O2  UNL     1      28.938   2.530  54.172  1.00  0.00    -0.246 OA
HETATM   10  N2  UNL     1      27.005   1.114  53.756  1.00  0.00    -0.296 N 
HETATM   11  C14 UNL     1      26.612   0.484  54.967  1.00  0.00     0.097 A 
HETATM   12  C15 UNL     1      25.664  -0.458  54.818  1.00  0.00     0.017 A 
HETATM   13  C16 UNL     1      25.130  -0.769  53.497  1.00  0.00    -0.000 A 
HETATM   14  C17 UNL     1      25.551  -0.157  52.384  1.00  0.00     0.005 A 
HETATM   15  C18 UNL     1      26.586   0.874  52.368  1.00  0.00     0.167 A 
HETATM   16  C19 UNL     1      25.334   4.222  50.822  1.00  0.00     0.073 C 
HETATM   17  H19 UNL     1      27.902   3.729  51.867  1.00  0.00     0.170 HD
ENDROOT
BRANCH   3  18
HETATM   18  C7  UNL     1      22.120   3.359  51.310  1.00  0.00    -0.012 C 
HETATM   19  C8  UNL     1      21.850   2.256  52.299  1.00  0.00     0.010 C 
HETATM   20  C9  UNL     1      20.810   3.898  50.814  1.00  0.00     0.010 C 
ENDBRANCH   3  18
BRANCH   1  21
HETATM   21  C2  UNL     1      25.051   5.639  48.752  1.00  0.00     0.009 C 
HETATM   22  C1  UNL     1      24.517   6.928  49.338  1.00  0.00     0.014 C 
HETATM   23  C3  UNL     1      26.540   5.728  48.679  1.00  0.00     0.014 C 
ENDBRANCH   1  21
BRANCH   2  24
HETATM   24  O1  UNL     1      22.704   4.247  48.118  1.00  0.00    -0.364 OA
HETATM   25  H8  UNL     1      22.336   3.558  47.491  1.00  0.00     0.217 HD
ENDBRANCH   2  24
TORSDOF 3
ENDMDL
MODEL 6
REMARK VINA RESULT:      -7.4      3.040      5.550
REMARK  3 active torsions:
REMARK  status: ('A' for Active; 'I' for Inactive)
REMARK    1  A    between atoms: C2_2  and  C4_4 
REMARK    2  A    between atoms: C5_5  and  O1_6 
REMARK    3  A    between atoms: C6_7  and  C7_8 
ROOT
HETATM    1  C4  UNL     1      25.749   2.305  51.717  1.00  0.00    -0.043 C 
HETATM    2  C5  UNL     1      25.904   3.139  50.688  1.00  0.00     0.051 C 
HETATM    3  C6  UNL     1      24.681   3.642  50.076  1.00  0.00     0.050 C 
HETATM    4  C10 UNL     1      23.572   2.639  49.983  1.00  0.00     0.048 C 
HETATM    5  C11 UNL     1      23.423   1.804  51.177  1.00  0.00    -0.050 C 
HETATM    6  C12 UNL     1      22.383   0.996  51.292  1.00  0.00     0.043 C 
HETATM    7  N1  UNL     1      22.162   0.137  52.442  1.00  0.00    -0.310 N 
HETATM    8  C13 UNL     1      20.739  -0.078  52.599  1.00  0.00     0.327 C 
HETATM    9  O2  UNL     1      20.156  -0.780  53.500  1.00  0.00    -0.246 OA
HETATM   10  N2  UNL     1      20.084   0.657  51.538  1.00  0.00    -0.296 N 
HETATM   11  C14 UNL     1      18.811   1.281  51.457  1.00  0.00     0.097 A 
HETATM   12  C15 UNL     1      18.598   1.959  50.315  1.00  0.00     0.017 A 
HETATM   13  C16 UNL     1      19.625   2.004  49.279  1.00  0.00    -0.000 A 
HETATM   14  C17 UNL     1      20.802   1.380  49.400  1.00  0.00     0.005 A 
HETATM   15  C18 UNL     1      21.183   0.587  50.566  1.00  0.00     0.167 A 
HETATM   16  C19 UNL     1      24.450   1.879  52.246  1.00  0.00     0.073 C 
HETATM   17  H19 UNL     1      22.883  -0.297  53.108  1.00  0.00     0.170 HD
ENDROOT
BRANCH   3  18
HETATM   18  C7  UNL     1      24.136   4.885  50.773  1.00  0.00    -0.012 C 
HETATM   19  C8  UNL     1      22.685   5.094  50.429  1.00  0.00     0.010 C 
HETATM   20  C9  UNL     1      24.910   6.110  50.380  1.00  0.00     0.010 C 
ENDBRANCH   3  18
BRANCH   1  21
HETATM   21  C2  UNL     1      26.969   1.765  52.376  1.00  0.00     0.009 C 
HETATM   22  C1  UNL     1      26.881   2.165  53.833  1.00  0.00     0.014 C 
HETATM   23  C3  UNL     1      27.097   0.279  52.294  1.00  0.00     0.014 C 
ENDBRANCH   1  21
BRANCH   2  24
HETATM   24  O1  UNL     1      27.161   3.527  50.206  1.00  0.00    -0.364 OA
HETATM   25  H8  UNL     1      27.953   3.666  50.804  1.00  0.00     0.217 HD
ENDBRANCH   2  24
TORSDOF 3
ENDMDL
MODEL 7
REMARK VINA RESULT:      -7.3      2.252      4.330
REMARK  3 active torsions:
REMARK  status: ('A' for Active; 'I' for Inactive)
REMARK    1  A    between atoms: C2_2  and  C4_4 
REMARK    2  A    between atoms: C5_5  and  O1_6 
REMARK    3  A    between atoms: C6_7  and  C7_8 
ROOT
HETATM    1  C4  UNL     1      24.887   1.340  52.381  1.00  0.00    -0.043 C 
HETATM    2  C5  UNL     1      23.622   1.188  52.777  1.00  0.00     0.051 C 
HETATM    3  C6  UNL     1      22.624   1.971  52.060  1.00  0.00     0.050 C 
HETATM    4  C10 UNL     1      23.064   3.354  51.689  1.00  0.00     0.048 C 
HETATM    5  C11 UNL     1      24.443   3.428  51.201  1.00  0.00    -0.050 C 
HETATM    6  C12 UNL     1      24.901   4.557  50.686  1.00  0.00     0.043 C 
HETATM    7  N1  UNL     1      26.254   4.713  50.181  1.00  0.00    -0.310 N 
HETATM    8  C13 UNL     1      26.252   5.721  49.141  1.00  0.00     0.327 C 
HETATM    9  O2  UNL     1      27.256   6.133  48.460  1.00  0.00    -0.246 OA
HETATM   10  N2  UNL     1      24.886   6.183  49.008  1.00  0.00    -0.296 N 
HETATM   11  C14 UNL     1      24.157   6.692  47.900  1.00  0.00     0.097 A 
HETATM   12  C15 UNL     1      22.858   6.930  48.156  1.00  0.00     0.017 A 
HETATM   13  C16 UNL     1      22.305   6.675  49.482  1.00  0.00    -0.000 A 
HETATM   14  C17 UNL     1      23.044   6.214  50.497  1.00  0.00     0.005 A 
HETATM   15  C18 UNL     1      24.473   5.922  50.393  1.00  0.00     0.167 A 
HETATM   16  C19 UNL     1      25.311   2.227  51.295  1.00  0.00     0.073 C 
HETATM   17  H19 UNL     1      27.148   4.200  50.478  1.00  0.00     0.170 HD
ENDROOT
BRANCH   3  18
HETATM   18  C7  UNL     1      22.124   1.279  50.796  1.00  0.00    -0.012 C 
HETATM   19  C8  UNL     1      21.410   2.257  49.901  1.00  0.00     0.010 C 
HETATM   20  C9  UNL     1      21.188   0.153  51.128  1.00  0.00     0.010 C 
ENDBRANCH   3  18
BRANCH   1  21
HETATM   21  C2  UNL     1      25.942   0.561  53.083  1.00  0.00     0.009 C 
HETATM   22  C1  UNL     1      26.640  -0.264  52.024  1.00  0.00     0.014 C 
HETATM   23  C3  UNL     1      26.959   1.405  53.779  1.00  0.00     0.014 C 
ENDBRANCH   1  21
BRANCH   2  24
HETATM   24  O1  UNL     1      23.249   0.331  53.820  1.00  0.00    -0.364 OA
HETATM   25  H8  UNL     1      23.497  -0.640  53.841  1.00  0.00     0.217 HD
ENDBRANCH   2  24
TORSDOF 3
ENDMDL
MODEL 8
REMARK VINA RESULT:      -7.3      2.529      5.593
REMARK  3 active torsions:
REMARK  status: ('A' for Active; 'I' for Inactive)
REMARK    1  A    between atoms: C2_2  and  C4_4 
REMARK    2  A    between atoms: C5_5  and  O1_6 
REMARK    3  A    between atoms: C6_7  and  C7_8 
ROOT
HETATM    1  C4  UNL     1      25.336   2.903  51.085  1.00  0.00    -0.043 C 
HETATM    2  C5  UNL     1      26.000   2.465  52.157  1.00  0.00     0.051 C 
HETATM    3  C6  UNL     1      25.333   1.443  52.953  1.00  0.00     0.050 C 
HETATM    4  C10 UNL     1      23.853   1.627  53.093  1.00  0.00     0.048 C 
HETATM    5  C11 UNL     1      23.187   2.046  51.857  1.00  0.00    -0.050 C 
HETATM    6  C12 UNL     1      21.866   2.083  51.799  1.00  0.00     0.043 C 
HETATM    7  N1  UNL     1      21.130   2.485  50.613  1.00  0.00    -0.310 N 
HETATM    8  C13 UNL     1      19.845   1.818  50.611  1.00  0.00     0.327 C 
HETATM    9  O2  UNL     1      18.920   1.921  49.730  1.00  0.00    -0.246 OA
HETATM   10  N2  UNL     1      19.796   0.999  51.804  1.00  0.00    -0.296 N 
HETATM   11  C14 UNL     1      19.135  -0.225  52.092  1.00  0.00     0.097 A 
HETATM   12  C15 UNL     1      19.414  -0.731  53.307  1.00  0.00     0.017 A 
HETATM   13  C16 UNL     1      20.320  -0.031  54.210  1.00  0.00    -0.000 A 
HETATM   14  C17 UNL     1      20.901   1.132  53.895  1.00  0.00     0.005 A 
HETATM   15  C18 UNL     1      20.690   1.825  52.626  1.00  0.00     0.167 A 
HETATM   16  C19 UNL     1      24.011   2.424  50.682  1.00  0.00     0.073 C 
HETATM   17  H19 UNL     1      21.428   3.155  49.830  1.00  0.00     0.170 HD
ENDROOT
BRANCH   3  18
HETATM   18  C7  UNL     1      25.587   0.029  52.439  1.00  0.00    -0.012 C 
HETATM   19  C8  UNL     1      24.837  -0.980  53.267  1.00  0.00     0.010 C 
HETATM   20  C9  UNL     1      27.050  -0.305  52.473  1.00  0.00     0.010 C 
ENDBRANCH   3  18
BRANCH   1  21
HETATM   21  C2  UNL     1      25.976   3.946  50.239  1.00  0.00     0.009 C 
HETATM   22  C1  UNL     1      26.791   3.211  49.197  1.00  0.00     0.014 C 
HETATM   23  C3  UNL     1      25.007   4.843  49.542  1.00  0.00     0.014 C 
ENDBRANCH   1  21
BRANCH   2  24
HETATM   24  O1  UNL     1      27.266   2.943  52.515  1.00  0.00    -0.364 OA
HETATM   25  H8  UNL     1      27.539   3.901  52.399  1.00  0.00     0.217 HD
ENDBRANCH   2  24
TORSDOF 3
ENDMDL
MODEL 9
REMARK VINA RESULT:      -7.2      8.149     11.358
REMARK  3 active torsions:
REMARK  status: ('A' for Active; 'I' for Inactive)
REMARK    1  A    between atoms: C2_2  and  C4_4 
REMARK    2  A    between atoms: C5_5  and  O1_6 
REMARK    3  A    between atoms: C6_7  and  C7_8 
ROOT
HETATM    1  C4  UNL     1      30.679   9.523  47.692  1.00  0.00    -0.043 C 
HETATM    2  C5  UNL     1      29.629   9.003  47.054  1.00  0.00     0.051 C 
HETATM    3  C6  UNL     1      29.622   7.554  46.899  1.00  0.00     0.050 C 
HETATM    4  C10 UNL     1      30.963   6.951  46.615  1.00  0.00     0.048 C 
HETATM    5  C11 UNL     1      32.054   7.529  47.402  1.00  0.00    -0.050 C 
HETATM    6  C12 UNL     1      33.256   6.977  47.371  1.00  0.00     0.043 C 
HETATM    7  N1  UNL     1      34.390   7.488  48.121  1.00  0.00    -0.310 N 
HETATM    8  C13 UNL     1      35.286   6.391  48.421  1.00  0.00     0.327 C 
HETATM    9  O2  UNL     1      36.391   6.449  49.067  1.00  0.00    -0.246 OA
HETATM   10  N2  UNL     1      34.694   5.199  47.852  1.00  0.00    -0.296 N 
HETATM   11  C14 UNL     1      34.751   3.832  48.234  1.00  0.00     0.097 A 
HETATM   12  C15 UNL     1      33.976   3.019  47.495  1.00  0.00     0.017 A 
HETATM   13  C16 UNL     1      33.175   3.553  46.399  1.00  0.00    -0.000 A 
HETATM   14  C17 UNL     1      33.174   4.850  46.069  1.00  0.00     0.005 A 
HETATM   15  C18 UNL     1      33.972   5.862  46.757  1.00  0.00     0.167 A 
HETATM   16  C19 UNL     1      31.793   8.735  48.228  1.00  0.00     0.073 C 
HETATM   17  H19 UNL     1      34.591   8.494  48.436  1.00  0.00     0.170 HD
ENDROOT
BRANCH   3  18
HETATM   18  C7  UNL     1      29.023   6.831  48.101  1.00  0.00    -0.012 C 
HETATM   19  C8  UNL     1      29.430   5.382  48.107  1.00  0.00     0.010 C 
HETATM   20  C9  UNL     1      27.525   6.915  48.093  1.00  0.00     0.010 C 
ENDBRANCH   3  18
BRANCH   1  21
HETATM   21  C2  UNL     1      30.731  10.998  47.875  1.00  0.00     0.009 C 
HETATM   22  C1  UNL     1      30.629  11.248  49.365  1.00  0.00     0.014 C 
HETATM   23  C3  UNL     1      31.986  11.630  47.370  1.00  0.00     0.014 C 
ENDBRANCH   1  21
BRANCH   2  24
HETATM   24  O1  UNL     1      28.580   9.785  46.553  1.00  0.00    -0.364 OA
HETATM   25  H8  UNL     1      28.500  10.033  45.585  1.00  0.00     0.217 HD
ENDBRANCH   2  24
TORSDOF 3
ENDMDL
