MODEL 1
REMARK VINA RESULT:      -8.0      0.000      0.000
REMARK  8 active torsions:
REMARK  status: ('A' for Active; 'I' for Inactive)
REMARK    1  A    between atoms: O1_2  and  C2_3 
REMARK    2  A    between atoms: C6_8  and  N2_9 
REMARK    3  A    between atoms: N2_9  and  C7_10 
REMARK    4  A    between atoms: C15_20  and  O2_21 
REMARK    5  A    between atoms: O2_21  and  C16_22 
REMARK    6  A    between atoms: C16_22  and  C17_23 
REMARK    7  A    between atoms: C17_23  and  C18_24 
REMARK    8  A    between atoms: C18_24  and  N3_25 
ROOT
HETATM    1  C2  UNL     1      22.082   1.222  50.946  1.00  0.00     0.114 A 
HETATM    2  C3  UNL     1      22.252   2.163  50.048  1.00  0.00     0.029 A 
HETATM    3  C4  UNL     1      21.683   2.499  48.756  1.00  0.00     0.126 A 
HETATM    4  N1  UNL     1      22.040   3.518  48.053  1.00  0.00    -0.295 NA
HETATM    5  C5  UNL     1      23.058   4.456  48.469  1.00  0.00     0.206 A 
HETATM    6  C6  UNL     1      23.616   4.081  49.792  1.00  0.00     0.041 A 
HETATM    7  C13 UNL     1      23.289   3.059  50.544  1.00  0.00     0.005 A 
HETATM    8  C14 UNL     1      23.708   2.542  51.829  1.00  0.00     0.054 A 
HETATM    9  C15 UNL     1      22.982   1.439  52.068  1.00  0.00     0.103 A 
ENDROOT
BRANCH   6  10
HETATM   10  N2  UNL     1      24.632   4.927  50.316  1.00  0.00    -0.357 N 
HETATM   11  H7  UNL     1      24.431   5.284  51.255  1.00  0.00     0.166 HD
BRANCH  10  12
HETATM   12  C7  UNL     1      25.824   5.258  49.617  1.00  0.00     0.034 A 
HETATM   13  C8  UNL     1      26.746   4.305  49.256  1.00  0.00     0.032 A 
HETATM   14  C9  UNL     1      27.873   4.716  48.581  1.00  0.00     0.046 A 
HETATM   15  C10 UNL     1      28.128   6.038  48.244  1.00  0.00     0.138 A 
HETATM   16  F1  UNL     1      29.228   6.445  47.584  1.00  0.00    -0.204 F 
HETATM   17  C11 UNL     1      27.184   7.002  48.616  1.00  0.00     0.074 A 
HETATM   18 CL1  UNL     1      27.386   8.711  48.250  1.00  0.00    -0.081 Cl
HETATM   19  C12 UNL     1      26.051   6.576  49.297  1.00  0.00     0.056 A 
ENDBRANCH  10  12
ENDBRANCH   6  10
BRANCH   1  20
HETATM   20  O1  UNL     1      21.197   0.161  50.886  1.00  0.00    -0.352 OA
HETATM   21  C1  UNL     1      19.829   0.380  51.205  1.00  0.00     0.210 C 
ENDBRANCH   1  20
BRANCH   9  22
HETATM   22  O2  UNL     1      23.202   0.753  53.252  1.00  0.00    -0.348 OA
BRANCH  22  23
HETATM   23  C16 UNL     1      23.933  -0.453  53.353  1.00  0.00     0.177 C 
BRANCH  23  24
HETATM   24  C17 UNL     1      25.265  -0.097  53.965  1.00  0.00     0.057 C 
BRANCH  24  25
HETATM   25  C18 UNL     1      26.418  -0.671  53.182  1.00  0.00     0.274 C 
BRANCH  25  26
HETATM   26  N3  UNL     1      27.404   0.315  52.803  1.00  0.00     0.092 N 
HETATM   27  C19 UNL     1      27.137   1.610  53.389  1.00  0.00     0.298 C 
HETATM   28  C20 UNL     1      28.451   2.327  53.617  1.00  0.00     0.198 C 
HETATM   29  O3  UNL     1      29.065   1.729  54.722  1.00  0.00    -0.388 OA
HETATM   30  C21 UNL     1      28.755   0.382  54.822  1.00  0.00     0.198 C 
HETATM   31  C22 UNL     1      28.665  -0.149  53.395  1.00  0.00     0.298 C 
ENDBRANCH  25  26
ENDBRANCH  24  25
ENDBRANCH  23  24
ENDBRANCH  22  23
ENDBRANCH   9  22
TORSDOF 8
ENDMDL
MODEL 2
REMARK VINA RESULT:      -7.9      3.466      6.290
REMARK  8 active torsions:
REMARK  status: ('A' for Active; 'I' for Inactive)
REMARK    1  A    between atoms: O1_2  and  C2_3 
REMARK    2  A    between atoms: C6_8  and  N2_9 
REMARK    3  A    between atoms: N2_9  and  C7_10 
REMARK    4  A    between atoms: C15_20  and  O2_21 
REMARK    5  A    between atoms: O2_21  and  C16_22 
REMARK    6  A    between atoms: C16_22  and  C17_23 
REMARK    7  A    between atoms: C17_23  and  C18_24 
REMARK    8  A    between atoms: C18_24  and  N3_25 
ROOT
HETATM    1  C2  UNL     1      20.914   2.083  52.516  1.00  0.00     0.114 A 
HETATM    2  C3  UNL     1      21.372   1.107  53.264  1.00  0.00     0.029 A 
HETATM    3  C4  UNL     1      20.913   0.367  54.425  1.00  0.00     0.126 A 
HETATM    4  N1  UNL     1      21.581  -0.581  54.987  1.00  0.00    -0.295 NA
HETATM    5  C5  UNL     1      22.877  -1.024  54.526  1.00  0.00     0.206 A 
HETATM    6  C6  UNL     1      23.313  -0.247  53.340  1.00  0.00     0.041 A 
HETATM    7  C13 UNL     1      22.674   0.723  52.733  1.00  0.00     0.005 A 
HETATM    8  C14 UNL     1      22.929   1.579  51.594  1.00  0.00     0.054 A 
HETATM    9  C15 UNL     1      21.871   2.394  51.466  1.00  0.00     0.103 A 
ENDROOT
BRANCH   6  10
HETATM   10  N2  UNL     1      24.579  -0.586  52.787  1.00  0.00    -0.357 N 
HETATM   11  H7  UNL     1      24.533  -1.299  52.052  1.00  0.00     0.166 HD
BRANCH  10  12
HETATM   12  C7  UNL     1      25.805  -0.001  53.202  1.00  0.00     0.034 A 
HETATM   13  C8  UNL     1      25.877   1.290  53.665  1.00  0.00     0.032 A 
HETATM   14  C9  UNL     1      27.109   1.774  54.046  1.00  0.00     0.046 A 
HETATM   15  C10 UNL     1      28.279   1.030  53.989  1.00  0.00     0.138 A 
HETATM   16  F1  UNL     1      29.485   1.498  54.359  1.00  0.00    -0.204 F 
HETATM   17  C11 UNL     1      28.196  -0.284  53.516  1.00  0.00     0.074 A 
HETATM   18 CL1  UNL     1      29.603  -1.334  53.394  1.00  0.00    -0.081 Cl
HETATM   19  C12 UNL     1      26.949  -0.762  53.134  1.00  0.00     0.056 A 
ENDBRANCH  10  12
ENDBRANCH   6  10
BRANCH   1  20
HETATM   20  O1  UNL     1      19.712   2.751  52.661  1.00  0.00    -0.352 OA
HETATM   21  C1  UNL     1      18.631   2.430  51.793  1.00  0.00     0.210 C 
ENDBRANCH   1  20
BRANCH   9  22
HETATM   22  O2  UNL     1      21.877   3.319  50.434  1.00  0.00    -0.348 OA
BRANCH  22  23
HETATM   23  C16 UNL     1      21.481   4.670  50.569  1.00  0.00     0.177 C 
BRANCH  23  24
HETATM   24  C17 UNL     1      22.448   5.484  49.746  1.00  0.00     0.057 C 
BRANCH  24  25
HETATM   25  C18 UNL     1      23.867   5.337  50.234  1.00  0.00     0.274 C 
BRANCH  25  26
HETATM   26  N3  UNL     1      24.805   5.008  49.184  1.00  0.00     0.092 N 
HETATM   27  C19 UNL     1      26.065   5.702  49.337  1.00  0.00     0.298 C 
HETATM   28  C20 UNL     1      27.173   4.839  48.772  1.00  0.00     0.198 C 
HETATM   29  O3  UNL     1      27.401   3.803  49.684  1.00  0.00    -0.388 OA
HETATM   30  C21 UNL     1      26.245   3.442  50.358  1.00  0.00     0.198 C 
HETATM   31  C22 UNL     1      25.100   3.581  49.361  1.00  0.00     0.298 C 
ENDBRANCH  25  26
ENDBRANCH  24  25
ENDBRANCH  23  24
ENDBRANCH  22  23
ENDBRANCH   9  22
TORSDOF 8
ENDMDL
MODEL 3
REMARK VINA RESULT:      -7.9      4.922      7.692
REMARK  8 active torsions:
REMARK  status: ('A' for Active; 'I' for Inactive)
REMARK    1  A    between atoms: O1_2  and  C2_3 
REMARK    2  A    between atoms: C6_8  and  N2_9 
REMARK    3  A    between atoms: N2_9  and  C7_10 
REMARK    4  A    between atoms: C15_20  and  O2_21 
REMARK    5  A    between atoms: O2_21  and  C16_22 
REMARK    6  A    between atoms: C16_22  and  C17_23 
REMARK    7  A    between atoms: C17_23  and  C18_24 
REMARK    8  A    between atoms: C18_24  and  N3_25 
ROOT
HETATM    1  C2  UNL     1      26.478   6.618  49.126  1.00  0.00     0.114 A 
HETATM    2  C3  UNL     1      25.670   5.894  49.865  1.00  0.00     0.029 A 
HETATM    3  C4  UNL     1      24.472   6.126  50.652  1.00  0.00     0.126 A 
HETATM    4  N1  UNL     1      23.850   5.208  51.306  1.00  0.00    -0.295 NA
HETATM    5  C5  UNL     1      24.273   3.826  51.337  1.00  0.00     0.206 A 
HETATM    6  C6  UNL     1      25.497   3.627  50.524  1.00  0.00     0.041 A 
HETATM    7  C13 UNL     1      26.166   4.524  49.841  1.00  0.00     0.005 A 
HETATM    8  C14 UNL     1      27.350   4.523  49.009  1.00  0.00     0.054 A 
HETATM    9  C15 UNL     1      27.535   5.782  48.582  1.00  0.00     0.103 A 
ENDROOT
BRANCH   6  10
HETATM   10  N2  UNL     1      26.018   2.304  50.471  1.00  0.00    -0.357 N 
HETATM   11  H7  UNL     1      25.881   1.839  49.569  1.00  0.00     0.166 HD
BRANCH  10  12
HETATM   12  C7  UNL     1      26.674   1.670  51.561  1.00  0.00     0.034 A 
HETATM   13  C8  UNL     1      27.354   2.383  52.517  1.00  0.00     0.032 A 
HETATM   14  C9  UNL     1      27.960   1.684  53.538  1.00  0.00     0.046 A 
HETATM   15  C10 UNL     1      27.919   0.301  53.654  1.00  0.00     0.138 A 
HETATM   16  F1  UNL     1      28.509  -0.386  54.648  1.00  0.00    -0.204 F 
HETATM   17  C11 UNL     1      27.223  -0.417  52.674  1.00  0.00     0.074 A 
HETATM   18 CL1  UNL     1      27.095  -2.171  52.703  1.00  0.00    -0.081 Cl
HETATM   19  C12 UNL     1      26.617   0.298  51.649  1.00  0.00     0.056 A 
ENDBRANCH  10  12
ENDBRANCH   6  10
BRANCH   1  20
HETATM   20  O1  UNL     1      26.385   7.974  48.871  1.00  0.00    -0.352 OA
HETATM   21  C1  UNL     1      26.932   8.895  49.807  1.00  0.00     0.210 C 
ENDBRANCH   1  20
BRANCH   9  22
HETATM   22  O2  UNL     1      28.619   6.041  47.758  1.00  0.00    -0.348 OA
BRANCH  22  23
HETATM   23  C16 UNL     1      29.694   6.895  48.098  1.00  0.00     0.177 C 
BRANCH  23  24
HETATM   24  C17 UNL     1      30.828   6.002  48.538  1.00  0.00     0.057 C 
BRANCH  24  25
HETATM   25  C18 UNL     1      31.089   4.892  47.552  1.00  0.00     0.274 C 
BRANCH  25  26
HETATM   26  N3  UNL     1      32.444   4.875  47.051  1.00  0.00     0.092 N 
HETATM   27  C19 UNL     1      33.420   5.084  48.098  1.00  0.00     0.298 C 
HETATM   28  C20 UNL     1      34.692   4.346  47.740  1.00  0.00     0.198 C 
HETATM   29  O3  UNL     1      34.457   2.983  47.953  1.00  0.00    -0.388 OA
HETATM   30  C21 UNL     1      33.133   2.644  47.721  1.00  0.00     0.198 C 
HETATM   31  C22 UNL     1      32.659   3.509  46.558  1.00  0.00     0.298 C 
ENDBRANCH  25  26
ENDBRANCH  24  25
ENDBRANCH  23  24
ENDBRANCH  22  23
ENDBRANCH   9  22
TORSDOF 8
ENDMDL
MODEL 4
REMARK VINA RESULT:      -7.9      1.664      1.810
REMARK  8 active torsions:
REMARK  status: ('A' for Active; 'I' for Inactive)
REMARK    1  A    between atoms: O1_2  and  C2_3 
REMARK    2  A    between atoms: C6_8  and  N2_9 
REMARK    3  A    between atoms: N2_9  and  C7_10 
REMARK    4  A    between atoms: C15_20  and  O2_21 
REMARK    5  A    between atoms: O2_21  and  C16_22 
REMARK    6  A    between atoms: C16_22  and  C17_23 
REMARK    7  A    between atoms: C17_23  and  C18_24 
REMARK    8  A    between atoms: C18_24  and  N3_25 
ROOT
HETATM    1  C2  UNL     1      21.741   0.944  52.386  1.00  0.00     0.114 A 
HETATM    2  C3  UNL     1      21.506   2.200  52.091  1.00  0.00     0.029 A 
HETATM    3  C4  UNL     1      20.352   2.993  51.705  1.00  0.00     0.126 A 
HETATM    4  N1  UNL     1      20.394   4.257  51.463  1.00  0.00    -0.295 NA
HETATM    5  C5  UNL     1      21.603   5.045  51.546  1.00  0.00     0.206 A 
HETATM    6  C6  UNL     1      22.759   4.204  51.941  1.00  0.00     0.041 A 
HETATM    7  C13 UNL     1      22.770   2.918  52.198  1.00  0.00     0.005 A 
HETATM    8  C14 UNL     1      23.770   1.948  52.589  1.00  0.00     0.054 A 
HETATM    9  C15 UNL     1      23.149   0.763  52.701  1.00  0.00     0.103 A 
ENDROOT
BRANCH   6  10
HETATM   10  N2  UNL     1      24.014   4.862  52.059  1.00  0.00    -0.357 N 
HETATM   11  H7  UNL     1      24.307   5.028  53.027  1.00  0.00     0.166 HD
BRANCH  10  12
HETATM   12  C7  UNL     1      24.805   5.261  50.947  1.00  0.00     0.034 A 
HETATM   13  C8  UNL     1      25.456   4.350  50.152  1.00  0.00     0.032 A 
HETATM   14  C9  UNL     1      26.200   4.828  49.096  1.00  0.00     0.046 A 
HETATM   15  C10 UNL     1      26.326   6.176  48.791  1.00  0.00     0.138 A 
HETATM   16  F1  UNL     1      27.051   6.648  47.760  1.00  0.00    -0.204 F 
HETATM   17  C11 UNL     1      25.659   7.096  49.607  1.00  0.00     0.074 A 
HETATM   18 CL1  UNL     1      25.735   8.832  49.330  1.00  0.00    -0.081 Cl
HETATM   19  C12 UNL     1      24.912   6.604  50.670  1.00  0.00     0.056 A 
ENDBRANCH  10  12
ENDBRANCH   6  10
BRANCH   1  20
HETATM   20  O1  UNL     1      20.826  -0.093  52.410  1.00  0.00    -0.352 OA
HETATM   21  C1  UNL     1      20.216  -0.452  53.643  1.00  0.00     0.210 C 
ENDBRANCH   1  20
BRANCH   9  22
HETATM   22  O2  UNL     1      23.904  -0.339  53.069  1.00  0.00    -0.348 OA
BRANCH  22  23
HETATM   23  C16 UNL     1      24.288  -0.638  54.397  1.00  0.00     0.177 C 
BRANCH  23  24
HETATM   24  C17 UNL     1      25.755  -0.301  54.505  1.00  0.00     0.057 C 
BRANCH  24  25
HETATM   25  C18 UNL     1      26.510  -0.657  53.251  1.00  0.00     0.274 C 
BRANCH  25  26
HETATM   26  N3  UNL     1      27.482   0.340  52.862  1.00  0.00     0.092 N 
HETATM   27  C19 UNL     1      27.221   1.626  53.468  1.00  0.00     0.298 C 
HETATM   28  C20 UNL     1      28.535   2.348  53.675  1.00  0.00     0.198 C 
HETATM   29  O3  UNL     1      29.177   1.741  54.760  1.00  0.00    -0.388 OA
HETATM   30  C21 UNL     1      28.877   0.392  54.850  1.00  0.00     0.198 C 
HETATM   31  C22 UNL     1      28.758  -0.124  53.420  1.00  0.00     0.298 C 
ENDBRANCH  25  26
ENDBRANCH  24  25
ENDBRANCH  23  24
ENDBRANCH  22  23
ENDBRANCH   9  22
TORSDOF 8
ENDMDL
MODEL 5
REMARK VINA RESULT:      -7.8      3.650      7.703
REMARK  8 active torsions:
REMARK  status: ('A' for Active; 'I' for Inactive)
REMARK    1  A    between atoms: O1_2  and  C2_3 
REMARK    2  A    between atoms: C6_8  and  N2_9 
REMARK    3  A    between atoms: N2_9  and  C7_10 
REMARK    4  A    between atoms: C15_20  and  O2_21 
REMARK    5  A    between atoms: O2_21  and  C16_22 
REMARK    6  A    between atoms: C16_22  and  C17_23 
REMARK    7  A    between atoms: C17_23  and  C18_24 
REMARK    8  A    between atoms: C18_24  and  N3_25 
ROOT
HETATM    1  C2  UNL     1      27.177   1.797  53.455  1.00  0.00     0.114 A 
HETATM    2  C3  UNL     1      26.457   0.889  54.072  1.00  0.00     0.029 A 
HETATM    3  C4  UNL     1      26.494   0.212  55.355  1.00  0.00     0.126 A 
HETATM    4  N1  UNL     1      25.634  -0.672  55.728  1.00  0.00    -0.295 NA
HETATM    5  C5  UNL     1      24.523  -1.099  54.909  1.00  0.00     0.206 A 
HETATM    6  C6  UNL     1      24.518  -0.387  53.607  1.00  0.00     0.041 A 
HETATM    7  C13 UNL     1      25.366   0.517  53.181  1.00  0.00     0.005 A 
HETATM    8  C14 UNL     1      25.523   1.305  51.976  1.00  0.00     0.054 A 
HETATM    9  C15 UNL     1      26.611   2.072  52.144  1.00  0.00     0.103 A 
ENDROOT
BRANCH   6  10
HETATM   10  N2  UNL     1      23.470  -0.718  52.705  1.00  0.00    -0.357 N 
HETATM   11  H7  UNL     1      23.660  -1.547  52.135  1.00  0.00     0.166 HD
BRANCH  10  12
HETATM   12  C7  UNL     1      22.263   0.023  52.589  1.00  0.00     0.034 A 
HETATM   13  C8  UNL     1      21.532   0.401  53.690  1.00  0.00     0.032 A 
HETATM   14  C9  UNL     1      20.374   1.117  53.483  1.00  0.00     0.046 A 
HETATM   15  C10 UNL     1      19.906   1.479  52.227  1.00  0.00     0.138 A 
HETATM   16  F1  UNL     1      18.775   2.178  52.020  1.00  0.00    -0.204 F 
HETATM   17  C11 UNL     1      20.657   1.089  51.113  1.00  0.00     0.074 A 
HETATM   18 CL1  UNL     1      20.176   1.481  49.467  1.00  0.00    -0.081 Cl
HETATM   19  C12 UNL     1      21.823   0.366  51.332  1.00  0.00     0.056 A 
ENDBRANCH  10  12
ENDBRANCH   6  10
BRANCH   1  20
HETATM   20  O1  UNL     1      28.311   2.429  53.932  1.00  0.00    -0.352 OA
HETATM   21  C1  UNL     1      29.473   1.655  54.203  1.00  0.00     0.210 C 
ENDBRANCH   1  20
BRANCH   9  22
HETATM   22  O2  UNL     1      26.975   2.926  51.116  1.00  0.00    -0.348 OA
BRANCH  22  23
HETATM   23  C16 UNL     1      26.307   3.009  49.871  1.00  0.00     0.177 C 
BRANCH  23  24
HETATM   24  C17 UNL     1      26.288   4.469  49.492  1.00  0.00     0.057 C 
BRANCH  24  25
HETATM   25  C18 UNL     1      25.247   5.240  50.263  1.00  0.00     0.274 C 
BRANCH  25  26
HETATM   26  N3  UNL     1      24.058   4.470  50.551  1.00  0.00     0.092 N 
HETATM   27  C19 UNL     1      23.643   4.596  51.930  1.00  0.00     0.298 C 
HETATM   28  C20 UNL     1      22.137   4.462  52.006  1.00  0.00     0.198 C 
HETATM   29  O3  UNL     1      21.587   5.654  51.521  1.00  0.00    -0.388 OA
HETATM   30  C21 UNL     1      22.384   6.232  50.545  1.00  0.00     0.198 C 
HETATM   31  C22 UNL     1      22.994   5.085  49.747  1.00  0.00     0.298 C 
ENDBRANCH  25  26
ENDBRANCH  24  25
ENDBRANCH  23  24
ENDBRANCH  22  23
ENDBRANCH   9  22
TORSDOF 8
ENDMDL
MODEL 6
REMARK VINA RESULT:      -7.8      3.895      6.632
REMARK  8 active torsions:
REMARK  status: ('A' for Active; 'I' for Inactive)
REMARK    1  A    between atoms: O1_2  and  C2_3 
REMARK    2  A    between atoms: C6_8  and  N2_9 
REMARK    3  A    between atoms: N2_9  and  C7_10 
REMARK    4  A    between atoms: C15_20  and  O2_21 
REMARK    5  A    between atoms: O2_21  and  C16_22 
REMARK    6  A    between atoms: C16_22  and  C17_23 
REMARK    7  A    between atoms: C17_23  and  C18_24 
REMARK    8  A    between atoms: C18_24  and  N3_25 
ROOT
HETATM    1  C2  UNL     1      20.289  -0.057  53.065  1.00  0.00     0.114 A 
HETATM    2  C3  UNL     1      21.373  -0.429  53.704  1.00  0.00     0.029 A 
HETATM    3  C4  UNL     1      21.680  -1.087  54.961  1.00  0.00     0.126 A 
HETATM    4  N1  UNL     1      22.875  -1.344  55.368  1.00  0.00    -0.295 NA
HETATM    5  C5  UNL     1      24.062  -1.006  54.617  1.00  0.00     0.206 A 
HETATM    6  C6  UNL     1      23.711  -0.337  53.341  1.00  0.00     0.041 A 
HETATM    7  C13 UNL     1      22.516  -0.053  52.882  1.00  0.00     0.005 A 
HETATM    8  C14 UNL     1      21.986   0.579  51.693  1.00  0.00     0.054 A 
HETATM    9  C15 UNL     1      20.648   0.575  51.806  1.00  0.00     0.103 A 
ENDROOT
BRANCH   6  10
HETATM   10  N2  UNL     1      24.795   0.049  52.505  1.00  0.00    -0.357 N 
HETATM   11  H7  UNL     1      24.598  -0.037  51.503  1.00  0.00     0.166 HD
BRANCH  10  12
HETATM   12  C7  UNL     1      26.045   0.514  52.996  1.00  0.00     0.034 A 
HETATM   13  C8  UNL     1      26.218   1.801  53.445  1.00  0.00     0.032 A 
HETATM   14  C9  UNL     1      27.465   2.165  53.904  1.00  0.00     0.046 A 
HETATM   15  C10 UNL     1      28.553   1.304  53.939  1.00  0.00     0.138 A 
HETATM   16  F1  UNL     1      29.773   1.654  54.385  1.00  0.00    -0.204 F 
HETATM   17  C11 UNL     1      28.367  -0.005  53.479  1.00  0.00     0.074 A 
HETATM   18 CL1  UNL     1      29.662  -1.195  53.470  1.00  0.00    -0.081 Cl
HETATM   19  C12 UNL     1      27.106  -0.361  53.018  1.00  0.00     0.056 A 
ENDBRANCH  10  12
ENDBRANCH   6  10
BRANCH   1  20
HETATM   20  O1  UNL     1      18.980  -0.216  53.480  1.00  0.00    -0.352 OA
HETATM   21  C1  UNL     1      18.257  -1.370  53.069  1.00  0.00     0.210 C 
ENDBRANCH   1  20
BRANCH   9  22
HETATM   22  O2  UNL     1      19.903   1.132  50.779  1.00  0.00    -0.348 OA
BRANCH  22  23
HETATM   23  C16 UNL     1      18.867   2.078  50.965  1.00  0.00     0.177 C 
BRANCH  23  24
HETATM   24  C17 UNL     1      19.486   3.258  51.672  1.00  0.00     0.057 C 
BRANCH  24  25
HETATM   25  C18 UNL     1      20.081   4.248  50.704  1.00  0.00     0.274 C 
BRANCH  25  26
HETATM   26  N3  UNL     1      21.215   4.966  51.240  1.00  0.00     0.092 N 
HETATM   27  C19 UNL     1      21.877   4.235  52.298  1.00  0.00     0.298 C 
HETATM   28  C20 UNL     1      23.350   4.582  52.289  1.00  0.00     0.198 C 
HETATM   29  O3  UNL     1      23.927   3.923  51.198  1.00  0.00    -0.388 OA
HETATM   30  C21 UNL     1      23.036   3.786  50.145  1.00  0.00     0.198 C 
HETATM   31  C22 UNL     1      22.179   5.048  50.135  1.00  0.00     0.298 C 
ENDBRANCH  25  26
ENDBRANCH  24  25
ENDBRANCH  23  24
ENDBRANCH  22  23
ENDBRANCH   9  22
TORSDOF 8
ENDMDL
MODEL 7
REMARK VINA RESULT:      -7.7      3.807      6.986
REMARK  8 active torsions:
REMARK  status: ('A' for Active; 'I' for Inactive)
REMARK    1  A    between atoms: O1_2  and  C2_3 
REMARK    2  A    between atoms: C6_8  and  N2_9 
REMARK    3  A    between atoms: N2_9  and  C7_10 
REMARK    4  A    between atoms: C15_20  and  O2_21 
REMARK    5  A    between atoms: O2_21  and  C16_22 
REMARK    6  A    between atoms: C16_22  and  C17_23 
REMARK    7  A    between atoms: C17_23  and  C18_24 
REMARK    8  A    between atoms: C18_24  and  N3_25 
ROOT
HETATM    1  C2  UNL     1      23.479   3.005  49.561  1.00  0.00     0.114 A 
HETATM    2  C3  UNL     1      22.967   2.062  50.317  1.00  0.00     0.029 A 
HETATM    3  C4  UNL     1      21.804   1.195  50.274  1.00  0.00     0.126 A 
HETATM    4  N1  UNL     1      21.522   0.321  51.177  1.00  0.00    -0.295 NA
HETATM    5  C5  UNL     1      22.336   0.097  52.351  1.00  0.00     0.206 A 
HETATM    6  C6  UNL     1      23.514   0.999  52.360  1.00  0.00     0.041 A 
HETATM    7  C13 UNL     1      23.844   1.902  51.470  1.00  0.00     0.005 A 
HETATM    8  C14 UNL     1      24.924   2.852  51.308  1.00  0.00     0.054 A 
HETATM    9  C15 UNL     1      24.701   3.513  50.162  1.00  0.00     0.103 A 
ENDROOT
BRANCH   6  10
HETATM   10  N2  UNL     1      24.398   0.879  53.467  1.00  0.00    -0.357 N 
HETATM   11  H7  UNL     1      24.021   1.253  54.343  1.00  0.00     0.166 HD
BRANCH  10  12
HETATM   12  C7  UNL     1      25.691   0.295  53.386  1.00  0.00     0.034 A 
HETATM   13  C8  UNL     1      25.897  -0.946  52.834  1.00  0.00     0.032 A 
HETATM   14  C9  UNL     1      27.184  -1.434  52.797  1.00  0.00     0.046 A 
HETATM   15  C10 UNL     1      28.284  -0.740  53.284  1.00  0.00     0.138 A 
HETATM   16  F1  UNL     1      29.544  -1.212  53.250  1.00  0.00    -0.204 F 
HETATM   17  C11 UNL     1      28.065   0.523  53.844  1.00  0.00     0.074 A 
HETATM   18 CL1  UNL     1      29.370   1.505  54.497  1.00  0.00    -0.081 Cl
HETATM   19  C12 UNL     1      26.762   1.005  53.877  1.00  0.00     0.056 A 
ENDBRANCH  10  12
ENDBRANCH   6  10
BRANCH   1  20
HETATM   20  O1  UNL     1      22.972   3.484  48.367  1.00  0.00    -0.352 OA
HETATM   21  C1  UNL     1      22.155   4.648  48.376  1.00  0.00     0.210 C 
ENDBRANCH   1  20
BRANCH   9  22
HETATM   22  O2  UNL     1      25.609   4.489  49.782  1.00  0.00    -0.348 OA
BRANCH  22  23
HETATM   23  C16 UNL     1      26.861   4.226  49.179  1.00  0.00     0.177 C 
BRANCH  23  24
HETATM   24  C17 UNL     1      27.336   5.531  48.589  1.00  0.00     0.057 C 
BRANCH  24  25
HETATM   25  C18 UNL     1      26.364   6.654  48.846  1.00  0.00     0.274 C 
BRANCH  25  26
HETATM   26  N3  UNL     1      26.748   7.901  48.225  1.00  0.00     0.092 N 
HETATM   27  C19 UNL     1      25.712   8.905  48.322  1.00  0.00     0.298 C 
HETATM   28  C20 UNL     1      26.357  10.273  48.383  1.00  0.00     0.198 C 
HETATM   29  O3  UNL     1      26.900  10.421  49.664  1.00  0.00    -0.388 OA
HETATM   30  C21 UNL     1      27.324   9.210  50.189  1.00  0.00     0.198 C 
HETATM   31  C22 UNL     1      27.877   8.400  49.021  1.00  0.00     0.298 C 
ENDBRANCH  25  26
ENDBRANCH  24  25
ENDBRANCH  23  24
ENDBRANCH  22  23
ENDBRANCH   9  22
TORSDOF 8
ENDMDL
MODEL 8
REMARK VINA RESULT:      -7.6      4.759      7.672
REMARK  8 active torsions:
REMARK  status: ('A' for Active; 'I' for Inactive)
REMARK    1  A    between atoms: O1_2  and  C2_3 
REMARK    2  A    between atoms: C6_8  and  N2_9 
REMARK    3  A    between atoms: N2_9  and  C7_10 
REMARK    4  A    between atoms: C15_20  and  O2_21 
REMARK    5  A    between atoms: O2_21  and  C16_22 
REMARK    6  A    between atoms: C16_22  and  C17_23 
REMARK    7  A    between atoms: C17_23  and  C18_24 
REMARK    8  A    between atoms: C18_24  and  N3_25 
ROOT
HETATM    1  C2  UNL     1      26.485   6.995  49.172  1.00  0.00     0.114 A 
HETATM    2  C3  UNL     1      25.578   6.406  49.916  1.00  0.00     0.029 A 
HETATM    3  C4  UNL     1      24.446   6.824  50.722  1.00  0.00     0.126 A 
HETATM    4  N1  UNL     1      23.688   6.014  51.377  1.00  0.00    -0.295 NA
HETATM    5  C5  UNL     1      23.876   4.581  51.388  1.00  0.00     0.206 A 
HETATM    6  C6  UNL     1      25.041   4.191  50.555  1.00  0.00     0.041 A 
HETATM    7  C13 UNL     1      25.840   4.973  49.872  1.00  0.00     0.005 A 
HETATM    8  C14 UNL     1      26.997   4.786  49.022  1.00  0.00     0.054 A 
HETATM    9  C15 UNL     1      27.382   6.002  48.604  1.00  0.00     0.103 A 
ENDROOT
BRANCH   6  10
HETATM   10  N2  UNL     1      25.335   2.802  50.483  1.00  0.00    -0.357 N 
HETATM   11  H7  UNL     1      25.191   2.395  49.554  1.00  0.00     0.166 HD
BRANCH  10  12
HETATM   12  C7  UNL     1      25.788   2.031  51.587  1.00  0.00     0.034 A 
HETATM   13  C8  UNL     1      25.075   0.962  52.072  1.00  0.00     0.032 A 
HETATM   14  C9  UNL     1      25.591   0.272  53.146  1.00  0.00     0.046 A 
HETATM   15  C10 UNL     1      26.791   0.597  53.765  1.00  0.00     0.138 A 
HETATM   16  F1  UNL     1      27.299  -0.073  54.815  1.00  0.00    -0.204 F 
HETATM   17  C11 UNL     1      27.511   1.687  53.264  1.00  0.00     0.074 A 
HETATM   18 CL1  UNL     1      29.044   2.203  53.954  1.00  0.00    -0.081 Cl
HETATM   19  C12 UNL     1      26.981   2.376  52.180  1.00  0.00     0.056 A 
ENDBRANCH  10  12
ENDBRANCH   6  10
BRANCH   1  20
HETATM   20  O1  UNL     1      26.615   8.351  48.931  1.00  0.00    -0.352 OA
HETATM   21  C1  UNL     1      27.583   9.095  49.661  1.00  0.00     0.210 C 
ENDBRANCH   1  20
BRANCH   9  22
HETATM   22  O2  UNL     1      28.483   6.088  47.767  1.00  0.00    -0.348 OA
BRANCH  22  23
HETATM   23  C16 UNL     1      29.816   5.843  48.173  1.00  0.00     0.177 C 
BRANCH  23  24
HETATM   24  C17 UNL     1      30.698   6.662  47.262  1.00  0.00     0.057 C 
BRANCH  24  25
HETATM   25  C18 UNL     1      31.956   5.924  46.881  1.00  0.00     0.274 C 
BRANCH  25  26
HETATM   26  N3  UNL     1      32.237   4.788  47.730  1.00  0.00     0.092 N 
HETATM   27  C19 UNL     1      32.438   3.573  46.972  1.00  0.00     0.298 C 
HETATM   28  C20 UNL     1      33.410   2.683  47.718  1.00  0.00     0.198 C 
HETATM   29  O3  UNL     1      34.686   3.234  47.558  1.00  0.00    -0.388 OA
HETATM   30  C21 UNL     1      34.644   4.615  47.449  1.00  0.00     0.198 C 
HETATM   31  C22 UNL     1      33.524   5.090  48.369  1.00  0.00     0.298 C 
ENDBRANCH  25  26
ENDBRANCH  24  25
ENDBRANCH  23  24
ENDBRANCH  22  23
ENDBRANCH   9  22
TORSDOF 8
ENDMDL
MODEL 9
REMARK VINA RESULT:      -7.6      4.540      7.536
REMARK  8 active torsions:
REMARK  status: ('A' for Active; 'I' for Inactive)
REMARK    1  A    between atoms: O1_2  and  C2_3 
REMARK    2  A    between atoms: C6_8  and  N2_9 
REMARK    3  A    between atoms: N2_9  and  C7_10 
REMARK    4  A    between atoms: C15_20  and  O2_21 
REMARK    5  A    between atoms: O2_21  and  C16_22 
REMARK    6  A    between atoms: C16_22  and  C17_23 
REMARK    7  A    between atoms: C17_23  and  C18_24 
REMARK    8  A    between atoms: C18_24  and  N3_25 
ROOT
HETATM    1  C2  UNL     1      24.655   3.941  49.501  1.00  0.00     0.114 A 
HETATM    2  C3  UNL     1      24.156   3.367  50.571  1.00  0.00     0.029 A 
HETATM    3  C4  UNL     1      22.831   3.111  51.106  1.00  0.00     0.126 A 
HETATM    4  N1  UNL     1      22.608   2.503  52.220  1.00  0.00    -0.295 NA
HETATM    5  C5  UNL     1      23.657   2.002  53.078  1.00  0.00     0.206 A 
HETATM    6  C6  UNL     1      24.995   2.281  52.500  1.00  0.00     0.041 A 
HETATM    7  C13 UNL     1      25.275   2.892  51.375  1.00  0.00     0.005 A 
HETATM    8  C14 UNL     1      26.483   3.250  50.662  1.00  0.00     0.054 A 
HETATM    9  C15 UNL     1      26.107   3.879  49.538  1.00  0.00     0.103 A 
ENDROOT
BRANCH   6  10
HETATM   10  N2  UNL     1      26.118   1.836  53.251  1.00  0.00    -0.357 N 
HETATM   11  H7  UNL     1      26.483   2.535  53.905  1.00  0.00     0.166 HD
BRANCH  10  12
HETATM   12  C7  UNL     1      26.695   0.544  53.119  1.00  0.00     0.034 A 
HETATM   13  C8  UNL     1      25.980  -0.528  52.644  1.00  0.00     0.032 A 
HETATM   14  C9  UNL     1      26.620  -1.744  52.550  1.00  0.00     0.046 A 
HETATM   15  C10 UNL     1      27.947  -1.944  52.907  1.00  0.00     0.138 A 
HETATM   16  F1  UNL     1      28.577  -3.130  52.818  1.00  0.00    -0.204 F 
HETATM   17  C11 UNL     1      28.667  -0.846  53.390  1.00  0.00     0.074 A 
HETATM   18 CL1  UNL     1      30.353  -0.964  53.877  1.00  0.00    -0.081 Cl
HETATM   19  C12 UNL     1      28.011   0.375  53.482  1.00  0.00     0.056 A 
ENDBRANCH  10  12
ENDBRANCH   6  10
BRANCH   1  20
HETATM   20  O1  UNL     1      23.953   4.532  48.467  1.00  0.00    -0.352 OA
HETATM   21  C1  UNL     1      23.864   5.950  48.410  1.00  0.00     0.210 C 
ENDBRANCH   1  20
BRANCH   9  22
HETATM   22  O2  UNL     1      27.096   4.325  48.675  1.00  0.00    -0.348 OA
BRANCH  22  23
HETATM   23  C16 UNL     1      27.567   5.658  48.620  1.00  0.00     0.177 C 
BRANCH  23  24
HETATM   24  C17 UNL     1      29.034   5.580  48.275  1.00  0.00     0.057 C 
BRANCH  24  25
HETATM   25  C18 UNL     1      29.668   6.945  48.197  1.00  0.00     0.274 C 
BRANCH  25  26
HETATM   26  N3  UNL     1      30.907   7.046  48.935  1.00  0.00     0.092 N 
HETATM   27  C19 UNL     1      32.046   6.615  48.156  1.00  0.00     0.298 C 
HETATM   28  C20 UNL     1      33.267   7.394  48.596  1.00  0.00     0.198 C 
HETATM   29  O3  UNL     1      33.146   8.687  48.076  1.00  0.00    -0.388 OA
HETATM   30  C21 UNL     1      31.822   9.084  47.979  1.00  0.00     0.198 C 
HETATM   31  C22 UNL     1      31.098   8.482  49.178  1.00  0.00     0.298 C 
ENDBRANCH  25  26
ENDBRANCH  24  25
ENDBRANCH  23  24
ENDBRANCH  22  23
ENDBRANCH   9  22
TORSDOF 8
ENDMDL
