MODEL 1
REMARK VINA RESULT:      -7.4      0.000      0.000
REMARK  5 active torsions:
REMARK  status: ('A' for Active; 'I' for Inactive)
REMARK    1  A    between atoms: C7_7  and  O1_8 
REMARK       I    between atoms: N1_10  and  C9_11 
REMARK       I    between atoms: C9_11  and  N2_13 
REMARK    2  A    between atoms: N3_14  and  C10_15 
REMARK    3  A    between atoms: C10_15  and  C11_16 
REMARK    4  A    between atoms: C12_17  and  C13_18 
REMARK    5  A    between atoms: C14_19  and  C15_20 
ROOT
HETATM    1  C1  UNL     1      22.313  -1.745  55.137  1.00  0.00     0.051 C 
HETATM    2  C2  UNL     1      22.960  -0.787  54.204  1.00  0.00    -0.028 A 
HETATM    3  C3  UNL     1      22.136  -0.072  53.358  1.00  0.00     0.012 A 
HETATM    4  C4  UNL     1      22.689   0.828  52.473  1.00  0.00     0.031 A 
HETATM    5  C5  UNL     1      24.043   1.081  52.362  1.00  0.00     0.050 A 
HETATM    6  C6  UNL     1      24.812   0.340  53.231  1.00  0.00     0.021 A 
HETATM    7  C7  UNL     1      24.321  -0.577  54.138  1.00  0.00     0.081 A 
HETATM    8  C8  UNL     1      26.117   0.892  52.801  1.00  0.00     0.178 A 
HETATM    9  N1  UNL     1      25.270   1.673  51.879  1.00  0.00    -0.292 N 
HETATM   10  C9  UNL     1      25.488   2.674  50.850  1.00  0.00     0.367 C 
HETATM   11  O2  UNL     1      24.371   3.031  50.343  1.00  0.00    -0.243 OA
HETATM   12  N2  UNL     1      26.845   3.006  50.656  1.00  0.00    -0.095 NA
HETATM   13  N3  UNL     1      27.253   3.892  49.892  1.00  0.00    -0.184 NA
ENDROOT
BRANCH   7  14
HETATM   14  O1  UNL     1      25.058  -1.338  55.024  1.00  0.00    -0.359 OA
HETATM   15  H6  UNL     1      25.319  -1.069  55.958  1.00  0.00     0.217 HD
ENDBRANCH   7  14
BRANCH  13  16
HETATM   16  C10 UNL     1      26.366   4.695  49.103  1.00  0.00     0.201 C 
BRANCH  16  17
HETATM   17  C11 UNL     1      27.157   5.838  48.545  1.00  0.00    -0.004 C 
HETATM   18  C12 UNL     1      28.447   5.658  48.212  1.00  0.00    -0.003 C 
BRANCH  18  19
HETATM   19  C13 UNL     1      29.273   6.722  47.666  1.00  0.00    -0.003 C 
HETATM   20  C14 UNL     1      30.540   6.896  47.989  1.00  0.00    -0.016 C 
BRANCH  20  21
HETATM   21  C15 UNL     1      31.367   6.104  48.921  1.00  0.00     0.112 C 
HETATM   22 BR1  UNL     1      32.238   4.710  47.904  1.00  0.00    -0.092 Br
ENDBRANCH  20  21
ENDBRANCH  18  19
ENDBRANCH  16  17
ENDBRANCH  13  16
TORSDOF 5
ENDMDL
MODEL 2
REMARK VINA RESULT:      -7.0      5.289      7.685
REMARK  5 active torsions:
REMARK  status: ('A' for Active; 'I' for Inactive)
REMARK    1  A    between atoms: C7_7  and  O1_8 
REMARK       I    between atoms: N1_10  and  C9_11 
REMARK       I    between atoms: C9_11  and  N2_13 
REMARK    2  A    between atoms: N3_14  and  C10_15 
REMARK    3  A    between atoms: C10_15  and  C11_16 
REMARK    4  A    between atoms: C12_17  and  C13_18 
REMARK    5  A    between atoms: C14_19  and  C15_20 
ROOT
HETATM    1  C1  UNL     1      29.748  -1.175  53.954  1.00  0.00     0.051 C 
HETATM    2  C2  UNL     1      28.458  -0.550  53.563  1.00  0.00    -0.028 A 
HETATM    3  C3  UNL     1      27.641  -1.262  52.708  1.00  0.00     0.012 A 
HETATM    4  C4  UNL     1      26.435  -0.723  52.316  1.00  0.00     0.031 A 
HETATM    5  C5  UNL     1      25.963   0.509  52.722  1.00  0.00     0.050 A 
HETATM    6  C6  UNL     1      26.820   1.171  53.573  1.00  0.00     0.021 A 
HETATM    7  C7  UNL     1      28.039   0.688  54.002  1.00  0.00     0.081 A 
HETATM    8  C8  UNL     1      25.973   2.373  53.751  1.00  0.00     0.178 A 
HETATM    9  N1  UNL     1      25.074   1.643  52.837  1.00  0.00    -0.292 N 
HETATM   10  C9  UNL     1      23.777   1.885  52.229  1.00  0.00     0.367 C 
HETATM   11  O2  UNL     1      23.447   0.893  51.494  1.00  0.00    -0.243 OA
HETATM   12  N2  UNL     1      23.204   3.124  52.582  1.00  0.00    -0.095 NA
HETATM   13  N3  UNL     1      22.071   3.498  52.249  1.00  0.00    -0.184 NA
ENDROOT
BRANCH   7  14
HETATM   14  O1  UNL     1      28.925   1.319  54.854  1.00  0.00    -0.359 OA
HETATM   15  H6  UNL     1      29.220   2.279  54.792  1.00  0.00     0.217 HD
ENDBRANCH   7  14
BRANCH  13  16
HETATM   16  C10 UNL     1      21.199   2.691  51.447  1.00  0.00     0.201 C 
BRANCH  16  17
HETATM   17  C11 UNL     1      20.329   1.898  52.373  1.00  0.00    -0.004 C 
HETATM   18  C12 UNL     1      20.017   0.626  52.069  1.00  0.00    -0.003 C 
BRANCH  18  19
HETATM   19  C13 UNL     1      19.178  -0.202  52.921  1.00  0.00    -0.003 C 
HETATM   20  C14 UNL     1      19.643  -1.201  53.645  1.00  0.00    -0.016 C 
BRANCH  20  21
HETATM   21  C15 UNL     1      21.033  -1.686  53.756  1.00  0.00     0.112 C 
HETATM   22 BR1  UNL     1      21.971  -0.523  54.982  1.00  0.00    -0.092 Br
ENDBRANCH  20  21
ENDBRANCH  18  19
ENDBRANCH  16  17
ENDBRANCH  13  16
TORSDOF 5
ENDMDL
MODEL 3
REMARK VINA RESULT:      -7.0      1.649      2.058
REMARK  5 active torsions:
REMARK  status: ('A' for Active; 'I' for Inactive)
REMARK    1  A    between atoms: C7_7  and  O1_8 
REMARK       I    between atoms: N1_10  and  C9_11 
REMARK       I    between atoms: C9_11  and  N2_13 
REMARK    2  A    between atoms: N3_14  and  C10_15 
REMARK    3  A    between atoms: C10_15  and  C11_16 
REMARK    4  A    between atoms: C12_17  and  C13_18 
REMARK    5  A    between atoms: C14_19  and  C15_20 
ROOT
HETATM    1  C1  UNL     1      22.248  -1.230  54.636  1.00  0.00     0.051 C 
HETATM    2  C2  UNL     1      23.034  -0.307  53.777  1.00  0.00    -0.028 A 
HETATM    3  C3  UNL     1      24.360  -0.623  53.553  1.00  0.00     0.012 A 
HETATM    4  C4  UNL     1      25.130   0.203  52.764  1.00  0.00     0.031 A 
HETATM    5  C5  UNL     1      24.668   1.356  52.159  1.00  0.00     0.050 A 
HETATM    6  C6  UNL     1      23.341   1.618  52.418  1.00  0.00     0.021 A 
HETATM    7  C7  UNL     1      22.518   0.833  53.198  1.00  0.00     0.081 A 
HETATM    8  C8  UNL     1      23.266   2.866  51.624  1.00  0.00     0.178 A 
HETATM    9  N1  UNL     1      24.687   2.563  51.363  1.00  0.00    -0.292 N 
HETATM   10  C9  UNL     1      25.767   3.177  50.613  1.00  0.00     0.367 C 
HETATM   11  O2  UNL     1      26.832   2.479  50.728  1.00  0.00    -0.243 OA
HETATM   12  N2  UNL     1      25.400   4.368  49.953  1.00  0.00    -0.095 NA
HETATM   13  N3  UNL     1      26.136   5.009  49.190  1.00  0.00    -0.184 NA
ENDROOT
BRANCH   7  14
HETATM   14  O1  UNL     1      21.185   1.061  53.481  1.00  0.00    -0.359 OA
HETATM   15  H6  UNL     1      20.462   0.362  53.519  1.00  0.00     0.217 HD
ENDBRANCH   7  14
BRANCH  13  16
HETATM   16  C10 UNL     1      27.476   4.599  48.891  1.00  0.00     0.201 C 
BRANCH  16  17
HETATM   17  C11 UNL     1      28.172   5.753  48.235  1.00  0.00    -0.004 C 
HETATM   18  C12 UNL     1      29.507   5.724  48.079  1.00  0.00    -0.003 C 
BRANCH  18  19
HETATM   19  C13 UNL     1      30.247   6.808  47.452  1.00  0.00    -0.003 C 
HETATM   20  C14 UNL     1      31.564   6.875  47.440  1.00  0.00    -0.016 C 
BRANCH  20  21
HETATM   21  C15 UNL     1      32.537   5.928  48.021  1.00  0.00     0.112 C 
HETATM   22 BR1  UNL     1      33.848   5.516  46.662  1.00  0.00    -0.092 Br
ENDBRANCH  20  21
ENDBRANCH  18  19
ENDBRANCH  16  17
ENDBRANCH  13  16
TORSDOF 5
ENDMDL
MODEL 4
REMARK VINA RESULT:      -6.9      3.248      5.025
REMARK  5 active torsions:
REMARK  status: ('A' for Active; 'I' for Inactive)
REMARK    1  A    between atoms: C7_7  and  O1_8 
REMARK       I    between atoms: N1_10  and  C9_11 
REMARK       I    between atoms: C9_11  and  N2_13 
REMARK    2  A    between atoms: N3_14  and  C10_15 
REMARK    3  A    between atoms: C10_15  and  C11_16 
REMARK    4  A    between atoms: C12_17  and  C13_18 
REMARK    5  A    between atoms: C14_19  and  C15_20 
ROOT
HETATM    1  C1  UNL     1      30.105  -0.907  53.771  1.00  0.00     0.051 C 
HETATM    2  C2  UNL     1      28.812  -0.202  53.572  1.00  0.00    -0.028 A 
HETATM    3  C3  UNL     1      28.818   1.175  53.674  1.00  0.00     0.012 A 
HETATM    4  C4  UNL     1      27.643   1.873  53.498  1.00  0.00     0.031 A 
HETATM    5  C5  UNL     1      26.423   1.288  53.221  1.00  0.00     0.050 A 
HETATM    6  C6  UNL     1      26.481  -0.085  53.132  1.00  0.00     0.021 A 
HETATM    7  C7  UNL     1      27.622  -0.842  53.297  1.00  0.00     0.081 A 
HETATM    8  C8  UNL     1      25.043  -0.288  52.839  1.00  0.00     0.178 A 
HETATM    9  N1  UNL     1      25.009   1.185  52.941  1.00  0.00    -0.292 N 
HETATM   10  C9  UNL     1      23.996   2.219  52.823  1.00  0.00     0.367 C 
HETATM   11  O2  UNL     1      24.522   3.369  53.011  1.00  0.00    -0.243 OA
HETATM   12  N2  UNL     1      22.706   1.726  52.538  1.00  0.00    -0.095 NA
HETATM   13  N3  UNL     1      21.714   2.432  52.313  1.00  0.00    -0.184 NA
ENDROOT
BRANCH   7  14
HETATM   14  O1  UNL     1      27.721  -2.217  53.215  1.00  0.00    -0.359 OA
HETATM   15  H6  UNL     1      28.349  -2.729  52.619  1.00  0.00     0.217 HD
ENDBRANCH   7  14
BRANCH  13  16
HETATM   16  C10 UNL     1      21.772   3.864  52.319  1.00  0.00     0.201 C 
BRANCH  16  17
HETATM   17  C11 UNL     1      21.910   4.323  50.899  1.00  0.00    -0.004 C 
HETATM   18  C12 UNL     1      23.068   4.865  50.484  1.00  0.00    -0.003 C 
BRANCH  18  19
HETATM   19  C13 UNL     1      23.272   5.332  49.122  1.00  0.00    -0.003 C 
HETATM   20  C14 UNL     1      24.432   5.763  48.669  1.00  0.00    -0.016 C 
BRANCH  20  21
HETATM   21  C15 UNL     1      25.717   5.868  49.389  1.00  0.00     0.112 C 
HETATM   22 BR1  UNL     1      26.557   4.127  49.364  1.00  0.00    -0.092 Br
ENDBRANCH  20  21
ENDBRANCH  18  19
ENDBRANCH  16  17
ENDBRANCH  13  16
TORSDOF 5
ENDMDL
MODEL 5
REMARK VINA RESULT:      -6.9      6.134      9.257
REMARK  5 active torsions:
REMARK  status: ('A' for Active; 'I' for Inactive)
REMARK    1  A    between atoms: C7_7  and  O1_8 
REMARK       I    between atoms: N1_10  and  C9_11 
REMARK       I    between atoms: C9_11  and  N2_13 
REMARK    2  A    between atoms: N3_14  and  C10_15 
REMARK    3  A    between atoms: C10_15  and  C11_16 
REMARK    4  A    between atoms: C12_17  and  C13_18 
REMARK    5  A    between atoms: C14_19  and  C15_20 
ROOT
HETATM    1  C1  UNL     1      29.490   0.560  53.828  1.00  0.00     0.051 C 
HETATM    2  C2  UNL     1      28.020   0.538  53.613  1.00  0.00    -0.028 A 
HETATM    3  C3  UNL     1      27.436  -0.684  53.348  1.00  0.00     0.012 A 
HETATM    4  C4  UNL     1      26.075  -0.755  53.140  1.00  0.00     0.031 A 
HETATM    5  C5  UNL     1      25.223   0.332  53.177  1.00  0.00     0.050 A 
HETATM    6  C6  UNL     1      25.863   1.521  53.446  1.00  0.00     0.021 A 
HETATM    7  C7  UNL     1      27.218   1.660  53.662  1.00  0.00     0.081 A 
HETATM    8  C8  UNL     1      24.651   2.371  53.397  1.00  0.00     0.178 A 
HETATM    9  N1  UNL     1      23.990   1.082  53.110  1.00  0.00    -0.292 N 
HETATM   10  C9  UNL     1      22.633   0.638  52.847  1.00  0.00     0.367 C 
HETATM   11  O2  UNL     1      22.616  -0.626  52.655  1.00  0.00    -0.243 OA
HETATM   12  N2  UNL     1      21.678   1.676  52.862  1.00  0.00    -0.095 NA
HETATM   13  N3  UNL     1      20.456   1.513  52.747  1.00  0.00    -0.184 NA
ENDROOT
BRANCH   7  14
HETATM   14  O1  UNL     1      27.897   2.832  53.934  1.00  0.00    -0.359 OA
HETATM   15  H6  UNL     1      27.608   3.544  54.584  1.00  0.00     0.217 HD
ENDBRANCH   7  14
BRANCH  13  16
HETATM   16  C10 UNL     1      19.865   0.219  52.580  1.00  0.00     0.201 C 
BRANCH  16  17
HETATM   17  C11 UNL     1      18.841   0.319  51.491  1.00  0.00    -0.004 C 
HETATM   18  C12 UNL     1      17.708  -0.400  51.571  1.00  0.00    -0.003 C 
BRANCH  18  19
HETATM   19  C13 UNL     1      16.674  -0.352  50.551  1.00  0.00    -0.003 C 
HETATM   20  C14 UNL     1      15.644   0.470  50.601  1.00  0.00    -0.016 C 
BRANCH  20  21
HETATM   21  C15 UNL     1      15.317   1.471  51.637  1.00  0.00     0.112 C 
HETATM   22 BR1  UNL     1      14.271   0.592  53.004  1.00  0.00    -0.092 Br
ENDBRANCH  20  21
ENDBRANCH  18  19
ENDBRANCH  16  17
ENDBRANCH  13  16
TORSDOF 5
ENDMDL
MODEL 6
REMARK VINA RESULT:      -6.9      3.096      7.975
REMARK  5 active torsions:
REMARK  status: ('A' for Active; 'I' for Inactive)
REMARK    1  A    between atoms: C7_7  and  O1_8 
REMARK       I    between atoms: N1_10  and  C9_11 
REMARK       I    between atoms: C9_11  and  N2_13 
REMARK    2  A    between atoms: N3_14  and  C10_15 
REMARK    3  A    between atoms: C10_15  and  C11_16 
REMARK    4  A    between atoms: C12_17  and  C13_18 
REMARK    5  A    between atoms: C14_19  and  C15_20 
ROOT
HETATM    1  C1  UNL     1      27.884   8.443  48.563  1.00  0.00     0.051 C 
HETATM    2  C2  UNL     1      26.998   7.355  49.052  1.00  0.00    -0.028 A 
HETATM    3  C3  UNL     1      27.193   6.094  48.527  1.00  0.00     0.012 A 
HETATM    4  C4  UNL     1      26.395   5.053  48.949  1.00  0.00     0.031 A 
HETATM    5  C5  UNL     1      25.385   5.173  49.884  1.00  0.00     0.050 A 
HETATM    6  C6  UNL     1      25.240   6.453  50.371  1.00  0.00     0.021 A 
HETATM    7  C7  UNL     1      26.004   7.537  49.991  1.00  0.00     0.081 A 
HETATM    8  C8  UNL     1      24.118   6.149  51.290  1.00  0.00     0.178 A 
HETATM    9  N1  UNL     1      24.295   4.786  50.750  1.00  0.00    -0.292 N 
HETATM   10  C9  UNL     1      23.667   3.492  50.948  1.00  0.00     0.367 C 
HETATM   11  O2  UNL     1      24.224   2.616  50.202  1.00  0.00    -0.243 OA
HETATM   12  N2  UNL     1      22.617   3.505  51.890  1.00  0.00    -0.095 NA
HETATM   13  N3  UNL     1      22.001   2.501  52.275  1.00  0.00    -0.184 NA
ENDROOT
BRANCH   7  14
HETATM   14  O1  UNL     1      25.889   8.833  50.455  1.00  0.00    -0.359 OA
HETATM   15  H6  UNL     1      25.833   9.661  49.887  1.00  0.00     0.217 HD
ENDBRANCH   7  14
BRANCH  13  16
HETATM   16  C10 UNL     1      22.297   1.185  51.791  1.00  0.00     0.201 C 
BRANCH  16  17
HETATM   17  C11 UNL     1      22.968   0.430  52.897  1.00  0.00    -0.004 C 
HETATM   18  C12 UNL     1      24.305   0.486  53.028  1.00  0.00    -0.003 C 
BRANCH  18  19
HETATM   19  C13 UNL     1      25.021  -0.221  54.077  1.00  0.00    -0.003 C 
HETATM   20  C14 UNL     1      26.302  -0.524  54.003  1.00  0.00    -0.016 C 
BRANCH  20  21
HETATM   21  C15 UNL     1      27.252  -0.237  52.909  1.00  0.00     0.112 C 
HETATM   22 BR1  UNL     1      28.982  -0.926  53.429  1.00  0.00    -0.092 Br
ENDBRANCH  20  21
ENDBRANCH  18  19
ENDBRANCH  16  17
ENDBRANCH  13  16
TORSDOF 5
ENDMDL
MODEL 7
REMARK VINA RESULT:      -6.7      2.027      2.302
REMARK  5 active torsions:
REMARK  status: ('A' for Active; 'I' for Inactive)
REMARK    1  A    between atoms: C7_7  and  O1_8 
REMARK       I    between atoms: N1_10  and  C9_11 
REMARK       I    between atoms: C9_11  and  N2_13 
REMARK    2  A    between atoms: N3_14  and  C10_15 
REMARK    3  A    between atoms: C10_15  and  C11_16 
REMARK    4  A    between atoms: C12_17  and  C13_18 
REMARK    5  A    between atoms: C14_19  and  C15_20 
ROOT
HETATM    1  C1  UNL     1      22.966  -1.088  54.546  1.00  0.00     0.051 C 
HETATM    2  C2  UNL     1      23.553  -0.089  53.616  1.00  0.00    -0.028 A 
HETATM    3  C3  UNL     1      22.720   0.904  53.143  1.00  0.00     0.012 A 
HETATM    4  C4  UNL     1      23.218   1.853  52.277  1.00  0.00     0.031 A 
HETATM    5  C5  UNL     1      24.525   1.891  51.831  1.00  0.00     0.050 A 
HETATM    6  C6  UNL     1      25.307   0.877  52.337  1.00  0.00     0.021 A 
HETATM    7  C7  UNL     1      24.869  -0.102  53.205  1.00  0.00     0.081 A 
HETATM    8  C8  UNL     1      26.554   1.275  51.644  1.00  0.00     0.178 A 
HETATM    9  N1  UNL     1      25.694   2.352  51.116  1.00  0.00    -0.292 N 
HETATM   10  C9  UNL     1      25.863   3.481  50.220  1.00  0.00     0.367 C 
HETATM   11  O2  UNL     1      24.758   4.112  50.099  1.00  0.00    -0.243 OA
HETATM   12  N2  UNL     1      27.169   3.612  49.705  1.00  0.00    -0.095 NA
HETATM   13  N3  UNL     1      27.557   4.549  48.993  1.00  0.00    -0.184 NA
ENDROOT
BRANCH   7  14
HETATM   14  O1  UNL     1      25.621  -1.134  53.734  1.00  0.00    -0.359 OA
HETATM   15  H6  UNL     1      26.325  -1.046  54.446  1.00  0.00     0.217 HD
ENDBRANCH   7  14
BRANCH  13  16
HETATM   16  C10 UNL     1      26.697   5.626  48.604  1.00  0.00     0.201 C 
BRANCH  16  17
HETATM   17  C11 UNL     1      27.556   6.825  48.336  1.00  0.00    -0.004 C 
HETATM   18  C12 UNL     1      28.746   6.671  47.731  1.00  0.00    -0.003 C 
BRANCH  18  19
HETATM   19  C13 UNL     1      29.629   7.789  47.441  1.00  0.00    -0.003 C 
HETATM   20  C14 UNL     1      29.604   8.458  46.305  1.00  0.00    -0.016 C 
BRANCH  20  21
HETATM   21  C15 UNL     1      28.730   8.245  45.134  1.00  0.00     0.112 C 
HETATM   22 BR1  UNL     1      27.303   9.547  45.213  1.00  0.00    -0.092 Br
ENDBRANCH  20  21
ENDBRANCH  18  19
ENDBRANCH  16  17
ENDBRANCH  13  16
TORSDOF 5
ENDMDL
MODEL 8
REMARK VINA RESULT:      -6.6      3.664      9.404
REMARK  5 active torsions:
REMARK  status: ('A' for Active; 'I' for Inactive)
REMARK    1  A    between atoms: C7_7  and  O1_8 
REMARK       I    between atoms: N1_10  and  C9_11 
REMARK       I    between atoms: C9_11  and  N2_13 
REMARK    2  A    between atoms: N3_14  and  C10_15 
REMARK    3  A    between atoms: C10_15  and  C11_16 
REMARK    4  A    between atoms: C12_17  and  C13_18 
REMARK    5  A    between atoms: C14_19  and  C15_20 
ROOT
HETATM    1  C1  UNL     1      28.798   8.306  46.628  1.00  0.00     0.051 C 
HETATM    2  C2  UNL     1      28.114   7.263  47.435  1.00  0.00    -0.028 A 
HETATM    3  C3  UNL     1      28.862   6.168  47.820  1.00  0.00     0.012 A 
HETATM    4  C4  UNL     1      28.272   5.173  48.569  1.00  0.00     0.031 A 
HETATM    5  C5  UNL     1      26.953   5.183  48.978  1.00  0.00     0.050 A 
HETATM    6  C6  UNL     1      26.259   6.299  48.565  1.00  0.00     0.021 A 
HETATM    7  C7  UNL     1      26.790   7.328  47.814  1.00  0.00     0.081 A 
HETATM    8  C8  UNL     1      24.967   5.924  49.184  1.00  0.00     0.178 A 
HETATM    9  N1  UNL     1      25.734   4.738  49.614  1.00  0.00    -0.292 N 
HETATM   10  C9  UNL     1      25.459   3.535  50.379  1.00  0.00     0.367 C 
HETATM   11  O2  UNL     1      26.512   2.814  50.453  1.00  0.00    -0.243 OA
HETATM   12  N2  UNL     1      24.132   3.446  50.847  1.00  0.00    -0.095 NA
HETATM   13  N3  UNL     1      23.702   2.552  51.589  1.00  0.00    -0.184 NA
ENDROOT
BRANCH   7  14
HETATM   14  O1  UNL     1      26.129   8.461  47.381  1.00  0.00    -0.359 OA
HETATM   15  H6  UNL     1      26.377   9.410  47.605  1.00  0.00     0.217 HD
ENDBRANCH   7  14
BRANCH  13  16
HETATM   16  C10 UNL     1      24.530   1.482  52.062  1.00  0.00     0.201 C 
BRANCH  16  17
HETATM   17  C11 UNL     1      23.632   0.360  52.486  1.00  0.00    -0.004 C 
HETATM   18  C12 UNL     1      23.601  -0.019  53.775  1.00  0.00    -0.003 C 
BRANCH  18  19
HETATM   19  C13 UNL     1      22.754  -1.098  54.256  1.00  0.00    -0.003 C 
HETATM   20  C14 UNL     1      21.464  -0.958  54.493  1.00  0.00    -0.016 C 
BRANCH  20  21
HETATM   21  C15 UNL     1      20.628   0.249  54.337  1.00  0.00     0.112 C 
HETATM   22 BR1  UNL     1      19.729   0.133  52.630  1.00  0.00    -0.092 Br
ENDBRANCH  20  21
ENDBRANCH  18  19
ENDBRANCH  16  17
ENDBRANCH  13  16
TORSDOF 5
ENDMDL
MODEL 9
REMARK VINA RESULT:      -6.6      6.185      8.809
REMARK  5 active torsions:
REMARK  status: ('A' for Active; 'I' for Inactive)
REMARK    1  A    between atoms: C7_7  and  O1_8 
REMARK       I    between atoms: N1_10  and  C9_11 
REMARK       I    between atoms: C9_11  and  N2_13 
REMARK    2  A    between atoms: N3_14  and  C10_15 
REMARK    3  A    between atoms: C10_15  and  C11_16 
REMARK    4  A    between atoms: C12_17  and  C13_18 
REMARK    5  A    between atoms: C14_19  and  C15_20 
ROOT
HETATM    1  C1  UNL     1      29.003   0.337  54.166  1.00  0.00     0.051 C 
HETATM    2  C2  UNL     1      27.583   0.586  53.810  1.00  0.00    -0.028 A 
HETATM    3  C3  UNL     1      26.820  -0.504  53.441  1.00  0.00     0.012 A 
HETATM    4  C4  UNL     1      25.497  -0.322  53.101  1.00  0.00     0.031 A 
HETATM    5  C5  UNL     1      24.854   0.900  53.098  1.00  0.00     0.050 A 
HETATM    6  C6  UNL     1      25.664   1.948  53.474  1.00  0.00     0.021 A 
HETATM    7  C7  UNL     1      26.993   1.833  53.826  1.00  0.00     0.081 A 
HETATM    8  C8  UNL     1      24.634   3.004  53.342  1.00  0.00     0.178 A 
HETATM    9  N1  UNL     1      23.787   1.863  52.942  1.00  0.00    -0.292 N 
HETATM   10  C9  UNL     1      22.407   1.678  52.531  1.00  0.00     0.367 C 
HETATM   11  O2  UNL     1      22.185   0.442  52.289  1.00  0.00    -0.243 OA
HETATM   12  N2  UNL     1      21.656   2.871  52.495  1.00  0.00    -0.095 NA
HETATM   13  N3  UNL     1      20.442   2.936  52.256  1.00  0.00    -0.184 NA
ENDROOT
BRANCH   7  14
HETATM   14  O1  UNL     1      27.839   2.857  54.208  1.00  0.00    -0.359 OA
HETATM   15  H6  UNL     1      28.695   3.117  53.749  1.00  0.00     0.217 HD
ENDBRANCH   7  14
BRANCH  13  16
HETATM   16  C10 UNL     1      19.650   1.774  51.982  1.00  0.00     0.201 C 
BRANCH  16  17
HETATM   17  C11 UNL     1      18.409   2.222  51.274  1.00  0.00    -0.004 C 
HETATM   18  C12 UNL     1      17.904   3.443  51.519  1.00  0.00    -0.003 C 
BRANCH  18  19
HETATM   19  C13 UNL     1      16.704   3.942  50.868  1.00  0.00    -0.003 C 
HETATM   20  C14 UNL     1      15.573   4.169  51.507  1.00  0.00    -0.016 C 
BRANCH  20  21
HETATM   21  C15 UNL     1      15.275   3.982  52.941  1.00  0.00     0.112 C 
HETATM   22 BR1  UNL     1      13.718   2.846  53.082  1.00  0.00    -0.092 Br
ENDBRANCH  20  21
ENDBRANCH  18  19
ENDBRANCH  16  17
ENDBRANCH  13  16
TORSDOF 5
ENDMDL
