MODEL 1
REMARK VINA RESULT:      -8.2      0.000      0.000
REMARK  5 active torsions:
REMARK  status: ('A' for Active; 'I' for Inactive)
REMARK    1  A    between atoms: C3_3  and  O1_4 
REMARK    2  A    between atoms: C5_6  and  C6_7 
REMARK    3  A    between atoms: C7_8  and  C9_11 
REMARK       I    between atoms: C9_11  and  N2_13 
REMARK    4  A    between atoms: N2_13  and  C10_14 
REMARK    5  A    between atoms: C16_20  and  O3_21 
ROOT
HETATM    1  C6  UNL     1      22.920  -0.507  53.084  1.00  0.00     0.042 C 
HETATM    2  C7  UNL     1      23.788   0.479  53.080  1.00  0.00     0.113 C 
HETATM    3  C8  UNL     1      23.541   1.865  52.898  1.00  0.00     0.105 C 
HETATM    4  N1  UNL     1      23.357   3.012  52.750  1.00  0.00    -0.191 NA
ENDROOT
BRANCH   2   5
HETATM    5  C9  UNL     1      25.191   0.136  53.287  1.00  0.00     0.266 C 
HETATM    6  O2  UNL     1      25.430  -0.231  54.469  1.00  0.00    -0.267 OA
HETATM    7  N2  UNL     1      26.184   0.204  52.279  1.00  0.00    -0.322 N 
HETATM    8  H6  UNL     1      25.848   0.522  51.350  1.00  0.00     0.169 HD
BRANCH   7   9
HETATM    9  C10 UNL     1      27.475  -0.197  52.788  1.00  0.00     0.035 A 
HETATM   10  C11 UNL     1      27.821  -1.551  52.788  1.00  0.00     0.029 A 
HETATM   11  C12 UNL     1      29.045  -2.006  53.263  1.00  0.00     0.002 A 
HETATM   12  C13 UNL     1      29.929  -1.047  53.746  1.00  0.00     0.000 A 
HETATM   13  C14 UNL     1      29.608   0.285  53.753  1.00  0.00     0.002 A 
HETATM   14  C15 UNL     1      28.388   0.730  53.279  1.00  0.00     0.029 A 
ENDBRANCH   7   9
ENDBRANCH   2   5
BRANCH   1  15
HETATM   15  C5  UNL     1      21.484  -0.452  52.904  1.00  0.00     0.002 A 
HETATM   16  C4  UNL     1      20.448  -0.874  53.832  1.00  0.00     0.051 A 
HETATM   17  C3  UNL     1      19.224  -0.697  53.379  1.00  0.00     0.078 A 
HETATM   18  C2  UNL     1      19.393  -0.119  52.063  1.00  0.00     0.022 A 
HETATM   19  C1  UNL     1      18.441   0.237  51.209  1.00  0.00     0.029 C 
HETATM   20  C16 UNL     1      20.820   0.005  51.830  1.00  0.00     0.088 A 
BRANCH  17  21
HETATM   21  O1  UNL     1      17.980  -0.956  53.926  1.00  0.00    -0.360 OA
HETATM   22  H3  UNL     1      17.487  -0.257  54.463  1.00  0.00     0.217 HD
ENDBRANCH  17  21
BRANCH  20  23
HETATM   23  O3  UNL     1      21.393   0.522  50.665  1.00  0.00    -0.359 OA
HETATM   24  H12 UNL     1      21.090   1.402  50.255  1.00  0.00     0.217 HD
ENDBRANCH  20  23
ENDBRANCH   1  15
TORSDOF 5
ENDMDL
MODEL 2
REMARK VINA RESULT:      -8.2      2.034      7.837
REMARK  5 active torsions:
REMARK  status: ('A' for Active; 'I' for Inactive)
REMARK    1  A    between atoms: C3_3  and  O1_4 
REMARK    2  A    between atoms: C5_6  and  C6_7 
REMARK    3  A    between atoms: C7_8  and  C9_11 
REMARK       I    between atoms: C9_11  and  N2_13 
REMARK    4  A    between atoms: N2_13  and  C10_14 
REMARK    5  A    between atoms: C16_20  and  O3_21 
ROOT
HETATM    1  C6  UNL     1      25.075   0.352  52.918  1.00  0.00     0.042 C 
HETATM    2  C7  UNL     1      24.247  -0.283  53.716  1.00  0.00     0.113 C 
HETATM    3  C8  UNL     1      24.529  -0.896  54.965  1.00  0.00     0.105 C 
HETATM    4  N1  UNL     1      24.741  -1.407  55.996  1.00  0.00    -0.191 NA
ENDROOT
BRANCH   2   5
HETATM    5  C9  UNL     1      22.856  -0.387  53.290  1.00  0.00     0.266 C 
HETATM    6  O2  UNL     1      22.562  -1.542  52.878  1.00  0.00    -0.267 OA
HETATM    7  N2  UNL     1      21.929   0.684  53.330  1.00  0.00    -0.322 N 
HETATM    8  H6  UNL     1      22.306   1.580  53.692  1.00  0.00     0.169 HD
BRANCH   7   9
HETATM    9  C10 UNL     1      20.633   0.272  52.843  1.00  0.00     0.035 A 
HETATM   10  C11 UNL     1      20.223   0.668  51.567  1.00  0.00     0.029 A 
HETATM   11  C12 UNL     1      18.989   0.308  51.037  1.00  0.00     0.002 A 
HETATM   12  C13 UNL     1      18.164  -0.475  51.837  1.00  0.00     0.000 A 
HETATM   13  C14 UNL     1      18.549  -0.874  53.091  1.00  0.00     0.002 A 
HETATM   14  C15 UNL     1      19.777  -0.512  53.611  1.00  0.00     0.029 A 
ENDBRANCH   7   9
ENDBRANCH   2   5
BRANCH   1  15
HETATM   15  C5  UNL     1      26.492   0.599  53.091  1.00  0.00     0.002 A 
HETATM   16  C4  UNL     1      27.173   1.880  53.194  1.00  0.00     0.051 A 
HETATM   17  C3  UNL     1      28.477   1.778  53.347  1.00  0.00     0.078 A 
HETATM   18  C2  UNL     1      28.742   0.355  53.356  1.00  0.00     0.022 A 
HETATM   19  C1  UNL     1      29.918  -0.247  53.486  1.00  0.00     0.029 C 
HETATM   20  C16 UNL     1      27.467  -0.319  53.192  1.00  0.00     0.088 A 
BRANCH  17  21
HETATM   21  O1  UNL     1      29.476   2.724  53.482  1.00  0.00    -0.360 OA
HETATM   22  H3  UNL     1      29.275   3.658  53.812  1.00  0.00     0.217 HD
ENDBRANCH  17  21
BRANCH  20  23
HETATM   23  O3  UNL     1      27.301  -1.705  53.149  1.00  0.00    -0.359 OA
HETATM   24  H12 UNL     1      28.075  -2.340  52.966  1.00  0.00     0.217 HD
ENDBRANCH  20  23
ENDBRANCH   1  15
TORSDOF 5
ENDMDL
MODEL 3
REMARK VINA RESULT:      -8.0      1.859      2.092
REMARK  5 active torsions:
REMARK  status: ('A' for Active; 'I' for Inactive)
REMARK    1  A    between atoms: C3_3  and  O1_4 
REMARK    2  A    between atoms: C5_6  and  C6_7 
REMARK    3  A    between atoms: C7_8  and  C9_11 
REMARK       I    between atoms: C9_11  and  N2_13 
REMARK    4  A    between atoms: N2_13  and  C10_14 
REMARK    5  A    between atoms: C16_20  and  O3_21 
ROOT
HETATM    1  C6  UNL     1      23.202   0.545  52.598  1.00  0.00     0.042 C 
HETATM    2  C7  UNL     1      23.654  -0.255  53.537  1.00  0.00     0.113 C 
HETATM    3  C8  UNL     1      22.911  -0.984  54.502  1.00  0.00     0.105 C 
HETATM    4  N1  UNL     1      22.316  -1.592  55.307  1.00  0.00    -0.191 NA
ENDROOT
BRANCH   2   5
HETATM    5  C9  UNL     1      25.100  -0.437  53.621  1.00  0.00     0.266 C 
HETATM    6  O2  UNL     1      25.472  -0.823  54.762  1.00  0.00    -0.267 OA
HETATM    7  N2  UNL     1      25.994  -0.207  52.548  1.00  0.00    -0.322 N 
HETATM    8  H6  UNL     1      25.551   0.108  51.664  1.00  0.00     0.169 HD
BRANCH   7   9
HETATM    9  C10 UNL     1      27.360  -0.473  52.938  1.00  0.00     0.035 A 
HETATM   10  C11 UNL     1      27.848  -1.780  52.876  1.00  0.00     0.029 A 
HETATM   11  C12 UNL     1      29.149  -2.107  53.238  1.00  0.00     0.002 A 
HETATM   12  C13 UNL     1      29.963  -1.065  53.669  1.00  0.00     0.000 A 
HETATM   13  C14 UNL     1      29.503   0.224  53.736  1.00  0.00     0.002 A 
HETATM   14  C15 UNL     1      28.207   0.540  53.375  1.00  0.00     0.029 A 
ENDBRANCH   7   9
ENDBRANCH   2   5
BRANCH   1  15
HETATM   15  C5  UNL     1      21.831   0.902  52.294  1.00  0.00     0.002 A 
HETATM   16  C4  UNL     1      20.714   0.013  52.018  1.00  0.00     0.051 A 
HETATM   17  C3  UNL     1      19.583   0.641  51.773  1.00  0.00     0.078 A 
HETATM   18  C2  UNL     1      19.906   2.048  51.880  1.00  0.00     0.022 A 
HETATM   19  C1  UNL     1      19.087   3.080  51.716  1.00  0.00     0.029 C 
HETATM   20  C16 UNL     1      21.317   2.139  52.204  1.00  0.00     0.088 A 
BRANCH  17  21
HETATM   21  O1  UNL     1      18.311   0.188  51.472  1.00  0.00    -0.360 OA
HETATM   22  H3  UNL     1      17.734  -0.259  52.170  1.00  0.00     0.217 HD
ENDBRANCH  17  21
BRANCH  20  23
HETATM   23  O3  UNL     1      22.014   3.336  52.391  1.00  0.00    -0.359 OA
HETATM   24  H12 UNL     1      22.321   3.648  53.308  1.00  0.00     0.217 HD
ENDBRANCH  20  23
ENDBRANCH   1  15
TORSDOF 5
ENDMDL
MODEL 4
REMARK VINA RESULT:      -7.9      2.742      7.595
REMARK  5 active torsions:
REMARK  status: ('A' for Active; 'I' for Inactive)
REMARK    1  A    between atoms: C3_3  and  O1_4 
REMARK    2  A    between atoms: C5_6  and  C6_7 
REMARK    3  A    between atoms: C7_8  and  C9_11 
REMARK       I    between atoms: C9_11  and  N2_13 
REMARK    4  A    between atoms: N2_13  and  C10_14 
REMARK    5  A    between atoms: C16_20  and  O3_21 
ROOT
HETATM    1  C6  UNL     1      25.728   0.520  52.250  1.00  0.00     0.042 C 
HETATM    2  C7  UNL     1      24.500   0.527  52.719  1.00  0.00     0.113 C 
HETATM    3  C8  UNL     1      23.942  -0.299  53.730  1.00  0.00     0.105 C 
HETATM    4  N1  UNL     1      23.464  -0.971  54.561  1.00  0.00    -0.191 NA
ENDROOT
BRANCH   2   5
HETATM    5  C9  UNL     1      23.571   1.495  52.146  1.00  0.00     0.266 C 
HETATM    6  O2  UNL     1      22.986   1.054  51.119  1.00  0.00    -0.267 OA
HETATM    7  N2  UNL     1      23.342   2.788  52.675  1.00  0.00    -0.322 N 
HETATM    8  H6  UNL     1      23.891   3.020  53.525  1.00  0.00     0.169 HD
BRANCH   7   9
HETATM    9  C10 UNL     1      22.369   3.511  51.890  1.00  0.00     0.035 A 
HETATM   10  C11 UNL     1      21.010   3.371  52.185  1.00  0.00     0.029 A 
HETATM   11  C12 UNL     1      20.021   4.035  51.470  1.00  0.00     0.002 A 
HETATM   12  C13 UNL     1      20.441   4.861  50.432  1.00  0.00     0.000 A 
HETATM   13  C14 UNL     1      21.768   5.011  50.128  1.00  0.00     0.002 A 
HETATM   14  C15 UNL     1      22.746   4.347  50.844  1.00  0.00     0.029 A 
ENDBRANCH   7   9
ENDBRANCH   2   5
BRANCH   1  15
HETATM   15  C5  UNL     1      26.840  -0.325  52.633  1.00  0.00     0.002 A 
HETATM   16  C4  UNL     1      26.908  -1.777  52.621  1.00  0.00     0.051 A 
HETATM   17  C3  UNL     1      28.064  -2.258  53.030  1.00  0.00     0.078 A 
HETATM   18  C2  UNL     1      28.862  -1.094  53.349  1.00  0.00     0.022 A 
HETATM   19  C1  UNL     1      30.109  -1.068  53.803  1.00  0.00     0.029 C 
HETATM   20  C16 UNL     1      28.042   0.074  53.081  1.00  0.00     0.088 A 
BRANCH  17  21
HETATM   21  O1  UNL     1      28.539  -3.549  53.171  1.00  0.00    -0.360 OA
HETATM   22  H3  UNL     1      27.913  -4.324  53.343  1.00  0.00     0.217 HD
ENDBRANCH  17  21
BRANCH  20  23
HETATM   23  O3  UNL     1      28.457   1.395  53.265  1.00  0.00    -0.359 OA
HETATM   24  H12 UNL     1      28.343   2.105  52.546  1.00  0.00     0.217 HD
ENDBRANCH  20  23
ENDBRANCH   1  15
TORSDOF 5
ENDMDL
MODEL 5
REMARK VINA RESULT:      -7.7      1.760      7.648
REMARK  5 active torsions:
REMARK  status: ('A' for Active; 'I' for Inactive)
REMARK    1  A    between atoms: C3_3  and  O1_4 
REMARK    2  A    between atoms: C5_6  and  C6_7 
REMARK    3  A    between atoms: C7_8  and  C9_11 
REMARK       I    between atoms: C9_11  and  N2_13 
REMARK    4  A    between atoms: N2_13  and  C10_14 
REMARK    5  A    between atoms: C16_20  and  O3_21 
ROOT
HETATM    1  C6  UNL     1      24.465  -0.388  53.322  1.00  0.00     0.042 C 
HETATM    2  C7  UNL     1      23.650   0.584  52.981  1.00  0.00     0.113 C 
HETATM    3  C8  UNL     1      23.951   1.959  52.799  1.00  0.00     0.105 C 
HETATM    4  N1  UNL     1      24.180   3.097  52.645  1.00  0.00    -0.191 NA
ENDROOT
BRANCH   2   5
HETATM    5  C9  UNL     1      22.251   0.235  52.755  1.00  0.00     0.266 C 
HETATM    6  O2  UNL     1      22.064  -0.307  51.631  1.00  0.00    -0.267 OA
HETATM    7  N2  UNL     1      21.211   0.473  53.686  1.00  0.00    -0.322 N 
HETATM    8  H6  UNL     1      21.507   0.925  54.571  1.00  0.00     0.169 HD
BRANCH   7   9
HETATM    9  C10 UNL     1      19.938   0.018  53.176  1.00  0.00     0.035 A 
HETATM   10  C11 UNL     1      19.365  -1.142  53.703  1.00  0.00     0.029 A 
HETATM   11  C12 UNL     1      18.144  -1.636  53.259  1.00  0.00     0.002 A 
HETATM   12  C13 UNL     1      17.502  -0.919  52.254  1.00  0.00     0.000 A 
HETATM   13  C14 UNL     1      18.049   0.221  51.725  1.00  0.00     0.002 A 
HETATM   14  C15 UNL     1      19.263   0.705  52.173  1.00  0.00     0.029 A 
ENDBRANCH   7   9
ENDBRANCH   2   5
BRANCH   1  15
HETATM   15  C5  UNL     1      25.885  -0.324  53.603  1.00  0.00     0.002 A 
HETATM   16  C4  UNL     1      26.580   0.581  54.503  1.00  0.00     0.051 A 
HETATM   17  C3  UNL     1      27.883   0.393  54.545  1.00  0.00     0.078 A 
HETATM   18  C2  UNL     1      28.132  -0.702  53.632  1.00  0.00     0.022 A 
HETATM   19  C1  UNL     1      29.300  -1.257  53.335  1.00  0.00     0.029 C 
HETATM   20  C16 UNL     1      26.849  -1.100  53.081  1.00  0.00     0.088 A 
BRANCH  17  21
HETATM   21  O1  UNL     1      28.893   1.020  55.251  1.00  0.00    -0.360 OA
HETATM   22  H3  UNL     1      29.863   0.912  54.988  1.00  0.00     0.217 HD
ENDBRANCH  17  21
BRANCH  20  23
HETATM   23  O3  UNL     1      26.667  -2.130  52.155  1.00  0.00    -0.359 OA
HETATM   24  H12 UNL     1      26.735  -1.977  51.152  1.00  0.00     0.217 HD
ENDBRANCH  20  23
ENDBRANCH   1  15
TORSDOF 5
ENDMDL
MODEL 6
REMARK VINA RESULT:      -7.6      2.137      7.822
REMARK  5 active torsions:
REMARK  status: ('A' for Active; 'I' for Inactive)
REMARK    1  A    between atoms: C3_3  and  O1_4 
REMARK    2  A    between atoms: C5_6  and  C6_7 
REMARK    3  A    between atoms: C7_8  and  C9_11 
REMARK       I    between atoms: C9_11  and  N2_13 
REMARK    4  A    between atoms: N2_13  and  C10_14 
REMARK    5  A    between atoms: C16_20  and  O3_21 
ROOT
HETATM    1  C6  UNL     1      24.440   0.249  52.788  1.00  0.00     0.042 C 
HETATM    2  C7  UNL     1      23.326  -0.130  53.372  1.00  0.00     0.113 C 
HETATM    3  C8  UNL     1      23.174  -0.909  54.549  1.00  0.00     0.105 C 
HETATM    4  N1  UNL     1      23.027  -1.550  55.517  1.00  0.00    -0.191 NA
ENDROOT
BRANCH   2   5
HETATM    5  C9  UNL     1      22.072   0.288  52.755  1.00  0.00     0.266 C 
HETATM    6  O2  UNL     1      22.152   0.359  51.499  1.00  0.00    -0.267 OA
HETATM    7  N2  UNL     1      20.890   0.583  53.477  1.00  0.00    -0.322 N 
HETATM    8  H6  UNL     1      20.965   0.482  54.507  1.00  0.00     0.169 HD
BRANCH   7   9
HETATM    9  C10 UNL     1      19.817   0.968  52.589  1.00  0.00     0.035 A 
HETATM   10  C11 UNL     1      18.938  -0.009  52.113  1.00  0.00     0.029 A 
HETATM   11  C12 UNL     1      17.886   0.291  51.256  1.00  0.00     0.002 A 
HETATM   12  C13 UNL     1      17.736   1.623  50.885  1.00  0.00     0.000 A 
HETATM   13  C14 UNL     1      18.587   2.595  51.342  1.00  0.00     0.002 A 
HETATM   14  C15 UNL     1      19.631   2.288  52.194  1.00  0.00     0.029 A 
ENDBRANCH   7   9
ENDBRANCH   2   5
BRANCH   1  15
HETATM   15  C5  UNL     1      25.808  -0.022  53.180  1.00  0.00     0.002 A 
HETATM   16  C4  UNL     1      26.599  -1.212  52.912  1.00  0.00     0.051 A 
HETATM   17  C3  UNL     1      27.819  -1.162  53.404  1.00  0.00     0.078 A 
HETATM   18  C2  UNL     1      27.907   0.128  54.055  1.00  0.00     0.022 A 
HETATM   19  C1  UNL     1      28.949   0.640  54.698  1.00  0.00     0.029 C 
HETATM   20  C16 UNL     1      26.624   0.784  53.879  1.00  0.00     0.088 A 
BRANCH  17  21
HETATM   21  O1  UNL     1      28.873  -2.057  53.378  1.00  0.00    -0.360 OA
HETATM   22  H3  UNL     1      29.829  -1.745  53.472  1.00  0.00     0.217 HD
ENDBRANCH  17  21
BRANCH  20  23
HETATM   23  O3  UNL     1      26.308   2.055  54.367  1.00  0.00    -0.359 OA
HETATM   24  H12 UNL     1      26.450   2.898  53.818  1.00  0.00     0.217 HD
ENDBRANCH  20  23
ENDBRANCH   1  15
TORSDOF 5
ENDMDL
MODEL 7
REMARK VINA RESULT:      -7.4      2.132      7.776
REMARK  5 active torsions:
REMARK  status: ('A' for Active; 'I' for Inactive)
REMARK    1  A    between atoms: C3_3  and  O1_4 
REMARK    2  A    between atoms: C5_6  and  C6_7 
REMARK    3  A    between atoms: C7_8  and  C9_11 
REMARK       I    between atoms: C9_11  and  N2_13 
REMARK    4  A    between atoms: N2_13  and  C10_14 
REMARK    5  A    between atoms: C16_20  and  O3_21 
ROOT
HETATM    1  C6  UNL     1      24.246   0.992  52.942  1.00  0.00     0.042 C 
HETATM    2  C7  UNL     1      23.379   1.949  52.704  1.00  0.00     0.113 C 
HETATM    3  C8  UNL     1      23.597   3.352  52.706  1.00  0.00     0.105 C 
HETATM    4  N1  UNL     1      23.757   4.512  52.703  1.00  0.00    -0.191 NA
ENDROOT
BRANCH   2   5
HETATM    5  C9  UNL     1      22.009   1.549  52.397  1.00  0.00     0.266 C 
HETATM    6  O2  UNL     1      21.163   2.418  52.743  1.00  0.00    -0.267 OA
HETATM    7  N2  UNL     1      21.657   0.324  51.780  1.00  0.00    -0.322 N 
HETATM    8  H6  UNL     1      22.455  -0.298  51.548  1.00  0.00     0.169 HD
BRANCH   7   9
HETATM    9  C10 UNL     1      20.227   0.216  51.608  1.00  0.00     0.035 A 
HETATM   10  C11 UNL     1      19.640   0.698  50.435  1.00  0.00     0.029 A 
HETATM   11  C12 UNL     1      18.271   0.627  50.205  1.00  0.00     0.002 A 
HETATM   12  C13 UNL     1      17.494   0.048  51.203  1.00  0.00     0.000 A 
HETATM   13  C14 UNL     1      18.051  -0.431  52.359  1.00  0.00     0.002 A 
HETATM   14  C15 UNL     1      19.414  -0.356  52.580  1.00  0.00     0.029 A 
ENDBRANCH   7   9
ENDBRANCH   2   5
BRANCH   1  15
HETATM   15  C5  UNL     1      25.653   1.104  53.269  1.00  0.00     0.002 A 
HETATM   16  C4  UNL     1      26.619   2.062  52.756  1.00  0.00     0.051 A 
HETATM   17  C3  UNL     1      27.832   1.908  53.245  1.00  0.00     0.078 A 
HETATM   18  C2  UNL     1      27.728   0.786  54.154  1.00  0.00     0.022 A 
HETATM   19  C1  UNL     1      28.694   0.250  54.890  1.00  0.00     0.029 C 
HETATM   20  C16 UNL     1      26.350   0.333  54.121  1.00  0.00     0.088 A 
BRANCH  17  21
HETATM   21  O1  UNL     1      29.017   2.587  53.031  1.00  0.00    -0.360 OA
HETATM   22  H3  UNL     1      29.159   3.147  52.202  1.00  0.00     0.217 HD
ENDBRANCH  17  21
BRANCH  20  23
HETATM   23  O3  UNL     1      25.846  -0.736  54.865  1.00  0.00    -0.359 OA
HETATM   24  H12 UNL     1      26.387  -1.580  55.038  1.00  0.00     0.217 HD
ENDBRANCH  20  23
ENDBRANCH   1  15
TORSDOF 5
ENDMDL
MODEL 8
REMARK VINA RESULT:      -7.3      3.735      5.049
REMARK  5 active torsions:
REMARK  status: ('A' for Active; 'I' for Inactive)
REMARK    1  A    between atoms: C3_3  and  O1_4 
REMARK    2  A    between atoms: C5_6  and  C6_7 
REMARK    3  A    between atoms: C7_8  and  C9_11 
REMARK       I    between atoms: C9_11  and  N2_13 
REMARK    4  A    between atoms: N2_13  and  C10_14 
REMARK    5  A    between atoms: C16_20  and  O3_21 
ROOT
HETATM    1  C6  UNL     1      23.951   1.543  52.140  1.00  0.00     0.042 C 
HETATM    2  C7  UNL     1      25.246   1.502  51.926  1.00  0.00     0.113 C 
HETATM    3  C8  UNL     1      26.175   0.515  52.347  1.00  0.00     0.105 C 
HETATM    4  N1  UNL     1      26.956  -0.289  52.687  1.00  0.00    -0.191 NA
ENDROOT
BRANCH   2   5
HETATM    5  C9  UNL     1      25.832   2.597  51.160  1.00  0.00     0.266 C 
HETATM    6  O2  UNL     1      27.067   2.731  51.376  1.00  0.00    -0.267 OA
HETATM    7  N2  UNL     1      25.105   3.424  50.269  1.00  0.00    -0.322 N 
HETATM    8  H6  UNL     1      24.095   3.201  50.186  1.00  0.00     0.169 HD
BRANCH   7   9
HETATM    9  C10 UNL     1      25.960   4.417  49.661  1.00  0.00     0.035 A 
HETATM   10  C11 UNL     1      25.580   5.761  49.696  1.00  0.00     0.029 A 
HETATM   11  C12 UNL     1      26.354   6.768  49.131  1.00  0.00     0.002 A 
HETATM   12  C13 UNL     1      27.541   6.381  48.519  1.00  0.00     0.000 A 
HETATM   13  C14 UNL     1      27.931   5.068  48.475  1.00  0.00     0.002 A 
HETATM   14  C15 UNL     1      27.156   4.073  49.040  1.00  0.00     0.029 A 
ENDBRANCH   7   9
ENDBRANCH   2   5
BRANCH   1  15
HETATM   15  C5  UNL     1      23.121   0.600  52.861  1.00  0.00     0.002 A 
HETATM   16  C4  UNL     1      23.490  -0.239  53.989  1.00  0.00     0.051 A 
HETATM   17  C3  UNL     1      22.508  -0.999  54.431  1.00  0.00     0.078 A 
HETATM   18  C2  UNL     1      21.381  -0.686  53.578  1.00  0.00     0.022 A 
HETATM   19  C1  UNL     1      20.159  -1.200  53.633  1.00  0.00     0.029 C 
HETATM   20  C16 UNL     1      21.830   0.313  52.625  1.00  0.00     0.088 A 
BRANCH  17  21
HETATM   21  O1  UNL     1      22.433  -1.921  55.458  1.00  0.00    -0.360 OA
HETATM   22  H3  UNL     1      22.957  -1.799  56.313  1.00  0.00     0.217 HD
ENDBRANCH  17  21
BRANCH  20  23
HETATM   23  O3  UNL     1      21.030   0.875  51.627  1.00  0.00    -0.359 OA
HETATM   24  H12 UNL     1      21.144   0.643  50.644  1.00  0.00     0.217 HD
ENDBRANCH  20  23
ENDBRANCH   1  15
TORSDOF 5
ENDMDL
MODEL 9
REMARK VINA RESULT:      -7.2      4.167      7.857
REMARK  5 active torsions:
REMARK  status: ('A' for Active; 'I' for Inactive)
REMARK    1  A    between atoms: C3_3  and  O1_4 
REMARK    2  A    between atoms: C5_6  and  C6_7 
REMARK    3  A    between atoms: C7_8  and  C9_11 
REMARK       I    between atoms: C9_11  and  N2_13 
REMARK    4  A    between atoms: N2_13  and  C10_14 
REMARK    5  A    between atoms: C16_20  and  O3_21 
ROOT
HETATM    1  C6  UNL     1      26.175   2.155  51.225  1.00  0.00     0.042 C 
HETATM    2  C7  UNL     1      24.939   2.601  51.212  1.00  0.00     0.113 C 
HETATM    3  C8  UNL     1      23.869   2.245  52.073  1.00  0.00     0.105 C 
HETATM    4  N1  UNL     1      22.973   1.965  52.773  1.00  0.00    -0.191 NA
ENDROOT
BRANCH   2   5
HETATM    5  C9  UNL     1      24.595   3.587  50.193  1.00  0.00     0.266 C 
HETATM    6  O2  UNL     1      25.476   3.682  49.296  1.00  0.00    -0.267 OA
HETATM    7  N2  UNL     1      23.407   4.358  50.201  1.00  0.00    -0.322 N 
HETATM    8  H6  UNL     1      22.770   4.177  51.000  1.00  0.00     0.169 HD
BRANCH   7   9
HETATM    9  C10 UNL     1      23.352   5.246  49.063  1.00  0.00     0.035 A 
HETATM   10  C11 UNL     1      22.584   4.887  47.952  1.00  0.00     0.029 A 
HETATM   11  C12 UNL     1      22.487   5.693  46.823  1.00  0.00     0.002 A 
HETATM   12  C13 UNL     1      23.193   6.892  46.843  1.00  0.00     0.000 A 
HETATM   13  C14 UNL     1      23.950   7.261  47.923  1.00  0.00     0.002 A 
HETATM   14  C15 UNL     1      24.041   6.454  49.042  1.00  0.00     0.029 A 
ENDBRANCH   7   9
ENDBRANCH   2   5
BRANCH   1  15
HETATM   15  C5  UNL     1      26.780   1.185  52.114  1.00  0.00     0.002 A 
HETATM   16  C4  UNL     1      26.778  -0.264  51.996  1.00  0.00     0.051 A 
HETATM   17  C3  UNL     1      27.416  -0.878  52.970  1.00  0.00     0.078 A 
HETATM   18  C2  UNL     1      27.900   0.183  53.827  1.00  0.00     0.022 A 
HETATM   19  C1  UNL     1      28.605   0.061  54.945  1.00  0.00     0.029 C 
HETATM   20  C16 UNL     1      27.470   1.438  53.239  1.00  0.00     0.088 A 
BRANCH  17  21
HETATM   21  O1  UNL     1      27.648  -2.216  53.235  1.00  0.00    -0.360 OA
HETATM   22  H3  UNL     1      26.936  -2.800  53.650  1.00  0.00     0.217 HD
ENDBRANCH  17  21
BRANCH  20  23
HETATM   23  O3  UNL     1      27.741   2.700  53.773  1.00  0.00    -0.359 OA
HETATM   24  H12 UNL     1      28.199   2.822  54.672  1.00  0.00     0.217 HD
ENDBRANCH  20  23
ENDBRANCH   1  15
TORSDOF 5
ENDMDL
