MODEL 1
REMARK VINA RESULT:      -8.1      0.000      0.000
REMARK  5 active torsions:
REMARK  status: ('A' for Active; 'I' for Inactive)
REMARK    1  A    between atoms: C7_7  and  C8_8 
REMARK    2  A    between atoms: N1_11  and  O1_12 
REMARK    3  A    between atoms: C20_23  and  C21_24 
REMARK    4  A    between atoms: C21_24  and  C22_25 
REMARK    5  A    between atoms: C22_25  and  O2_26 
ROOT
HETATM    1  C8  UNL     1      23.638   1.622  51.085  1.00  0.00     0.078 C 
HETATM    2  C9  UNL     1      24.174   2.509  50.090  1.00  0.00     0.007 C 
HETATM    3  C10 UNL     1      25.324   3.096  50.239  1.00  0.00     0.120 C 
HETATM    4  N1  UNL     1      26.024   2.809  51.410  1.00  0.00    -0.234 N 
HETATM    5  C11 UNL     1      25.707   1.942  52.478  1.00  0.00     0.092 C 
HETATM    6  C12 UNL     1      26.384   1.772  53.584  1.00  0.00     0.047 C 
HETATM    7  C13 UNL     1      26.455   1.062  54.859  1.00  0.00     0.060 C 
HETATM    8  C14 UNL     1      27.672   0.154  54.996  1.00  0.00     0.006 C 
HETATM    9  C15 UNL     1      27.754  -0.936  53.992  1.00  0.00     0.001 C 
HETATM   10  C16 UNL     1      29.198  -1.417  53.783  1.00  0.00     0.012 C 
HETATM   11  C17 UNL     1      29.856  -0.320  52.866  1.00  0.00     0.096 C 
HETATM   12  C18 UNL     1      29.008   0.814  53.092  1.00  0.00    -0.084 C 
HETATM   13  C19 UNL     1      28.341   1.673  53.275  1.00  0.00     0.010 C 
HETATM   14  N2  UNL     1      27.516   2.701  53.511  1.00  0.00    -0.317 N 
HETATM   15  C20 UNL     1      24.455   1.247  52.255  1.00  0.00    -0.017 C 
HETATM   16  H22 UNL     1      27.549   3.694  53.636  1.00  0.00     0.176 HD
ENDROOT
BRANCH   4  17
HETATM   17  O1  UNL     1      27.215   3.499  51.449  1.00  0.00    -0.283 OA
HETATM   18  H11 UNL     1      27.652   3.140  52.277  1.00  0.00     0.245 HD
ENDBRANCH   4  17
BRANCH  15  19
HETATM   19  C21 UNL     1      23.834   0.255  52.840  1.00  0.00     0.009 C 
BRANCH  19  20
HETATM   20  C22 UNL     1      23.188  -0.742  53.754  1.00  0.00     0.192 C 
BRANCH  20  21
HETATM   21  O2  UNL     1      21.936  -0.472  54.214  1.00  0.00    -0.397 OA
HETATM   22  H26 UNL     1      21.781  -0.820  55.137  1.00  0.00     0.209 HD
ENDBRANCH  20  21
ENDBRANCH  19  20
ENDBRANCH  15  19
BRANCH   1  23
HETATM   23  C7  UNL     1      22.191   1.769  51.340  1.00  0.00    -0.040 A 
HETATM   24  C2  UNL     1      21.461   2.721  52.017  1.00  0.00    -0.055 A 
HETATM   25  C1  UNL     1      22.129   3.946  52.471  1.00  0.00     0.049 C 
HETATM   26  C3  UNL     1      20.088   2.682  52.265  1.00  0.00     0.007 A 
HETATM   27  C4  UNL     1      19.413   1.579  51.781  1.00  0.00     0.001 A 
HETATM   28  C5  UNL     1      20.003   0.563  51.096  1.00  0.00     0.001 A 
HETATM   29  C6  UNL     1      21.370   0.706  50.905  1.00  0.00     0.009 A 
ENDBRANCH   1  23
TORSDOF 5
ENDMDL
MODEL 2
REMARK VINA RESULT:      -7.8      2.161      7.003
REMARK  5 active torsions:
REMARK  status: ('A' for Active; 'I' for Inactive)
REMARK    1  A    between atoms: C7_7  and  C8_8 
REMARK    2  A    between atoms: N1_11  and  O1_12 
REMARK    3  A    between atoms: C20_23  and  C21_24 
REMARK    4  A    between atoms: C21_24  and  C22_25 
REMARK    5  A    between atoms: C22_25  and  O2_26 
ROOT
HETATM    1  C8  UNL     1      24.605   0.238  52.598  1.00  0.00     0.078 C 
HETATM    2  C9  UNL     1      23.597  -0.552  53.249  1.00  0.00     0.007 C 
HETATM    3  C10 UNL     1      22.399  -0.098  53.462  1.00  0.00     0.120 C 
HETATM    4  N1  UNL     1      22.130   1.193  53.010  1.00  0.00    -0.234 N 
HETATM    5  C11 UNL     1      22.948   2.109  52.314  1.00  0.00     0.092 C 
HETATM    6  C12 UNL     1      22.650   3.338  51.979  1.00  0.00     0.047 C 
HETATM    7  C13 UNL     1      23.116   4.556  51.321  1.00  0.00     0.060 C 
HETATM    8  C14 UNL     1      22.303   4.944  50.090  1.00  0.00     0.006 C 
HETATM    9  C15 UNL     1      22.308   3.939  48.997  1.00  0.00     0.001 C 
HETATM   10  C16 UNL     1      21.073   4.067  48.093  1.00  0.00     0.012 C 
HETATM   11  C17 UNL     1      19.908   3.392  48.909  1.00  0.00     0.096 C 
HETATM   12  C18 UNL     1      20.403   3.457  50.254  1.00  0.00    -0.084 C 
HETATM   13  C19 UNL     1      20.803   3.513  51.281  1.00  0.00     0.010 C 
HETATM   14  N2  UNL     1      21.310   3.588  52.517  1.00  0.00    -0.317 N 
HETATM   15  C20 UNL     1      24.256   1.554  52.027  1.00  0.00    -0.017 C 
HETATM   16  H22 UNL     1      21.010   3.764  53.456  1.00  0.00     0.176 HD
ENDROOT
BRANCH   4  17
HETATM   17  O1  UNL     1      20.836   1.555  53.306  1.00  0.00    -0.283 OA
HETATM   18  H11 UNL     1      20.880   2.557  53.308  1.00  0.00     0.245 HD
ENDBRANCH   4  17
BRANCH  15  19
HETATM   19  C21 UNL     1      25.272   1.921  51.289  1.00  0.00     0.009 C 
BRANCH  19  20
HETATM   20  C22 UNL     1      26.394   2.600  50.564  1.00  0.00     0.192 C 
BRANCH  20  21
HETATM   21  O2  UNL     1      27.370   3.193  51.303  1.00  0.00    -0.397 OA
HETATM   22  H26 UNL     1      27.304   2.974  52.275  1.00  0.00     0.209 HD
ENDBRANCH  20  21
ENDBRANCH  19  20
ENDBRANCH  15  19
BRANCH   1  23
HETATM   23  C7  UNL     1      25.956   0.138  53.185  1.00  0.00    -0.040 A 
HETATM   24  C2  UNL     1      26.949  -0.810  53.070  1.00  0.00    -0.055 A 
HETATM   25  C1  UNL     1      26.804  -1.881  52.078  1.00  0.00     0.049 C 
HETATM   26  C3  UNL     1      28.157  -0.824  53.769  1.00  0.00     0.007 A 
HETATM   27  C4  UNL     1      28.361   0.215  54.655  1.00  0.00     0.001 A 
HETATM   28  C5  UNL     1      27.470   1.219  54.871  1.00  0.00     0.001 A 
HETATM   29  C6  UNL     1      26.305   1.135  54.122  1.00  0.00     0.009 A 
ENDBRANCH   1  23
TORSDOF 5
ENDMDL
MODEL 3
REMARK VINA RESULT:      -7.7      3.239      5.900
REMARK  5 active torsions:
REMARK  status: ('A' for Active; 'I' for Inactive)
REMARK    1  A    between atoms: C7_7  and  C8_8 
REMARK    2  A    between atoms: N1_11  and  O1_12 
REMARK    3  A    between atoms: C20_23  and  C21_24 
REMARK    4  A    between atoms: C21_24  and  C22_25 
REMARK    5  A    between atoms: C22_25  and  O2_26 
ROOT
HETATM    1  C8  UNL     1      22.697   1.361  51.352  1.00  0.00     0.078 C 
HETATM    2  C9  UNL     1      21.908   0.931  50.232  1.00  0.00     0.007 C 
HETATM    3  C10 UNL     1      21.389   1.774  49.392  1.00  0.00     0.120 C 
HETATM    4  N1  UNL     1      21.651   3.125  49.619  1.00  0.00    -0.234 N 
HETATM    5  C11 UNL     1      22.430   3.750  50.615  1.00  0.00     0.092 C 
HETATM    6  C12 UNL     1      22.578   5.036  50.811  1.00  0.00     0.047 C 
HETATM    7  C13 UNL     1      23.215   6.067  51.626  1.00  0.00     0.060 C 
HETATM    8  C14 UNL     1      24.190   6.952  50.856  1.00  0.00     0.006 C 
HETATM    9  C15 UNL     1      25.340   6.234  50.253  1.00  0.00     0.001 C 
HETATM   10  C16 UNL     1      25.925   6.993  49.052  1.00  0.00     0.012 C 
HETATM   11  C17 UNL     1      24.929   6.699  47.869  1.00  0.00     0.096 C 
HETATM   12  C18 UNL     1      23.732   6.329  48.566  1.00  0.00    -0.084 C 
HETATM   13  C19 UNL     1      22.821   6.043  49.120  1.00  0.00     0.010 C 
HETATM   14  N2  UNL     1      21.731   5.695  49.813  1.00  0.00    -0.317 N 
HETATM   15  C20 UNL     1      23.055   2.786  51.498  1.00  0.00    -0.017 C 
HETATM   16  H22 UNL     1      20.736   5.808  49.780  1.00  0.00     0.176 HD
ENDROOT
BRANCH   4  17
HETATM   17  O1  UNL     1      21.038   3.909  48.668  1.00  0.00    -0.283 OA
HETATM   18  H11 UNL     1      21.760   4.031  47.983  1.00  0.00     0.245 HD
ENDBRANCH   4  17
BRANCH  15  19
HETATM   19  C21 UNL     1      23.968   2.847  52.433  1.00  0.00     0.009 C 
BRANCH  19  20
HETATM   20  C22 UNL     1      24.909   3.180  53.551  1.00  0.00     0.192 C 
BRANCH  20  21
HETATM   21  O2  UNL     1      26.196   2.746  53.457  1.00  0.00    -0.397 OA
HETATM   22  H26 UNL     1      26.679   2.780  54.330  1.00  0.00     0.209 HD
ENDBRANCH  20  21
ENDBRANCH  19  20
ENDBRANCH  15  19
BRANCH   1  23
HETATM   23  C7  UNL     1      22.443   0.637  52.614  1.00  0.00    -0.040 A 
HETATM   24  C2  UNL     1      23.190  -0.275  53.327  1.00  0.00    -0.055 A 
HETATM   25  C1  UNL     1      24.581  -0.523  52.933  1.00  0.00     0.049 C 
HETATM   26  C3  UNL     1      22.778  -0.962  54.469  1.00  0.00     0.007 A 
HETATM   27  C4  UNL     1      21.500  -0.693  54.914  1.00  0.00     0.001 A 
HETATM   28  C5  UNL     1      20.651   0.183  54.312  1.00  0.00     0.001 A 
HETATM   29  C6  UNL     1      21.164   0.810  53.186  1.00  0.00     0.009 A 
ENDBRANCH   1  23
TORSDOF 5
ENDMDL
MODEL 4
REMARK VINA RESULT:      -7.6      9.382     11.767
REMARK  5 active torsions:
REMARK  status: ('A' for Active; 'I' for Inactive)
REMARK    1  A    between atoms: C7_7  and  C8_8 
REMARK    2  A    between atoms: N1_11  and  O1_12 
REMARK    3  A    between atoms: C20_23  and  C21_24 
REMARK    4  A    between atoms: C21_24  and  C22_25 
REMARK    5  A    between atoms: C22_25  and  O2_26 
ROOT
HETATM    1  C8  UNL     1      32.712   6.111  46.471  1.00  0.00     0.078 C 
HETATM    2  C9  UNL     1      32.884   6.361  45.067  1.00  0.00     0.007 C 
HETATM    3  C10 UNL     1      32.091   7.151  44.407  1.00  0.00     0.120 C 
HETATM    4  N1  UNL     1      31.070   7.761  45.134  1.00  0.00    -0.234 N 
HETATM    5  C11 UNL     1      30.758   7.693  46.508  1.00  0.00     0.092 C 
HETATM    6  C12 UNL     1      29.737   8.243  47.114  1.00  0.00     0.047 C 
HETATM    7  C13 UNL     1      29.053   8.439  48.390  1.00  0.00     0.060 C 
HETATM    8  C14 UNL     1      29.000   9.892  48.848  1.00  0.00     0.006 C 
HETATM    9  C15 UNL     1      30.324  10.526  49.068  1.00  0.00     0.001 C 
HETATM   10  C16 UNL     1      30.259  12.055  48.937  1.00  0.00     0.012 C 
HETATM   11  C17 UNL     1      30.223  12.322  47.387  1.00  0.00     0.096 C 
HETATM   12  C18 UNL     1      29.750  11.069  46.873  1.00  0.00    -0.084 C 
HETATM   13  C19 UNL     1      29.390  10.096  46.498  1.00  0.00     0.010 C 
HETATM   14  N2  UNL     1      28.956   8.906  46.066  1.00  0.00    -0.317 N 
HETATM   15  C20 UNL     1      31.697   6.863  47.235  1.00  0.00    -0.017 C 
HETATM   16  H22 UNL     1      28.345   8.522  45.372  1.00  0.00     0.176 HD
ENDROOT
BRANCH   4  17
HETATM   17  O1  UNL     1      30.300   8.560  44.319  1.00  0.00    -0.283 OA
HETATM   18  H11 UNL     1      30.475   8.180  43.408  1.00  0.00     0.245 HD
ENDBRANCH   4  17
BRANCH  15  19
HETATM   19  C21 UNL     1      31.934   6.627  48.500  1.00  0.00     0.009 C 
BRANCH  19  20
HETATM   20  C22 UNL     1      31.949   6.481  49.992  1.00  0.00     0.192 C 
BRANCH  20  21
HETATM   21  O2  UNL     1      31.371   5.375  50.533  1.00  0.00    -0.397 OA
HETATM   22  H26 UNL     1      31.923   4.553  50.412  1.00  0.00     0.209 HD
ENDBRANCH  20  21
ENDBRANCH  19  20
ENDBRANCH  15  19
BRANCH   1  23
HETATM   23  C7  UNL     1      32.911   4.708  46.886  1.00  0.00    -0.040 A 
HETATM   24  C2  UNL     1      33.925   4.079  47.573  1.00  0.00    -0.055 A 
HETATM   25  C1  UNL     1      34.978   4.890  48.195  1.00  0.00     0.049 C 
HETATM   26  C3  UNL     1      34.029   2.709  47.815  1.00  0.00     0.007 A 
HETATM   27  C4  UNL     1      33.012   1.922  47.311  1.00  0.00     0.001 A 
HETATM   28  C5  UNL     1      31.948   2.406  46.615  1.00  0.00     0.001 A 
HETATM   29  C6  UNL     1      31.946   3.781  46.435  1.00  0.00     0.009 A 
ENDBRANCH   1  23
TORSDOF 5
ENDMDL
MODEL 5
REMARK VINA RESULT:      -7.4      2.105      6.789
REMARK  5 active torsions:
REMARK  status: ('A' for Active; 'I' for Inactive)
REMARK    1  A    between atoms: C7_7  and  C8_8 
REMARK    2  A    between atoms: N1_11  and  O1_12 
REMARK    3  A    between atoms: C20_23  and  C21_24 
REMARK    4  A    between atoms: C21_24  and  C22_25 
REMARK    5  A    between atoms: C22_25  and  O2_26 
ROOT
HETATM    1  C8  UNL     1      24.169   2.414  53.146  1.00  0.00     0.078 C 
HETATM    2  C9  UNL     1      24.269   3.846  53.203  1.00  0.00     0.007 C 
HETATM    3  C10 UNL     1      23.560   4.616  52.434  1.00  0.00     0.120 C 
HETATM    4  N1  UNL     1      22.679   3.984  51.558  1.00  0.00    -0.234 N 
HETATM    5  C11 UNL     1      22.393   2.614  51.378  1.00  0.00     0.092 C 
HETATM    6  C12 UNL     1      21.598   2.084  50.484  1.00  0.00     0.047 C 
HETATM    7  C13 UNL     1      21.034   0.845  49.953  1.00  0.00     0.060 C 
HETATM    8  C14 UNL     1      19.519   0.744  50.094  1.00  0.00     0.006 C 
HETATM    9  C15 UNL     1      19.019   0.777  51.492  1.00  0.00     0.001 C 
HETATM   10  C16 UNL     1      17.564   1.263  51.571  1.00  0.00     0.012 C 
HETATM   11  C17 UNL     1      17.656   2.826  51.409  1.00  0.00     0.096 C 
HETATM   12  C18 UNL     1      18.926   2.991  50.762  1.00  0.00    -0.084 C 
HETATM   13  C19 UNL     1      19.907   3.097  50.269  1.00  0.00     0.010 C 
HETATM   14  N2  UNL     1      21.101   3.200  49.674  1.00  0.00    -0.317 N 
HETATM   15  C20 UNL     1      23.144   1.780  52.294  1.00  0.00    -0.017 C 
HETATM   16  H22 UNL     1      21.556   3.738  48.962  1.00  0.00     0.176 HD
ENDROOT
BRANCH   4  17
HETATM   17  O1  UNL     1      21.999   4.907  50.797  1.00  0.00    -0.283 OA
HETATM   18  H11 UNL     1      21.040   4.675  50.971  1.00  0.00     0.245 HD
ENDBRANCH   4  17
BRANCH  15  19
HETATM   19  C21 UNL     1      23.112   0.516  52.629  1.00  0.00     0.009 C 
BRANCH  19  20
HETATM   20  C22 UNL     1      22.806  -0.875  53.099  1.00  0.00     0.192 C 
BRANCH  20  21
HETATM   21  O2  UNL     1      22.874  -1.130  54.434  1.00  0.00    -0.397 OA
HETATM   22  H26 UNL     1      22.691  -2.087  54.653  1.00  0.00     0.209 HD
ENDBRANCH  20  21
ENDBRANCH  19  20
ENDBRANCH  15  19
BRANCH   1  23
HETATM   23  C7  UNL     1      25.454   1.692  53.240  1.00  0.00    -0.040 A 
HETATM   24  C2  UNL     1      26.452   1.452  52.321  1.00  0.00    -0.055 A 
HETATM   25  C1  UNL     1      26.405   2.130  51.021  1.00  0.00     0.049 C 
HETATM   26  C3  UNL     1      27.583   0.660  52.523  1.00  0.00     0.007 A 
HETATM   27  C4  UNL     1      27.699   0.069  53.765  1.00  0.00     0.001 A 
HETATM   28  C5  UNL     1      26.793   0.218  54.768  1.00  0.00     0.001 A 
HETATM   29  C6  UNL     1      25.709   1.027  54.459  1.00  0.00     0.009 A 
ENDBRANCH   1  23
TORSDOF 5
ENDMDL
MODEL 6
REMARK VINA RESULT:      -7.3      3.306      7.136
REMARK  5 active torsions:
REMARK  status: ('A' for Active; 'I' for Inactive)
REMARK    1  A    between atoms: C7_7  and  C8_8 
REMARK    2  A    between atoms: N1_11  and  O1_12 
REMARK    3  A    between atoms: C20_23  and  C21_24 
REMARK    4  A    between atoms: C21_24  and  C22_25 
REMARK    5  A    between atoms: C22_25  and  O2_26 
ROOT
HETATM    1  C8  UNL     1      23.441   2.737  52.329  1.00  0.00     0.078 C 
HETATM    2  C9  UNL     1      23.746   3.767  53.283  1.00  0.00     0.007 C 
HETATM    3  C10 UNL     1      23.762   5.024  52.956  1.00  0.00     0.120 C 
HETATM    4  N1  UNL     1      23.451   5.330  51.632  1.00  0.00    -0.234 N 
HETATM    5  C11 UNL     1      23.079   4.489  50.561  1.00  0.00     0.092 C 
HETATM    6  C12 UNL     1      22.865   4.839  49.319  1.00  0.00     0.047 C 
HETATM    7  C13 UNL     1      22.498   4.381  47.982  1.00  0.00     0.060 C 
HETATM    8  C14 UNL     1      21.190   4.969  47.463  1.00  0.00     0.006 C 
HETATM    9  C15 UNL     1      19.993   4.644  48.277  1.00  0.00     0.001 C 
HETATM   10  C16 UNL     1      18.875   5.682  48.097  1.00  0.00     0.012 C 
HETATM   11  C17 UNL     1      19.323   6.909  48.974  1.00  0.00     0.096 C 
HETATM   12  C18 UNL     1      20.738   6.700  49.089  1.00  0.00    -0.084 C 
HETATM   13  C19 UNL     1      21.823   6.520  49.168  1.00  0.00     0.010 C 
HETATM   14  N2  UNL     1      23.137   6.278  49.254  1.00  0.00    -0.317 N 
HETATM   15  C20 UNL     1      23.000   3.100  50.968  1.00  0.00    -0.017 C 
HETATM   16  H22 UNL     1      24.006   6.775  49.252  1.00  0.00     0.176 HD
ENDROOT
BRANCH   4  17
HETATM   17  O1  UNL     1      23.514   6.688  51.416  1.00  0.00    -0.283 OA
HETATM   18  H11 UNL     1      23.985   7.021  52.236  1.00  0.00     0.245 HD
ENDBRANCH   4  17
BRANCH  15  19
HETATM   19  C21 UNL     1      22.553   2.001  50.416  1.00  0.00     0.009 C 
BRANCH  19  20
HETATM   20  C22 UNL     1      21.791   0.884  49.769  1.00  0.00     0.192 C 
BRANCH  20  21
HETATM   21  O2  UNL     1      21.498   0.991  48.445  1.00  0.00    -0.397 OA
HETATM   22  H26 UNL     1      22.009   0.343  47.883  1.00  0.00     0.209 HD
ENDBRANCH  20  21
ENDBRANCH  19  20
ENDBRANCH  15  19
BRANCH   1  23
HETATM   23  C7  UNL     1      24.281   1.527  52.424  1.00  0.00    -0.040 A 
HETATM   24  C2  UNL     1      24.087   0.309  53.039  1.00  0.00    -0.055 A 
HETATM   25  C1  UNL     1      22.767  -0.008  53.597  1.00  0.00     0.049 C 
HETATM   26  C3  UNL     1      25.020  -0.724  53.131  1.00  0.00     0.007 A 
HETATM   27  C4  UNL     1      26.248  -0.489  52.546  1.00  0.00     0.001 A 
HETATM   28  C5  UNL     1      26.580   0.664  51.905  1.00  0.00     0.001 A 
HETATM   29  C6  UNL     1      25.577   1.621  51.873  1.00  0.00     0.009 A 
ENDBRANCH   1  23
TORSDOF 5
ENDMDL
MODEL 7
REMARK VINA RESULT:      -7.3      6.745      8.546
REMARK  5 active torsions:
REMARK  status: ('A' for Active; 'I' for Inactive)
REMARK    1  A    between atoms: C7_7  and  C8_8 
REMARK    2  A    between atoms: N1_11  and  O1_12 
REMARK    3  A    between atoms: C20_23  and  C21_24 
REMARK    4  A    between atoms: C21_24  and  C22_25 
REMARK    5  A    between atoms: C22_25  and  O2_26 
ROOT
HETATM    1  C8  UNL     1      27.376   7.802  47.276  1.00  0.00     0.078 C 
HETATM    2  C9  UNL     1      27.651   8.976  46.496  1.00  0.00     0.007 C 
HETATM    3  C10 UNL     1      28.862   9.402  46.298  1.00  0.00     0.120 C 
HETATM    4  N1  UNL     1      29.889   8.650  46.867  1.00  0.00    -0.234 N 
HETATM    5  C11 UNL     1      29.843   7.456  47.617  1.00  0.00     0.092 C 
HETATM    6  C12 UNL     1      30.849   6.838  48.181  1.00  0.00     0.047 C 
HETATM    7  C13 UNL     1      31.263   5.689  48.982  1.00  0.00     0.060 C 
HETATM    8  C14 UNL     1      32.211   4.739  48.257  1.00  0.00     0.006 C 
HETATM    9  C15 UNL     1      31.655   4.119  47.029  1.00  0.00     0.001 C 
HETATM   10  C16 UNL     1      32.759   3.684  46.053  1.00  0.00     0.012 C 
HETATM   11  C17 UNL     1      33.219   5.016  45.351  1.00  0.00     0.096 C 
HETATM   12  C18 UNL     1      32.792   6.016  46.287  1.00  0.00    -0.084 C 
HETATM   13  C19 UNL     1      32.453   6.769  47.018  1.00  0.00     0.010 C 
HETATM   14  N2  UNL     1      32.029   7.666  47.917  1.00  0.00    -0.317 N 
HETATM   15  C20 UNL     1      28.488   6.964  47.765  1.00  0.00    -0.017 C 
HETATM   16  H22 UNL     1      32.320   8.531  48.329  1.00  0.00     0.176 HD
ENDROOT
BRANCH   4  17
HETATM   17  O1  UNL     1      31.116   9.212  46.592  1.00  0.00    -0.283 OA
HETATM   18  H11 UNL     1      30.918  10.195  46.610  1.00  0.00     0.245 HD
ENDBRANCH   4  17
BRANCH  15  19
HETATM   19  C21 UNL     1      27.952   5.855  48.207  1.00  0.00     0.009 C 
BRANCH  19  20
HETATM   20  C22 UNL     1      27.446   4.667  48.968  1.00  0.00     0.192 C 
BRANCH  20  21
HETATM   21  O2  UNL     1      26.608   4.886  50.017  1.00  0.00    -0.397 OA
HETATM   22  H26 UNL     1      25.682   4.555  49.846  1.00  0.00     0.209 HD
ENDBRANCH  20  21
ENDBRANCH  19  20
ENDBRANCH  15  19
BRANCH   1  23
HETATM   23  C7  UNL     1      26.215   7.910  48.183  1.00  0.00    -0.040 A 
HETATM   24  C2  UNL     1      26.086   8.380  49.472  1.00  0.00    -0.055 A 
HETATM   25  C1  UNL     1      27.218   9.071  50.098  1.00  0.00     0.049 C 
HETATM   26  C3  UNL     1      24.930   8.332  50.252  1.00  0.00     0.007 A 
HETATM   27  C4  UNL     1      23.821   7.758  49.664  1.00  0.00     0.001 A 
HETATM   28  C5  UNL     1      23.802   7.254  48.401  1.00  0.00     0.001 A 
HETATM   29  C6  UNL     1      25.004   7.355  47.716  1.00  0.00     0.009 A 
ENDBRANCH   1  23
TORSDOF 5
ENDMDL
MODEL 8
REMARK VINA RESULT:      -7.1      8.642     12.363
REMARK  5 active torsions:
REMARK  status: ('A' for Active; 'I' for Inactive)
REMARK    1  A    between atoms: C7_7  and  C8_8 
REMARK    2  A    between atoms: N1_11  and  O1_12 
REMARK    3  A    between atoms: C20_23  and  C21_24 
REMARK    4  A    between atoms: C21_24  and  C22_25 
REMARK    5  A    between atoms: C22_25  and  O2_26 
ROOT
HETATM    1  C8  UNL     1      31.385   6.639  47.288  1.00  0.00     0.078 C 
HETATM    2  C9  UNL     1      30.263   5.762  47.477  1.00  0.00     0.007 C 
HETATM    3  C10 UNL     1      29.225   6.115  48.174  1.00  0.00     0.120 C 
HETATM    4  N1  UNL     1      29.243   7.398  48.717  1.00  0.00    -0.234 N 
HETATM    5  C11 UNL     1      30.208   8.423  48.614  1.00  0.00     0.092 C 
HETATM    6  C12 UNL     1      30.191   9.587  49.210  1.00  0.00     0.047 C 
HETATM    7  C13 UNL     1      30.889  10.856  49.401  1.00  0.00     0.060 C 
HETATM    8  C14 UNL     1      30.113  12.071  48.903  1.00  0.00     0.006 C 
HETATM    9  C15 UNL     1      29.806  12.063  47.451  1.00  0.00     0.001 C 
HETATM   10  C16 UNL     1      28.580  12.927  47.118  1.00  0.00     0.012 C 
HETATM   11  C17 UNL     1      27.345  12.045  47.536  1.00  0.00     0.096 C 
HETATM   12  C18 UNL     1      27.928  11.129  48.473  1.00  0.00    -0.084 C 
HETATM   13  C19 UNL     1      28.397  10.431  49.187  1.00  0.00     0.010 C 
HETATM   14  N2  UNL     1      28.988   9.593  50.047  1.00  0.00    -0.317 N 
HETATM   15  C20 UNL     1      31.323   8.031  47.775  1.00  0.00    -0.017 C 
HETATM   16  H22 UNL     1      28.801   9.136  50.919  1.00  0.00     0.176 HD
ENDROOT
BRANCH   4  17
HETATM   17  O1  UNL     1      28.095   7.641  49.436  1.00  0.00    -0.283 OA
HETATM   18  H11 UNL     1      27.846   8.569  49.149  1.00  0.00     0.245 HD
ENDBRANCH   4  17
BRANCH  15  19
HETATM   19  C21 UNL     1      32.347   8.655  47.251  1.00  0.00     0.009 C 
BRANCH  19  20
HETATM   20  C22 UNL     1      33.387   9.607  46.743  1.00  0.00     0.192 C 
BRANCH  20  21
HETATM   21  O2  UNL     1      34.615   9.588  47.328  1.00  0.00    -0.397 OA
HETATM   22  H26 UNL     1      35.350   9.410  46.676  1.00  0.00     0.209 HD
ENDBRANCH  20  21
ENDBRANCH  19  20
ENDBRANCH  15  19
BRANCH   1  23
HETATM   23  C7  UNL     1      32.709   5.991  47.380  1.00  0.00    -0.040 A 
HETATM   24  C2  UNL     1      33.449   5.262  46.475  1.00  0.00    -0.055 A 
HETATM   25  C1  UNL     1      33.004   5.191  45.079  1.00  0.00     0.049 C 
HETATM   26  C3  UNL     1      34.659   4.618  46.733  1.00  0.00     0.007 A 
HETATM   27  C4  UNL     1      35.149   4.731  48.019  1.00  0.00     0.001 A 
HETATM   28  C5  UNL     1      34.527   5.419  49.013  1.00  0.00     0.001 A 
HETATM   29  C6  UNL     1      33.332   6.020  48.646  1.00  0.00     0.009 A 
ENDBRANCH   1  23
TORSDOF 5
ENDMDL
MODEL 9
REMARK VINA RESULT:      -7.0      9.493     11.726
REMARK  5 active torsions:
REMARK  status: ('A' for Active; 'I' for Inactive)
REMARK    1  A    between atoms: C7_7  and  C8_8 
REMARK    2  A    between atoms: N1_11  and  O1_12 
REMARK    3  A    between atoms: C20_23  and  C21_24 
REMARK    4  A    between atoms: C21_24  and  C22_25 
REMARK    5  A    between atoms: C22_25  and  O2_26 
ROOT
HETATM    1  C8  UNL     1      31.660  10.084  46.710  1.00  0.00     0.078 C 
HETATM    2  C9  UNL     1      32.837  10.688  46.149  1.00  0.00     0.007 C 
HETATM    3  C10 UNL     1      34.015  10.159  46.289  1.00  0.00     0.120 C 
HETATM    4  N1  UNL     1      34.081   8.960  46.998  1.00  0.00    -0.234 N 
HETATM    5  C11 UNL     1      33.057   8.183  47.581  1.00  0.00     0.092 C 
HETATM    6  C12 UNL     1      33.199   7.096  48.295  1.00  0.00     0.047 C 
HETATM    7  C13 UNL     1      32.514   6.043  49.039  1.00  0.00     0.060 C 
HETATM    8  C14 UNL     1      32.709   4.646  48.458  1.00  0.00     0.006 C 
HETATM    9  C15 UNL     1      32.204   4.471  47.073  1.00  0.00     0.001 C 
HETATM   10  C16 UNL     1      32.917   3.323  46.343  1.00  0.00     0.012 C 
HETATM   11  C17 UNL     1      34.309   3.923  45.919  1.00  0.00     0.096 C 
HETATM   12  C18 UNL     1      34.459   5.018  46.832  1.00  0.00    -0.084 C 
HETATM   13  C19 UNL     1      34.553   5.859  47.541  1.00  0.00     0.010 C 
HETATM   14  N2  UNL     1      34.644   6.875  48.407  1.00  0.00    -0.317 N 
HETATM   15  C20 UNL     1      31.746   8.758  47.351  1.00  0.00    -0.017 C 
HETATM   16  H22 UNL     1      35.330   7.341  48.968  1.00  0.00     0.176 HD
ENDROOT
BRANCH   4  17
HETATM   17  O1  UNL     1      35.380   8.513  47.082  1.00  0.00    -0.283 OA
HETATM   18  H11 UNL     1      35.909   9.364  47.061  1.00  0.00     0.245 HD
ENDBRANCH   4  17
BRANCH  15  19
HETATM   19  C21 UNL     1      30.516   8.351  47.531  1.00  0.00     0.009 C 
BRANCH  19  20
HETATM   20  C22 UNL     1      29.160   7.936  48.016  1.00  0.00     0.192 C 
BRANCH  20  21
HETATM   21  O2  UNL     1      29.087   6.970  48.970  1.00  0.00    -0.397 OA
HETATM   22  H26 UNL     1      29.752   7.101  49.704  1.00  0.00     0.209 HD
ENDBRANCH  20  21
ENDBRANCH  19  20
ENDBRANCH  15  19
BRANCH   1  23
HETATM   23  C7  UNL     1      30.704  11.027  47.325  1.00  0.00    -0.040 A 
HETATM   24  C2  UNL     1      29.509  11.553  46.887  1.00  0.00    -0.055 A 
HETATM   25  C1  UNL     1      28.899  11.022  45.663  1.00  0.00     0.049 C 
HETATM   26  C3  UNL     1      28.748  12.523  47.541  1.00  0.00     0.007 A 
HETATM   27  C4  UNL     1      29.254  12.989  48.738  1.00  0.00     0.001 A 
HETATM   28  C5  UNL     1      30.420  12.561  49.291  1.00  0.00     0.001 A 
HETATM   29  C6  UNL     1      31.093  11.595  48.557  1.00  0.00     0.009 A 
ENDBRANCH   1  23
TORSDOF 5
ENDMDL
