MODEL 1
REMARK VINA RESULT:      -8.1      0.000      0.000
REMARK  9 active torsions:
REMARK  status: ('A' for Active; 'I' for Inactive)
REMARK    1  A    between atoms: C2_2  and  C3_3 
REMARK    2  A    between atoms: C7_7  and  N1_8 
REMARK    3  A    between atoms: N1_8  and  C8_9 
REMARK    4  A    between atoms: C14_17  and  O1_18 
REMARK    5  A    between atoms: C18_23  and  C19_24 
REMARK    6  A    between atoms: C19_24  and  C20_25 
REMARK    7  A    between atoms: C21_26  and  C22_27 
REMARK    8  A    between atoms: C22_27  and  N4_28 
REMARK    9  A    between atoms: C22_27  and  O3_29 
ROOT
HETATM    1  C8  UNL     1      24.634   1.796  51.587  1.00  0.00     0.138 C 
HETATM    2  N2  UNL     1      25.366   2.752  51.064  1.00  0.00    -0.224 NA
HETATM    3  C9  UNL     1      24.756   3.752  50.259  1.00  0.00     0.230 C 
HETATM    4  N3  UNL     1      23.522   3.783  49.976  1.00  0.00    -0.267 NA
HETATM    5  C10 UNL     1      22.588   2.785  50.433  1.00  0.00     0.087 C 
HETATM    6  C11 UNL     1      22.416   1.869  49.193  1.00  0.00     0.046 C 
HETATM    7  C12 UNL     1      23.160   1.949  51.446  1.00  0.00     0.021 C 
HETATM    8  C13 UNL     1      22.776   1.159  52.485  1.00  0.00     0.052 C 
HETATM    9  C14 UNL     1      21.454   0.758  53.052  1.00  0.00     0.090 C 
HETATM   10  C16 UNL     1      20.364   1.565  53.121  1.00  0.00     0.171 C 
HETATM   11  O2  UNL     1      20.144   2.913  52.721  1.00  0.00    -0.360 OA
HETATM   12  C17 UNL     1      21.103   3.774  52.137  1.00  0.00     0.182 C 
HETATM   13  C18 UNL     1      21.257   3.465  50.654  1.00  0.00     0.045 C 
ENDROOT
BRANCH   1  14
HETATM   14  N1  UNL     1      25.273   0.799  52.366  1.00  0.00    -0.340 N 
HETATM   15  H7  UNL     1      24.621  -0.046  52.487  1.00  0.00     0.167 HD
BRANCH  14  16
HETATM   16  C7  UNL     1      26.627   0.964  52.860  1.00  0.00     0.034 A 
HETATM   17  C6  UNL     1      27.183   2.154  53.281  1.00  0.00     0.029 A 
HETATM   18  C5  UNL     1      28.476   2.171  53.753  1.00  0.00     0.003 A 
HETATM   19  C4  UNL     1      29.264   1.020  53.826  1.00  0.00     0.011 A 
HETATM   20  C3  UNL     1      28.677  -0.152  53.396  1.00  0.00    -0.035 A 
HETATM   21  C23 UNL     1      27.385  -0.200  52.920  1.00  0.00     0.041 A 
BRANCH  20  22
HETATM   22  C2  UNL     1      29.422  -1.404  53.450  1.00  0.00     0.001 C 
HETATM   23  C1  UNL     1      28.940  -2.596  53.139  1.00  0.00     0.012 C 
ENDBRANCH  20  22
ENDBRANCH  14  16
ENDBRANCH   1  14
BRANCH  13  24
HETATM   24  C19 UNL     1      20.110   2.679  50.178  1.00  0.00     0.010 C 
BRANCH  24  25
HETATM   25  C20 UNL     1      18.879   3.103  49.541  1.00  0.00     0.005 C 
HETATM   26  C21 UNL     1      17.505   3.224  49.890  1.00  0.00     0.063 C 
BRANCH  26  27
HETATM   27  C22 UNL     1      16.854   4.197  50.773  1.00  0.00     0.351 C 
BRANCH  27  28
HETATM   28  N4  UNL     1      15.484   4.479  50.777  1.00  0.00     0.106 N 
HETATM   29  H27 UNL     1      14.856   3.667  50.500  1.00  0.00     0.316 HD
HETATM   30  H28 UNL     1      15.063   4.917  51.603  1.00  0.00     0.316 HD
ENDBRANCH  27  28
BRANCH  27  31
HETATM   31  O3  UNL     1      17.291   3.970  52.144  1.00  0.00    -0.368 OA
HETATM   32  H29 UNL     1      18.037   4.615  52.326  1.00  0.00     0.212 HD
ENDBRANCH  27  31
ENDBRANCH  26  27
ENDBRANCH  24  25
ENDBRANCH  13  24
BRANCH   9  33
HETATM   33  O1  UNL     1      21.398  -0.527  53.520  1.00  0.00    -0.354 OA
HETATM   34  C15 UNL     1      21.909  -0.845  54.796  1.00  0.00     0.210 C 
ENDBRANCH   9  33
TORSDOF 9
ENDMDL
MODEL 2
REMARK VINA RESULT:      -8.0      2.865      8.354
REMARK  9 active torsions:
REMARK  status: ('A' for Active; 'I' for Inactive)
REMARK    1  A    between atoms: C2_2  and  C3_3 
REMARK    2  A    between atoms: C7_7  and  N1_8 
REMARK    3  A    between atoms: N1_8  and  C8_9 
REMARK    4  A    between atoms: C14_17  and  O1_18 
REMARK    5  A    between atoms: C18_23  and  C19_24 
REMARK    6  A    between atoms: C19_24  and  C20_25 
REMARK    7  A    between atoms: C21_26  and  C22_27 
REMARK    8  A    between atoms: C22_27  and  N4_28 
REMARK    9  A    between atoms: C22_27  and  O3_29 
ROOT
HETATM    1  C8  UNL     1      22.187   1.255  51.499  1.00  0.00     0.138 C 
HETATM    2  N2  UNL     1      22.176   1.867  50.338  1.00  0.00    -0.224 NA
HETATM    3  C9  UNL     1      23.324   2.581  49.902  1.00  0.00     0.230 C 
HETATM    4  N3  UNL     1      24.388   2.699  50.579  1.00  0.00    -0.267 NA
HETATM    5  C10 UNL     1      24.549   2.126  51.892  1.00  0.00     0.087 C 
HETATM    6  C11 UNL     1      24.319   3.336  52.835  1.00  0.00     0.046 C 
HETATM    7  C12 UNL     1      23.500   1.200  52.198  1.00  0.00     0.021 C 
HETATM    8  C13 UNL     1      23.260   0.122  52.991  1.00  0.00     0.052 C 
HETATM    9  C14 UNL     1      24.061  -0.614  54.015  1.00  0.00     0.090 C 
HETATM   10  C16 UNL     1      25.400  -0.828  53.943  1.00  0.00     0.171 C 
HETATM   11  O2  UNL     1      26.377  -0.464  52.974  1.00  0.00    -0.360 OA
HETATM   12  C17 UNL     1      26.133   0.238  51.770  1.00  0.00     0.182 C 
HETATM   13  C18 UNL     1      25.999   1.729  52.046  1.00  0.00     0.045 C 
ENDROOT
BRANCH   1  14
HETATM   14  N1  UNL     1      21.018   0.571  51.918  1.00  0.00    -0.340 N 
HETATM   15  H7  UNL     1      21.287  -0.335  52.430  1.00  0.00     0.167 HD
BRANCH  14  16
HETATM   16  C7  UNL     1      19.690   1.102  51.677  1.00  0.00     0.034 A 
HETATM   17  C6  UNL     1      19.317   2.420  51.843  1.00  0.00     0.029 A 
HETATM   18  C5  UNL     1      18.026   2.803  51.556  1.00  0.00     0.003 A 
HETATM   19  C4  UNL     1      17.061   1.902  51.097  1.00  0.00     0.011 A 
HETATM   20  C3  UNL     1      17.468   0.593  50.944  1.00  0.00    -0.035 A 
HETATM   21  C23 UNL     1      18.753   0.182  51.222  1.00  0.00     0.041 A 
BRANCH  20  22
HETATM   22  C2  UNL     1      16.530  -0.410  50.457  1.00  0.00     0.001 C 
HETATM   23  C1  UNL     1      16.191  -0.590  49.190  1.00  0.00     0.012 C 
ENDBRANCH  20  22
ENDBRANCH  14  16
ENDBRANCH   1  14
BRANCH  13  24
HETATM   24  C19 UNL     1      26.557   2.053  53.367  1.00  0.00     0.010 C 
BRANCH  24  25
HETATM   25  C20 UNL     1      27.935   2.178  53.801  1.00  0.00     0.005 C 
HETATM   26  C21 UNL     1      28.868   1.421  54.562  1.00  0.00     0.063 C 
BRANCH  26  27
HETATM   27  C22 UNL     1      29.566   0.180  54.207  1.00  0.00     0.351 C 
BRANCH  27  28
HETATM   28  N4  UNL     1      28.940  -1.048  53.972  1.00  0.00     0.106 N 
HETATM   29  H27 UNL     1      29.599  -1.868  53.824  1.00  0.00     0.316 HD
HETATM   30  H28 UNL     1      28.201  -1.366  54.608  1.00  0.00     0.316 HD
ENDBRANCH  27  28
BRANCH  27  31
HETATM   31  O3  UNL     1      30.500   0.448  53.123  1.00  0.00    -0.368 OA
HETATM   32  H29 UNL     1      31.164   1.117  53.465  1.00  0.00     0.212 HD
ENDBRANCH  27  31
ENDBRANCH  26  27
ENDBRANCH  24  25
ENDBRANCH  13  24
BRANCH   9  33
HETATM   33  O1  UNL     1      23.339  -1.080  55.080  1.00  0.00    -0.354 OA
HETATM   34  C15 UNL     1      21.990  -1.459  54.915  1.00  0.00     0.210 C 
ENDBRANCH   9  33
TORSDOF 9
ENDMDL
MODEL 3
REMARK VINA RESULT:      -7.9      3.678      6.459
REMARK  9 active torsions:
REMARK  status: ('A' for Active; 'I' for Inactive)
REMARK    1  A    between atoms: C2_2  and  C3_3 
REMARK    2  A    between atoms: C7_7  and  N1_8 
REMARK    3  A    between atoms: N1_8  and  C8_9 
REMARK    4  A    between atoms: C14_17  and  O1_18 
REMARK    5  A    between atoms: C18_23  and  C19_24 
REMARK    6  A    between atoms: C19_24  and  C20_25 
REMARK    7  A    between atoms: C21_26  and  C22_27 
REMARK    8  A    between atoms: C22_27  and  N4_28 
REMARK    9  A    between atoms: C22_27  and  O3_29 
ROOT
HETATM    1  C8  UNL     1      22.453   2.354  50.917  1.00  0.00     0.138 C 
HETATM    2  N2  UNL     1      21.162   2.518  50.745  1.00  0.00    -0.224 NA
HETATM    3  C9  UNL     1      20.635   3.820  50.531  1.00  0.00     0.230 C 
HETATM    4  N3  UNL     1      21.333   4.877  50.517  1.00  0.00    -0.267 NA
HETATM    5  C10 UNL     1      22.758   4.878  50.733  1.00  0.00     0.087 C 
HETATM    6  C11 UNL     1      22.890   5.318  52.215  1.00  0.00     0.046 C 
HETATM    7  C12 UNL     1      23.303   3.554  50.681  1.00  0.00     0.021 C 
HETATM    8  C13 UNL     1      24.479   2.920  50.427  1.00  0.00     0.052 C 
HETATM    9  C14 UNL     1      25.859   3.385  50.093  1.00  0.00     0.090 C 
HETATM   10  C16 UNL     1      26.147   4.462  49.318  1.00  0.00     0.171 C 
HETATM   11  O2  UNL     1      25.321   5.401  48.641  1.00  0.00    -0.360 OA
HETATM   12  C17 UNL     1      23.906   5.397  48.612  1.00  0.00     0.182 C 
HETATM   13  C18 UNL     1      23.350   5.990  49.899  1.00  0.00     0.045 C 
ENDROOT
BRANCH   1  14
HETATM   14  N1  UNL     1      22.947   1.047  51.151  1.00  0.00    -0.340 N 
HETATM   15  H7  UNL     1      23.522   0.714  50.306  1.00  0.00     0.167 HD
BRANCH  14  16
HETATM   16  C7  UNL     1      22.694   0.343  52.394  1.00  0.00     0.034 A 
HETATM   17  C6  UNL     1      21.455  -0.070  52.838  1.00  0.00     0.029 A 
HETATM   18  C5  UNL     1      21.352  -0.753  54.028  1.00  0.00     0.003 A 
HETATM   19  C4  UNL     1      22.463  -1.052  54.821  1.00  0.00     0.011 A 
HETATM   20  C3  UNL     1      23.686  -0.623  54.348  1.00  0.00    -0.035 A 
HETATM   21  C23 UNL     1      23.820   0.062  53.160  1.00  0.00     0.041 A 
BRANCH  20  22
HETATM   22  C2  UNL     1      24.900  -0.904  55.104  1.00  0.00     0.001 C 
HETATM   23  C1  UNL     1      26.046  -0.254  54.982  1.00  0.00     0.012 C 
ENDBRANCH  20  22
ENDBRANCH  14  16
ENDBRANCH   1  14
BRANCH  13  24
HETATM   24  C19 UNL     1      24.393   6.755  50.598  1.00  0.00     0.010 C 
BRANCH  24  25
HETATM   25  C20 UNL     1      24.850   8.117  50.404  1.00  0.00     0.005 C 
HETATM   26  C21 UNL     1      26.049   8.858  50.589  1.00  0.00     0.063 C 
BRANCH  26  27
HETATM   27  C22 UNL     1      27.298   8.809  49.822  1.00  0.00     0.351 C 
BRANCH  27  28
HETATM   28  N4  UNL     1      28.480   9.467  50.178  1.00  0.00     0.106 N 
HETATM   29  H27 UNL     1      29.278   8.831  50.473  1.00  0.00     0.316 HD
HETATM   30  H28 UNL     1      28.874  10.170  49.544  1.00  0.00     0.316 HD
ENDBRANCH  27  28
BRANCH  27  31
HETATM   31  O3  UNL     1      27.611   7.423  49.499  1.00  0.00    -0.368 OA
HETATM   32  H29 UNL     1      27.682   6.928  50.369  1.00  0.00     0.212 HD
ENDBRANCH  27  31
ENDBRANCH  26  27
ENDBRANCH  24  25
ENDBRANCH  13  24
BRANCH   9  33
HETATM   33  O1  UNL     1      26.864   2.631  50.638  1.00  0.00    -0.354 OA
HETATM   34  C15 UNL     1      26.603   1.778  51.731  1.00  0.00     0.210 C 
ENDBRANCH   9  33
TORSDOF 9
ENDMDL
MODEL 4
REMARK VINA RESULT:      -7.9      3.640      6.976
REMARK  9 active torsions:
REMARK  status: ('A' for Active; 'I' for Inactive)
REMARK    1  A    between atoms: C2_2  and  C3_3 
REMARK    2  A    between atoms: C7_7  and  N1_8 
REMARK    3  A    between atoms: N1_8  and  C8_9 
REMARK    4  A    between atoms: C14_17  and  O1_18 
REMARK    5  A    between atoms: C18_23  and  C19_24 
REMARK    6  A    between atoms: C19_24  and  C20_25 
REMARK    7  A    between atoms: C21_26  and  C22_27 
REMARK    8  A    between atoms: C22_27  and  N4_28 
REMARK    9  A    between atoms: C22_27  and  O3_29 
ROOT
HETATM    1  C8  UNL     1      22.842   2.127  51.338  1.00  0.00     0.138 C 
HETATM    2  N2  UNL     1      21.556   2.206  51.085  1.00  0.00    -0.224 NA
HETATM    3  C9  UNL     1      20.984   3.449  50.702  1.00  0.00     0.230 C 
HETATM    4  N3  UNL     1      21.634   4.531  50.604  1.00  0.00    -0.267 NA
HETATM    5  C10 UNL     1      23.044   4.628  50.889  1.00  0.00     0.087 C 
HETATM    6  C11 UNL     1      23.074   5.233  52.317  1.00  0.00     0.046 C 
HETATM    7  C12 UNL     1      23.649   3.335  51.011  1.00  0.00     0.021 C 
HETATM    8  C13 UNL     1      24.864   2.737  50.889  1.00  0.00     0.052 C 
HETATM    9  C14 UNL     1      26.238   3.231  50.574  1.00  0.00     0.090 C 
HETATM   10  C16 UNL     1      26.520   4.231  49.698  1.00  0.00     0.171 C 
HETATM   11  O2  UNL     1      25.691   5.048  48.880  1.00  0.00    -0.360 OA
HETATM   12  C17 UNL     1      24.282   4.969  48.782  1.00  0.00     0.182 C 
HETATM   13  C18 UNL     1      23.630   5.670  49.966  1.00  0.00     0.045 C 
ENDROOT
BRANCH   1  14
HETATM   14  N1  UNL     1      23.380   0.880  51.741  1.00  0.00    -0.340 N 
HETATM   15  H7  UNL     1      24.259   0.656  51.166  1.00  0.00     0.167 HD
BRANCH  14  16
HETATM   16  C7  UNL     1      22.785   0.097  52.808  1.00  0.00     0.034 A 
HETATM   17  C6  UNL     1      23.463  -0.411  53.896  1.00  0.00     0.029 A 
HETATM   18  C5  UNL     1      22.776  -1.120  54.856  1.00  0.00     0.003 A 
HETATM   19  C4  UNL     1      21.400  -1.353  54.775  1.00  0.00     0.011 A 
HETATM   20  C3  UNL     1      20.755  -0.831  53.673  1.00  0.00    -0.035 A 
HETATM   21  C23 UNL     1      21.416  -0.117  52.698  1.00  0.00     0.041 A 
BRANCH  20  22
HETATM   22  C2  UNL     1      19.317  -1.014  53.516  1.00  0.00     0.001 C 
HETATM   23  C1  UNL     1      18.577  -0.478  52.560  1.00  0.00     0.012 C 
ENDBRANCH  20  22
ENDBRANCH  14  16
ENDBRANCH   1  14
BRANCH  13  24
HETATM   24  C19 UNL     1      24.598   6.558  50.625  1.00  0.00     0.010 C 
BRANCH  24  25
HETATM   25  C20 UNL     1      24.958   7.934  50.342  1.00  0.00     0.005 C 
HETATM   26  C21 UNL     1      26.096   8.773  50.493  1.00  0.00     0.063 C 
BRANCH  26  27
HETATM   27  C22 UNL     1      27.361   8.764  49.750  1.00  0.00     0.351 C 
BRANCH  27  28
HETATM   28  N4  UNL     1      28.539   9.386  50.175  1.00  0.00     0.106 N 
HETATM   29  H27 UNL     1      29.385   9.221  49.553  1.00  0.00     0.316 HD
HETATM   30  H28 UNL     1      28.526  10.385  50.406  1.00  0.00     0.316 HD
ENDBRANCH  27  28
BRANCH  27  31
HETATM   31  O3  UNL     1      27.669   7.400  49.342  1.00  0.00    -0.368 OA
HETATM   32  H29 UNL     1      28.489   7.120  49.849  1.00  0.00     0.212 HD
ENDBRANCH  27  31
ENDBRANCH  26  27
ENDBRANCH  24  25
ENDBRANCH  13  24
BRANCH   9  33
HETATM   33  O1  UNL     1      27.244   2.594  51.248  1.00  0.00    -0.354 OA
HETATM   34  C15 UNL     1      26.960   1.480  52.067  1.00  0.00     0.210 C 
ENDBRANCH   9  33
TORSDOF 9
ENDMDL
MODEL 5
REMARK VINA RESULT:      -7.8      4.007      7.216
REMARK  9 active torsions:
REMARK  status: ('A' for Active; 'I' for Inactive)
REMARK    1  A    between atoms: C2_2  and  C3_3 
REMARK    2  A    between atoms: C7_7  and  N1_8 
REMARK    3  A    between atoms: N1_8  and  C8_9 
REMARK    4  A    between atoms: C14_17  and  O1_18 
REMARK    5  A    between atoms: C18_23  and  C19_24 
REMARK    6  A    between atoms: C19_24  and  C20_25 
REMARK    7  A    between atoms: C21_26  and  C22_27 
REMARK    8  A    between atoms: C22_27  and  N4_28 
REMARK    9  A    between atoms: C22_27  and  O3_29 
ROOT
HETATM    1  C8  UNL     1      23.111   1.906  50.963  1.00  0.00     0.138 C 
HETATM    2  N2  UNL     1      23.476   1.835  52.221  1.00  0.00    -0.224 NA
HETATM    3  C9  UNL     1      24.528   2.661  52.702  1.00  0.00     0.230 C 
HETATM    4  N3  UNL     1      25.181   3.473  51.982  1.00  0.00    -0.267 NA
HETATM    5  C10 UNL     1      24.936   3.641  50.571  1.00  0.00     0.087 C 
HETATM    6  C11 UNL     1      26.069   2.808  49.916  1.00  0.00     0.046 C 
HETATM    7  C12 UNL     1      23.717   3.009  50.166  1.00  0.00     0.021 C 
HETATM    8  C13 UNL     1      22.773   3.093  49.191  1.00  0.00     0.052 C 
HETATM    9  C14 UNL     1      22.605   3.950  47.979  1.00  0.00     0.090 C 
HETATM   10  C16 UNL     1      22.960   5.258  47.900  1.00  0.00     0.171 C 
HETATM   11  O2  UNL     1      23.544   6.149  48.842  1.00  0.00    -0.360 OA
HETATM   12  C17 UNL     1      23.887   5.839  50.180  1.00  0.00     0.182 C 
HETATM   13  C18 UNL     1      25.209   5.086  50.225  1.00  0.00     0.045 C 
ENDROOT
BRANCH   1  14
HETATM   14  N1  UNL     1      22.075   1.053  50.506  1.00  0.00    -0.340 N 
HETATM   15  H7  UNL     1      22.173   0.891  49.448  1.00  0.00     0.167 HD
BRANCH  14  16
HETATM   16  C7  UNL     1      21.087   0.496  51.410  1.00  0.00     0.034 A 
HETATM   17  C6  UNL     1      19.721   0.547  51.226  1.00  0.00     0.029 A 
HETATM   18  C5  UNL     1      18.888  -0.044  52.149  1.00  0.00     0.003 A 
HETATM   19  C4  UNL     1      19.370  -0.703  53.282  1.00  0.00     0.011 A 
HETATM   20  C3  UNL     1      20.741  -0.734  53.435  1.00  0.00    -0.035 A 
HETATM   21  C23 UNL     1      21.599  -0.153  52.528  1.00  0.00     0.041 A 
BRANCH  20  22
HETATM   22  C2  UNL     1      21.331  -1.413  54.582  1.00  0.00     0.001 C 
HETATM   23  C1  UNL     1      22.560  -1.223  55.035  1.00  0.00     0.012 C 
ENDBRANCH  20  22
ENDBRANCH  14  16
ENDBRANCH   1  14
BRANCH  13  24
HETATM   24  C19 UNL     1      25.935   5.259  48.959  1.00  0.00     0.010 C 
BRANCH  24  25
HETATM   25  C20 UNL     1      27.074   6.093  48.633  1.00  0.00     0.005 C 
HETATM   26  C21 UNL     1      27.351   7.481  48.486  1.00  0.00     0.063 C 
BRANCH  26  27
HETATM   27  C22 UNL     1      27.455   8.521  49.515  1.00  0.00     0.351 C 
BRANCH  27  28
HETATM   28  N4  UNL     1      26.776   8.505  50.738  1.00  0.00     0.106 N 
HETATM   29  H27 UNL     1      25.997   7.785  50.810  1.00  0.00     0.316 HD
HETATM   30  H28 UNL     1      27.312   8.457  51.610  1.00  0.00     0.316 HD
ENDBRANCH  27  28
BRANCH  27  31
HETATM   31  O3  UNL     1      28.861   8.813  49.762  1.00  0.00    -0.368 OA
HETATM   32  H29 UNL     1      28.973   9.807  49.678  1.00  0.00     0.212 HD
ENDBRANCH  27  31
ENDBRANCH  26  27
ENDBRANCH  24  25
ENDBRANCH  13  24
BRANCH   9  33
HETATM   33  O1  UNL     1      22.050   3.314  46.901  1.00  0.00    -0.354 OA
HETATM   34  C15 UNL     1      20.744   3.639  46.476  1.00  0.00     0.210 C 
ENDBRANCH   9  33
TORSDOF 9
ENDMDL
MODEL 6
REMARK VINA RESULT:      -7.8      3.698      8.382
REMARK  9 active torsions:
REMARK  status: ('A' for Active; 'I' for Inactive)
REMARK    1  A    between atoms: C2_2  and  C3_3 
REMARK    2  A    between atoms: C7_7  and  N1_8 
REMARK    3  A    between atoms: N1_8  and  C8_9 
REMARK    4  A    between atoms: C14_17  and  O1_18 
REMARK    5  A    between atoms: C18_23  and  C19_24 
REMARK    6  A    between atoms: C19_24  and  C20_25 
REMARK    7  A    between atoms: C21_26  and  C22_27 
REMARK    8  A    between atoms: C22_27  and  N4_28 
REMARK    9  A    between atoms: C22_27  and  O3_29 
ROOT
HETATM    1  C8  UNL     1      22.546   4.448  50.229  1.00  0.00     0.138 C 
HETATM    2  N2  UNL     1      21.410   4.712  50.832  1.00  0.00    -0.224 NA
HETATM    3  C9  UNL     1      20.964   3.886  51.898  1.00  0.00     0.230 C 
HETATM    4  N3  UNL     1      21.586   2.863  52.314  1.00  0.00    -0.267 NA
HETATM    5  C10 UNL     1      22.825   2.410  51.733  1.00  0.00     0.087 C 
HETATM    6  C11 UNL     1      22.378   1.241  50.816  1.00  0.00     0.046 C 
HETATM    7  C12 UNL     1      23.387   3.389  50.852  1.00  0.00     0.021 C 
HETATM    8  C13 UNL     1      24.590   3.760  50.338  1.00  0.00     0.052 C 
HETATM    9  C14 UNL     1      25.980   3.227  50.457  1.00  0.00     0.090 C 
HETATM   10  C16 UNL     1      26.508   2.685  51.585  1.00  0.00     0.171 C 
HETATM   11  O2  UNL     1      25.970   2.470  52.885  1.00  0.00    -0.360 OA
HETATM   12  C17 UNL     1      24.670   2.825  53.317  1.00  0.00     0.182 C 
HETATM   13  C18 UNL     1      23.655   1.798  52.837  1.00  0.00     0.045 C 
ENDROOT
BRANCH   1  14
HETATM   14  N1  UNL     1      22.953   5.276  49.153  1.00  0.00    -0.340 N 
HETATM   15  H7  UNL     1      23.568   6.078  49.519  1.00  0.00     0.167 HD
BRANCH  14  16
HETATM   16  C7  UNL     1      22.575   4.992  47.782  1.00  0.00     0.034 A 
HETATM   17  C6  UNL     1      22.078   3.789  47.325  1.00  0.00     0.029 A 
HETATM   18  C5  UNL     1      21.733   3.655  45.999  1.00  0.00     0.003 A 
HETATM   19  C4  UNL     1      21.867   4.699  45.079  1.00  0.00     0.011 A 
HETATM   20  C3  UNL     1      22.369   5.887  45.570  1.00  0.00    -0.035 A 
HETATM   21  C23 UNL     1      22.721   6.050  46.892  1.00  0.00     0.041 A 
BRANCH  20  22
HETATM   22  C2  UNL     1      22.528   7.032  44.683  1.00  0.00     0.001 C 
HETATM   23  C1  UNL     1      23.678   7.613  44.383  1.00  0.00     0.012 C 
ENDBRANCH  20  22
ENDBRANCH  14  16
ENDBRANCH   1  14
BRANCH  13  24
HETATM   24  C19 UNL     1      24.337   0.558  52.440  1.00  0.00     0.010 C 
BRANCH  24  25
HETATM   25  C20 UNL     1      25.064  -0.412  53.234  1.00  0.00     0.005 C 
HETATM   26  C21 UNL     1      26.381  -0.947  53.291  1.00  0.00     0.063 C 
BRANCH  26  27
HETATM   27  C22 UNL     1      27.621  -0.313  53.750  1.00  0.00     0.351 C 
BRANCH  27  28
HETATM   28  N4  UNL     1      27.707   0.599  54.807  1.00  0.00     0.106 N 
HETATM   29  H27 UNL     1      28.220   1.502  54.581  1.00  0.00     0.316 HD
HETATM   30  H28 UNL     1      26.856   0.856  55.319  1.00  0.00     0.316 HD
ENDBRANCH  27  28
BRANCH  27  31
HETATM   31  O3  UNL     1      28.646  -1.334  53.926  1.00  0.00    -0.368 OA
HETATM   32  H29 UNL     1      28.343  -1.929  54.674  1.00  0.00     0.212 HD
ENDBRANCH  27  31
ENDBRANCH  26  27
ENDBRANCH  24  25
ENDBRANCH  13  24
BRANCH   9  33
HETATM   33  O1  UNL     1      26.728   3.318  49.314  1.00  0.00    -0.354 OA
HETATM   34  C15 UNL     1      27.219   4.568  48.881  1.00  0.00     0.210 C 
ENDBRANCH   9  33
TORSDOF 9
ENDMDL
MODEL 7
REMARK VINA RESULT:      -7.7      2.524      3.729
REMARK  9 active torsions:
REMARK  status: ('A' for Active; 'I' for Inactive)
REMARK    1  A    between atoms: C2_2  and  C3_3 
REMARK    2  A    between atoms: C7_7  and  N1_8 
REMARK    3  A    between atoms: N1_8  and  C8_9 
REMARK    4  A    between atoms: C14_17  and  O1_18 
REMARK    5  A    between atoms: C18_23  and  C19_24 
REMARK    6  A    between atoms: C19_24  and  C20_25 
REMARK    7  A    between atoms: C21_26  and  C22_27 
REMARK    8  A    between atoms: C22_27  and  N4_28 
REMARK    9  A    between atoms: C22_27  and  O3_29 
ROOT
HETATM    1  C8  UNL     1      24.183   1.009  53.233  1.00  0.00     0.138 C 
HETATM    2  N2  UNL     1      24.432  -0.232  53.581  1.00  0.00    -0.224 NA
HETATM    3  C9  UNL     1      23.415  -1.218  53.469  1.00  0.00     0.230 C 
HETATM    4  N3  UNL     1      22.237  -0.981  53.069  1.00  0.00    -0.267 NA
HETATM    5  C10 UNL     1      21.786   0.335  52.691  1.00  0.00     0.087 C 
HETATM    6  C11 UNL     1      21.002   0.812  53.942  1.00  0.00     0.046 C 
HETATM    7  C12 UNL     1      22.879   1.250  52.556  1.00  0.00     0.021 C 
HETATM    8  C13 UNL     1      23.198   2.407  51.915  1.00  0.00     0.052 C 
HETATM    9  C14 UNL     1      22.453   3.331  51.009  1.00  0.00     0.090 C 
HETATM   10  C16 UNL     1      21.543   2.939  50.080  1.00  0.00     0.171 C 
HETATM   11  O2  UNL     1      21.053   1.658  49.702  1.00  0.00    -0.360 OA
HETATM   12  C17 UNL     1      21.461   0.417  50.247  1.00  0.00     0.182 C 
HETATM   13  C18 UNL     1      20.772   0.175  51.583  1.00  0.00     0.045 C 
ENDROOT
BRANCH   1  14
HETATM   14  N1  UNL     1      25.211   1.974  53.379  1.00  0.00    -0.340 N 
HETATM   15  H7  UNL     1      24.783   2.959  53.433  1.00  0.00     0.167 HD
BRANCH  14  16
HETATM   16  C7  UNL     1      26.609   1.599  53.465  1.00  0.00     0.034 A 
HETATM   17  C6  UNL     1      27.643   2.450  53.796  1.00  0.00     0.029 A 
HETATM   18  C5  UNL     1      28.929   1.962  53.867  1.00  0.00     0.003 A 
HETATM   19  C4  UNL     1      29.239   0.623  53.614  1.00  0.00     0.011 A 
HETATM   20  C3  UNL     1      28.180  -0.198  53.284  1.00  0.00    -0.035 A 
HETATM   21  C23 UNL     1      26.885   0.261  53.206  1.00  0.00     0.041 A 
BRANCH  20  22
HETATM   22  C2  UNL     1      28.412  -1.613  53.018  1.00  0.00     0.001 C 
HETATM   23  C1  UNL     1      27.491  -2.477  52.623  1.00  0.00     0.012 C 
ENDBRANCH  20  22
ENDBRANCH  14  16
ENDBRANCH   1  14
BRANCH  13  24
HETATM   24  C19 UNL     1      19.607   1.060  51.721  1.00  0.00     0.010 C 
BRANCH  24  25
HETATM   25  C20 UNL     1      18.193   0.788  51.556  1.00  0.00     0.005 C 
HETATM   26  C21 UNL     1      17.326  -0.337  51.627  1.00  0.00     0.063 C 
BRANCH  26  27
HETATM   27  C22 UNL     1      16.872  -1.086  52.803  1.00  0.00     0.351 C 
BRANCH  27  28
HETATM   28  N4  UNL     1      17.700  -1.516  53.844  1.00  0.00     0.106 N 
HETATM   29  H27 UNL     1      18.239  -0.744  54.339  1.00  0.00     0.316 HD
HETATM   30  H28 UNL     1      17.317  -2.129  54.572  1.00  0.00     0.316 HD
ENDBRANCH  27  28
BRANCH  27  31
HETATM   31  O3  UNL     1      15.704  -0.426  53.372  1.00  0.00    -0.368 OA
HETATM   32  H29 UNL     1      15.361  -1.017  54.107  1.00  0.00     0.212 HD
ENDBRANCH  27  31
ENDBRANCH  26  27
ENDBRANCH  24  25
ENDBRANCH  13  24
BRANCH   9  33
HETATM   33  O1  UNL     1      22.749   4.657  51.175  1.00  0.00    -0.354 OA
HETATM   34  C15 UNL     1      23.388   5.103  52.352  1.00  0.00     0.210 C 
ENDBRANCH   9  33
TORSDOF 9
ENDMDL
MODEL 8
REMARK VINA RESULT:      -7.6      3.334      5.687
REMARK  9 active torsions:
REMARK  status: ('A' for Active; 'I' for Inactive)
REMARK    1  A    between atoms: C2_2  and  C3_3 
REMARK    2  A    between atoms: C7_7  and  N1_8 
REMARK    3  A    between atoms: N1_8  and  C8_9 
REMARK    4  A    between atoms: C14_17  and  O1_18 
REMARK    5  A    between atoms: C18_23  and  C19_24 
REMARK    6  A    between atoms: C19_24  and  C20_25 
REMARK    7  A    between atoms: C21_26  and  C22_27 
REMARK    8  A    between atoms: C22_27  and  N4_28 
REMARK    9  A    between atoms: C22_27  and  O3_29 
ROOT
HETATM    1  C8  UNL     1      25.081   2.947  50.666  1.00  0.00     0.138 C 
HETATM    2  N2  UNL     1      25.771   2.777  51.769  1.00  0.00    -0.224 NA
HETATM    3  C9  UNL     1      25.110   2.404  52.970  1.00  0.00     0.230 C 
HETATM    4  N3  UNL     1      23.858   2.241  53.072  1.00  0.00    -0.267 NA
HETATM    5  C10 UNL     1      22.951   2.430  51.967  1.00  0.00     0.087 C 
HETATM    6  C11 UNL     1      22.360   3.839  52.235  1.00  0.00     0.046 C 
HETATM    7  C12 UNL     1      23.649   2.541  50.721  1.00  0.00     0.021 C 
HETATM    8  C13 UNL     1      23.442   2.353  49.390  1.00  0.00     0.052 C 
HETATM    9  C14 UNL     1      22.265   1.937  48.570  1.00  0.00     0.090 C 
HETATM   10  C16 UNL     1      21.337   1.024  48.954  1.00  0.00     0.171 C 
HETATM   11  O2  UNL     1      21.194   0.243  50.136  1.00  0.00    -0.360 OA
HETATM   12  C17 UNL     1      22.076   0.240  51.242  1.00  0.00     0.182 C 
HETATM   13  C18 UNL     1      21.814   1.448  52.130  1.00  0.00     0.045 C 
ENDROOT
BRANCH   1  14
HETATM   14  N1  UNL     1      25.765   3.341  49.489  1.00  0.00    -0.340 N 
HETATM   15  H7  UNL     1      25.828   2.514  48.807  1.00  0.00     0.167 HD
BRANCH  14  16
HETATM   16  C7  UNL     1      26.248   4.696  49.302  1.00  0.00     0.034 A 
HETATM   17  C6  UNL     1      27.392   5.045  48.614  1.00  0.00     0.029 A 
HETATM   18  C5  UNL     1      27.729   6.374  48.486  1.00  0.00     0.003 A 
HETATM   19  C4  UNL     1      26.954   7.401  49.031  1.00  0.00     0.011 A 
HETATM   20  C3  UNL     1      25.819   7.015  49.714  1.00  0.00    -0.035 A 
HETATM   21  C23 UNL     1      25.456   5.694  49.856  1.00  0.00     0.041 A 
BRANCH  20  22
HETATM   22  C2  UNL     1      24.945   8.022  50.302  1.00  0.00     0.001 C 
HETATM   23  C1  UNL     1      23.713   7.808  50.735  1.00  0.00     0.012 C 
ENDBRANCH  20  22
ENDBRANCH  14  16
ENDBRANCH   1  14
BRANCH  13  24
HETATM   24  C19 UNL     1      20.495   2.023  51.829  1.00  0.00     0.010 C 
BRANCH  24  25
HETATM   25  C20 UNL     1      19.166   1.553  52.164  1.00  0.00     0.005 C 
HETATM   26  C21 UNL     1      18.456   0.320  52.161  1.00  0.00     0.063 C 
BRANCH  26  27
HETATM   27  C22 UNL     1      18.599  -0.835  53.054  1.00  0.00     0.351 C 
BRANCH  27  28
HETATM   28  N4  UNL     1      19.681  -1.051  53.912  1.00  0.00     0.106 N 
HETATM   29  H27 UNL     1      20.407  -1.741  53.557  1.00  0.00     0.316 HD
HETATM   30  H28 UNL     1      20.192  -0.246  54.290  1.00  0.00     0.316 HD
ENDBRANCH  27  28
BRANCH  27  31
HETATM   31  O3  UNL     1      17.362  -1.020  53.801  1.00  0.00    -0.368 OA
HETATM   32  H29 UNL     1      16.960  -0.110  53.935  1.00  0.00     0.212 HD
ENDBRANCH  27  31
ENDBRANCH  26  27
ENDBRANCH  24  25
ENDBRANCH  13  24
BRANCH   9  33
HETATM   33  O1  UNL     1      22.167   2.558  47.354  1.00  0.00    -0.354 OA
HETATM   34  C15 UNL     1      21.283   3.643  47.177  1.00  0.00     0.210 C 
ENDBRANCH   9  33
TORSDOF 9
ENDMDL
MODEL 9
REMARK VINA RESULT:      -7.6      3.494      7.122
REMARK  9 active torsions:
REMARK  status: ('A' for Active; 'I' for Inactive)
REMARK    1  A    between atoms: C2_2  and  C3_3 
REMARK    2  A    between atoms: C7_7  and  N1_8 
REMARK    3  A    between atoms: N1_8  and  C8_9 
REMARK    4  A    between atoms: C14_17  and  O1_18 
REMARK    5  A    between atoms: C18_23  and  C19_24 
REMARK    6  A    between atoms: C19_24  and  C20_25 
REMARK    7  A    between atoms: C21_26  and  C22_27 
REMARK    8  A    between atoms: C22_27  and  N4_28 
REMARK    9  A    between atoms: C22_27  and  O3_29 
ROOT
HETATM    1  C8  UNL     1      21.237   3.974  51.511  1.00  0.00     0.138 C 
HETATM    2  N2  UNL     1      20.331   4.314  50.624  1.00  0.00    -0.224 NA
HETATM    3  C9  UNL     1      20.718   5.000  49.442  1.00  0.00     0.230 C 
HETATM    4  N3  UNL     1      21.907   5.344  49.176  1.00  0.00    -0.267 NA
HETATM    5  C10 UNL     1      23.015   5.087  50.063  1.00  0.00     0.087 C 
HETATM    6  C11 UNL     1      23.227   6.454  50.766  1.00  0.00     0.046 C 
HETATM    7  C12 UNL     1      22.656   4.174  51.106  1.00  0.00     0.021 C 
HETATM    8  C13 UNL     1      23.234   3.282  51.955  1.00  0.00     0.052 C 
HETATM    9  C14 UNL     1      24.642   2.852  52.209  1.00  0.00     0.090 C 
HETATM   10  C16 UNL     1      25.599   2.730  51.254  1.00  0.00     0.171 C 
HETATM   11  O2  UNL     1      25.581   2.945  49.848  1.00  0.00    -0.360 OA
HETATM   12  C17 UNL     1      24.461   3.345  49.082  1.00  0.00     0.182 C 
HETATM   13  C18 UNL     1      24.240   4.846  49.212  1.00  0.00     0.045 C 
ENDROOT
BRANCH   1  14
HETATM   14  N1  UNL     1      20.819   3.312  52.692  1.00  0.00    -0.340 N 
HETATM   15  H7  UNL     1      21.020   3.928  53.549  1.00  0.00     0.167 HD
BRANCH  14  16
HETATM   16  C7  UNL     1      20.189   2.006  52.656  1.00  0.00     0.034 A 
HETATM   17  C6  UNL     1      19.095   1.669  51.886  1.00  0.00     0.029 A 
HETATM   18  C5  UNL     1      18.606   0.383  51.925  1.00  0.00     0.003 A 
HETATM   19  C4  UNL     1      19.176  -0.613  52.723  1.00  0.00     0.011 A 
HETATM   20  C3  UNL     1      20.267  -0.241  53.481  1.00  0.00    -0.035 A 
HETATM   21  C23 UNL     1      20.778   1.038  53.461  1.00  0.00     0.041 A 
BRANCH  20  22
HETATM   22  C2  UNL     1      20.932  -1.221  54.331  1.00  0.00     0.001 C 
HETATM   23  C1  UNL     1      22.182  -1.142  54.756  1.00  0.00     0.012 C 
ENDBRANCH  20  22
ENDBRANCH  14  16
ENDBRANCH   1  14
BRANCH  13  24
HETATM   24  C19 UNL     1      25.452   5.493  49.734  1.00  0.00     0.010 C 
BRANCH  24  25
HETATM   25  C20 UNL     1      26.550   6.135  49.037  1.00  0.00     0.005 C 
HETATM   26  C21 UNL     1      26.942   7.456  48.688  1.00  0.00     0.063 C 
BRANCH  26  27
HETATM   27  C22 UNL     1      27.453   8.531  49.546  1.00  0.00     0.351 C 
BRANCH  27  28
HETATM   28  N4  UNL     1      26.997   8.803  50.840  1.00  0.00     0.106 N 
HETATM   29  H27 UNL     1      26.547   9.757  50.967  1.00  0.00     0.316 HD
HETATM   30  H28 UNL     1      26.397   8.121  51.315  1.00  0.00     0.316 HD
ENDBRANCH  27  28
BRANCH  27  31
HETATM   31  O3  UNL     1      28.909   8.484  49.559  1.00  0.00    -0.368 OA
HETATM   32  H29 UNL     1      29.196   8.537  50.519  1.00  0.00     0.212 HD
ENDBRANCH  27  31
ENDBRANCH  26  27
ENDBRANCH  24  25
ENDBRANCH  13  24
BRANCH   9  33
HETATM   33  O1  UNL     1      24.928   2.578  53.519  1.00  0.00    -0.354 OA
HETATM   34  C15 UNL     1      26.172   2.014  53.875  1.00  0.00     0.210 C 
ENDBRANCH   9  33
TORSDOF 9
ENDMDL
