MODEL 1
REMARK VINA RESULT:      -7.5      0.000      0.000
REMARK  5 active torsions:
REMARK  status: ('A' for Active; 'I' for Inactive)
REMARK    1  A    between atoms: O1_2  and  C2_3 
REMARK    2  A    between atoms: C6_7  and  P1_9 
REMARK    3  A    between atoms: P1_9  and  N1_10 
REMARK    4  A    between atoms: N1_10  and  C8_12 
REMARK    5  A    between atoms: C15_19  and  O2_20 
ROOT
HETATM    1  C2  UNL     1      26.630  -0.168  53.553  1.00  0.00     0.098 A 
HETATM    2  C3  UNL     1      26.944   0.590  52.514  1.00  0.00     0.017 A 
HETATM    3  C4  UNL     1      25.950   1.313  51.716  1.00  0.00     0.070 A 
HETATM    4  C5  UNL     1      24.564   1.107  52.190  1.00  0.00    -0.028 A 
HETATM    5  C6  UNL     1      23.587   1.718  51.539  1.00  0.00     0.062 C 
HETATM    6 CL1  UNL     1      21.921   1.549  52.007  1.00  0.00    -0.081 Cl
HETATM    7  C14 UNL     1      24.269   0.262  53.341  1.00  0.00     0.049 A 
HETATM    8  C15 UNL     1      25.252  -0.343  53.986  1.00  0.00     0.101 A 
ENDROOT
BRANCH   5   9
HETATM    9  P1  UNL     1      23.890   2.777  50.107  1.00  0.00     0.019 P 
HETATM   10  H7  UNL     1      24.915   2.215  49.225  1.00  0.00     0.086 HD
BRANCH   9  11
HETATM   11  N1  UNL     1      24.423   4.418  50.603  1.00  0.00    -0.357 N 
HETATM   12  C7  UNL     1      23.767   5.109  51.722  1.00  0.00     0.155 C 
BRANCH  11  13
HETATM   13  C8  UNL     1      25.492   5.041  49.896  1.00  0.00     0.033 A 
HETATM   14  C9  UNL     1      25.620   6.397  49.684  1.00  0.00     0.029 A 
HETATM   15  C10 UNL     1      26.695   6.923  48.984  1.00  0.00     0.002 A 
HETATM   16  C11 UNL     1      27.682   6.105  48.471  1.00  0.00     0.000 A 
HETATM   17  C12 UNL     1      27.587   4.735  48.664  1.00  0.00     0.002 A 
HETATM   18  C13 UNL     1      26.497   4.252  49.368  1.00  0.00     0.029 A 
ENDBRANCH  11  13
ENDBRANCH   9  11
ENDBRANCH   5   9
BRANCH   8  19
HETATM   19  O2  UNL     1      25.096  -1.170  55.090  1.00  0.00    -0.353 OA
HETATM   20  C16 UNL     1      23.819  -1.312  55.678  1.00  0.00     0.210 C 
ENDBRANCH   8  19
BRANCH   1  21
HETATM   21  O1  UNL     1      27.784  -0.714  54.094  1.00  0.00    -0.353 OA
HETATM   22  C1  UNL     1      28.757   0.174  54.596  1.00  0.00     0.210 C 
ENDBRANCH   1  21
TORSDOF 5
ENDMDL
MODEL 2
REMARK VINA RESULT:      -7.4      1.505      2.059
REMARK  5 active torsions:
REMARK  status: ('A' for Active; 'I' for Inactive)
REMARK    1  A    between atoms: O1_2  and  C2_3 
REMARK    2  A    between atoms: C6_7  and  P1_9 
REMARK    3  A    between atoms: P1_9  and  N1_10 
REMARK    4  A    between atoms: N1_10  and  C8_12 
REMARK    5  A    between atoms: C15_19  and  O2_20 
ROOT
HETATM    1  C2  UNL     1      26.724   0.845  54.098  1.00  0.00     0.098 A 
HETATM    2  C3  UNL     1      26.422   2.129  53.977  1.00  0.00     0.017 A 
HETATM    3  C4  UNL     1      25.229   2.612  53.278  1.00  0.00     0.070 A 
HETATM    4  C5  UNL     1      24.400   1.521  52.721  1.00  0.00    -0.028 A 
HETATM    5  C6  UNL     1      23.297   1.850  52.068  1.00  0.00     0.062 C 
HETATM    6 CL1  UNL     1      22.246   0.651  51.372  1.00  0.00    -0.081 Cl
HETATM    7  C14 UNL     1      24.775   0.122  52.880  1.00  0.00     0.049 A 
HETATM    8  C15 UNL     1      25.879  -0.197  53.535  1.00  0.00     0.101 A 
ENDROOT
BRANCH   5   9
HETATM    9  P1  UNL     1      22.781   3.565  51.838  1.00  0.00     0.019 P 
HETATM   10  H7  UNL     1      21.355   3.744  52.123  1.00  0.00     0.086 HD
BRANCH   9  11
HETATM   11  N1  UNL     1      23.087   4.126  50.160  1.00  0.00    -0.357 N 
HETATM   12  C7  UNL     1      21.971   4.335  49.228  1.00  0.00     0.155 C 
BRANCH  11  13
HETATM   13  C8  UNL     1      24.430   4.367  49.745  1.00  0.00     0.033 A 
HETATM   14  C9  UNL     1      25.431   3.421  49.712  1.00  0.00     0.029 A 
HETATM   15  C10 UNL     1      26.714   3.738  49.294  1.00  0.00     0.002 A 
HETATM   16  C11 UNL     1      27.038   5.019  48.893  1.00  0.00     0.000 A 
HETATM   17  C12 UNL     1      26.056   5.998  48.913  1.00  0.00     0.002 A 
HETATM   18  C13 UNL     1      24.789   5.638  49.338  1.00  0.00     0.029 A 
ENDBRANCH  11  13
ENDBRANCH   9  11
ENDBRANCH   5   9
BRANCH   8  19
HETATM   19  O2  UNL     1      26.339  -1.489  53.749  1.00  0.00    -0.353 OA
HETATM   20  C16 UNL     1      27.060  -2.150  52.730  1.00  0.00     0.210 C 
ENDBRANCH   8  19
BRANCH   1  21
HETATM   21  O1  UNL     1      27.907   0.712  54.809  1.00  0.00    -0.353 OA
HETATM   22  C1  UNL     1      29.117   0.808  54.092  1.00  0.00     0.210 C 
ENDBRANCH   1  21
TORSDOF 5
ENDMDL
MODEL 3
REMARK VINA RESULT:      -7.2      1.946      2.823
REMARK  5 active torsions:
REMARK  status: ('A' for Active; 'I' for Inactive)
REMARK    1  A    between atoms: O1_2  and  C2_3 
REMARK    2  A    between atoms: C6_7  and  P1_9 
REMARK    3  A    between atoms: P1_9  and  N1_10 
REMARK    4  A    between atoms: N1_10  and  C8_12 
REMARK    5  A    between atoms: C15_19  and  O2_20 
ROOT
HETATM    1  C2  UNL     1      27.236  -0.365  53.610  1.00  0.00     0.098 A 
HETATM    2  C3  UNL     1      26.303  -0.774  52.764  1.00  0.00     0.017 A 
HETATM    3  C4  UNL     1      25.206   0.080  52.303  1.00  0.00     0.070 A 
HETATM    4  C5  UNL     1      25.247   1.442  52.880  1.00  0.00    -0.028 A 
HETATM    5  C6  UNL     1      24.300   2.296  52.528  1.00  0.00     0.062 C 
HETATM    6 CL1  UNL     1      24.249   3.921  53.143  1.00  0.00    -0.081 Cl
HETATM    7  C14 UNL     1      26.296   1.844  53.809  1.00  0.00     0.049 A 
HETATM    8  C15 UNL     1      27.239   0.984  54.154  1.00  0.00     0.101 A 
ENDROOT
BRANCH   5   9
HETATM    9  P1  UNL     1      22.975   1.856  51.382  1.00  0.00     0.019 P 
HETATM   10  H7  UNL     1      22.800   0.404  51.288  1.00  0.00     0.086 HD
BRANCH   9  11
HETATM   11  N1  UNL     1      23.296   2.485  49.731  1.00  0.00    -0.357 N 
HETATM   12  C7  UNL     1      22.430   2.105  48.607  1.00  0.00     0.155 C 
BRANCH  11  13
HETATM   13  C8  UNL     1      24.404   3.359  49.527  1.00  0.00     0.033 A 
HETATM   14  C9  UNL     1      25.730   2.989  49.595  1.00  0.00     0.029 A 
HETATM   15  C10 UNL     1      26.749   3.904  49.383  1.00  0.00     0.002 A 
HETATM   16  C11 UNL     1      26.473   5.226  49.094  1.00  0.00     0.000 A 
HETATM   17  C12 UNL     1      25.151   5.635  49.017  1.00  0.00     0.002 A 
HETATM   18  C13 UNL     1      24.164   4.689  49.237  1.00  0.00     0.029 A 
ENDBRANCH  11  13
ENDBRANCH   9  11
ENDBRANCH   5   9
BRANCH   8  19
HETATM   19  O2  UNL     1      28.285   1.250  55.028  1.00  0.00    -0.353 OA
HETATM   20  C16 UNL     1      29.403   1.983  54.573  1.00  0.00     0.210 C 
ENDBRANCH   8  19
BRANCH   1  21
HETATM   21  O1  UNL     1      28.128  -1.399  53.850  1.00  0.00    -0.353 OA
HETATM   22  C1  UNL     1      29.374  -1.356  53.193  1.00  0.00     0.210 C 
ENDBRANCH   1  21
TORSDOF 5
ENDMDL
MODEL 4
REMARK VINA RESULT:      -6.8      3.365      5.981
REMARK  5 active torsions:
REMARK  status: ('A' for Active; 'I' for Inactive)
REMARK    1  A    between atoms: O1_2  and  C2_3 
REMARK    2  A    between atoms: C6_7  and  P1_9 
REMARK    3  A    between atoms: P1_9  and  N1_10 
REMARK    4  A    between atoms: N1_10  and  C8_12 
REMARK    5  A    between atoms: C15_19  and  O2_20 
ROOT
HETATM    1  C2  UNL     1      26.938   0.055  53.661  1.00  0.00     0.098 A 
HETATM    2  C3  UNL     1      25.971  -0.546  52.985  1.00  0.00     0.017 A 
HETATM    3  C4  UNL     1      24.854   0.174  52.369  1.00  0.00     0.070 A 
HETATM    4  C5  UNL     1      24.917   1.637  52.582  1.00  0.00    -0.028 A 
HETATM    5  C6  UNL     1      23.953   2.382  52.066  1.00  0.00     0.062 C 
HETATM    6 CL1  UNL     1      23.925   4.111  52.253  1.00  0.00    -0.081 Cl
HETATM    7  C14 UNL     1      26.004   2.251  53.335  1.00  0.00     0.049 A 
HETATM    8  C15 UNL     1      26.962   1.497  53.846  1.00  0.00     0.101 A 
ENDROOT
BRANCH   5   9
HETATM    9  P1  UNL     1      22.581   1.679  51.124  1.00  0.00     0.019 P 
HETATM   10  H7  UNL     1      22.391   2.370  49.847  1.00  0.00     0.086 HD
BRANCH   9  11
HETATM   11  N1  UNL     1      21.039   1.769  52.040  1.00  0.00    -0.357 N 
HETATM   12  C7  UNL     1      20.285   3.028  52.107  1.00  0.00     0.155 C 
BRANCH  11  13
HETATM   13  C8  UNL     1      20.558   0.601  52.700  1.00  0.00     0.033 A 
HETATM   14  C9  UNL     1      19.293   0.073  52.556  1.00  0.00     0.029 A 
HETATM   15  C10 UNL     1      18.903  -1.071  53.236  1.00  0.00     0.002 A 
HETATM   16  C11 UNL     1      19.772  -1.727  54.085  1.00  0.00     0.000 A 
HETATM   17  C12 UNL     1      21.053  -1.225  54.255  1.00  0.00     0.002 A 
HETATM   18  C13 UNL     1      21.401  -0.080  53.558  1.00  0.00     0.029 A 
ENDBRANCH  11  13
ENDBRANCH   9  11
ENDBRANCH   5   9
BRANCH   8  19
HETATM   19  O2  UNL     1      28.044   1.966  54.580  1.00  0.00    -0.353 OA
HETATM   20  C16 UNL     1      29.219   2.369  53.907  1.00  0.00     0.210 C 
ENDBRANCH   8  19
BRANCH   1  21
HETATM   21  O1  UNL     1      27.843  -0.893  54.116  1.00  0.00    -0.353 OA
HETATM   22  C1  UNL     1      28.774  -1.409  53.192  1.00  0.00     0.210 C 
ENDBRANCH   1  21
TORSDOF 5
ENDMDL
MODEL 5
REMARK VINA RESULT:      -6.8      2.990      6.260
REMARK  5 active torsions:
REMARK  status: ('A' for Active; 'I' for Inactive)
REMARK    1  A    between atoms: O1_2  and  C2_3 
REMARK    2  A    between atoms: C6_7  and  P1_9 
REMARK    3  A    between atoms: P1_9  and  N1_10 
REMARK    4  A    between atoms: N1_10  and  C8_12 
REMARK    5  A    between atoms: C15_19  and  O2_20 
ROOT
HETATM    1  C2  UNL     1      26.370   2.556  51.596  1.00  0.00     0.098 A 
HETATM    2  C3  UNL     1      25.456   2.304  52.520  1.00  0.00     0.017 A 
HETATM    3  C4  UNL     1      24.049   2.691  52.385  1.00  0.00     0.070 A 
HETATM    4  C5  UNL     1      23.758   3.391  51.115  1.00  0.00    -0.028 A 
HETATM    5  C6  UNL     1      22.514   3.784  50.893  1.00  0.00     0.062 C 
HETATM    6 CL1  UNL     1      22.057   4.615  49.435  1.00  0.00    -0.081 Cl
HETATM    7  C14 UNL     1      24.801   3.645  50.128  1.00  0.00     0.049 A 
HETATM    8  C15 UNL     1      26.040   3.247  50.359  1.00  0.00     0.101 A 
ENDROOT
BRANCH   5   9
HETATM    9  P1  UNL     1      21.180   3.498  52.077  1.00  0.00     0.019 P 
HETATM   10  H7  UNL     1      21.628   3.702  53.457  1.00  0.00     0.086 HD
BRANCH   9  11
HETATM   11  N1  UNL     1      20.529   1.830  51.945  1.00  0.00    -0.357 N 
HETATM   12  C7  UNL     1      19.474   1.516  50.973  1.00  0.00     0.155 C 
BRANCH  11  13
HETATM   13  C8  UNL     1      21.052   0.814  52.798  1.00  0.00     0.033 A 
HETATM   14  C9  UNL     1      20.759   0.674  54.138  1.00  0.00     0.029 A 
HETATM   15  C10 UNL     1      21.312  -0.345  54.898  1.00  0.00     0.002 A 
HETATM   16  C11 UNL     1      22.179  -1.262  54.339  1.00  0.00     0.000 A 
HETATM   17  C12 UNL     1      22.497  -1.154  52.993  1.00  0.00     0.002 A 
HETATM   18  C13 UNL     1      21.924  -0.120  52.271  1.00  0.00     0.029 A 
ENDBRANCH  11  13
ENDBRANCH   9  11
ENDBRANCH   5   9
BRANCH   8  19
HETATM   19  O2  UNL     1      27.114   3.433  49.499  1.00  0.00    -0.353 OA
HETATM   20  C16 UNL     1      27.277   4.676  48.847  1.00  0.00     0.210 C 
ENDBRANCH   8  19
BRANCH   1  21
HETATM   21  O1  UNL     1      27.599   2.068  52.015  1.00  0.00    -0.353 OA
HETATM   22  C1  UNL     1      27.971   2.291  53.356  1.00  0.00     0.210 C 
ENDBRANCH   1  21
TORSDOF 5
ENDMDL
MODEL 6
REMARK VINA RESULT:      -6.7      3.646      7.204
REMARK  5 active torsions:
REMARK  status: ('A' for Active; 'I' for Inactive)
REMARK    1  A    between atoms: O1_2  and  C2_3 
REMARK    2  A    between atoms: C6_7  and  P1_9 
REMARK    3  A    between atoms: P1_9  and  N1_10 
REMARK    4  A    between atoms: N1_10  and  C8_12 
REMARK    5  A    between atoms: C15_19  and  O2_20 
ROOT
HETATM    1  C2  UNL     1      28.192   6.126  48.362  1.00  0.00     0.098 A 
HETATM    2  C3  UNL     1      27.941   4.836  48.524  1.00  0.00     0.017 A 
HETATM    3  C4  UNL     1      26.700   4.326  49.111  1.00  0.00     0.070 A 
HETATM    4  C5  UNL     1      25.760   5.399  49.505  1.00  0.00    -0.028 A 
HETATM    5  C6  UNL     1      24.606   5.046  50.047  1.00  0.00     0.062 C 
HETATM    6 CL1  UNL     1      23.425   6.221  50.547  1.00  0.00    -0.081 Cl
HETATM    7  C14 UNL     1      26.083   6.806  49.306  1.00  0.00     0.049 A 
HETATM    8  C15 UNL     1      27.239   7.149  48.763  1.00  0.00     0.101 A 
ENDROOT
BRANCH   5   9
HETATM    9  P1  UNL     1      24.149   3.320  50.319  1.00  0.00     0.019 P 
HETATM   10  H7  UNL     1      22.736   3.080  50.018  1.00  0.00     0.086 HD
BRANCH   9  11
HETATM   11  N1  UNL     1      24.449   2.818  52.017  1.00  0.00    -0.357 N 
HETATM   12  C7  UNL     1      24.043   3.684  53.132  1.00  0.00     0.155 C 
BRANCH  11  13
HETATM   13  C8  UNL     1      25.086   1.568  52.266  1.00  0.00     0.033 A 
HETATM   14  C9  UNL     1      26.323   1.197  51.783  1.00  0.00     0.029 A 
HETATM   15  C10 UNL     1      26.873  -0.042  52.074  1.00  0.00     0.002 A 
HETATM   16  C11 UNL     1      26.200  -0.954  52.862  1.00  0.00     0.000 A 
HETATM   17  C12 UNL     1      24.953  -0.616  53.367  1.00  0.00     0.002 A 
HETATM   18  C13 UNL     1      24.441   0.631  53.051  1.00  0.00     0.029 A 
ENDBRANCH  11  13
ENDBRANCH   9  11
ENDBRANCH   5   9
BRANCH   8  19
HETATM   19  O2  UNL     1      27.658   8.451  48.525  1.00  0.00    -0.353 OA
HETATM   20  C16 UNL     1      28.342   9.159  49.539  1.00  0.00     0.210 C 
ENDBRANCH   8  19
BRANCH   1  21
HETATM   21  O1  UNL     1      29.442   6.285  47.783  1.00  0.00    -0.353 OA
HETATM   22  C1  UNL     1      30.574   6.028  48.582  1.00  0.00     0.210 C 
ENDBRANCH   1  21
TORSDOF 5
ENDMDL
MODEL 7
REMARK VINA RESULT:      -6.7      2.576      5.105
REMARK  5 active torsions:
REMARK  status: ('A' for Active; 'I' for Inactive)
REMARK    1  A    between atoms: O1_2  and  C2_3 
REMARK    2  A    between atoms: C6_7  and  P1_9 
REMARK    3  A    between atoms: P1_9  and  N1_10 
REMARK    4  A    between atoms: N1_10  and  C8_12 
REMARK    5  A    between atoms: C15_19  and  O2_20 
ROOT
HETATM    1  C2  UNL     1      25.750  -0.220  53.620  1.00  0.00     0.098 A 
HETATM    2  C3  UNL     1      24.599   0.429  53.531  1.00  0.00     0.017 A 
HETATM    3  C4  UNL     1      24.352   1.497  52.559  1.00  0.00     0.070 A 
HETATM    4  C5  UNL     1      25.519   1.776  51.693  1.00  0.00    -0.028 A 
HETATM    5  C6  UNL     1      25.401   2.724  50.778  1.00  0.00     0.062 C 
HETATM    6 CL1  UNL     1      26.706   3.137  49.705  1.00  0.00    -0.081 Cl
HETATM    7  C14 UNL     1      26.765   1.032  51.831  1.00  0.00     0.049 A 
HETATM    8  C15 UNL     1      26.872   0.085  52.747  1.00  0.00     0.101 A 
ENDROOT
BRANCH   5   9
HETATM    9  P1  UNL     1      23.883   3.679  50.560  1.00  0.00     0.019 P 
HETATM   10  H7  UNL     1      23.359   4.162  51.839  1.00  0.00     0.086 HD
BRANCH   9  11
HETATM   11  N1  UNL     1      22.601   2.704  49.767  1.00  0.00    -0.357 N 
HETATM   12  C7  UNL     1      22.573   2.555  48.306  1.00  0.00     0.155 C 
BRANCH  11  13
HETATM   13  C8  UNL     1      21.610   2.075  50.577  1.00  0.00     0.033 A 
HETATM   14  C9  UNL     1      21.221   0.757  50.475  1.00  0.00     0.029 A 
HETATM   15  C10 UNL     1      20.248   0.222  51.305  1.00  0.00     0.002 A 
HETATM   16  C11 UNL     1      19.629   0.993  52.268  1.00  0.00     0.000 A 
HETATM   17  C12 UNL     1      19.994   2.324  52.401  1.00  0.00     0.002 A 
HETATM   18  C13 UNL     1      20.970   2.818  51.551  1.00  0.00     0.029 A 
ENDBRANCH  11  13
ENDBRANCH   9  11
ENDBRANCH   5   9
BRANCH   8  19
HETATM   19  O2  UNL     1      28.005  -0.686  52.973  1.00  0.00    -0.353 OA
HETATM   20  C16 UNL     1      29.004  -0.214  53.854  1.00  0.00     0.210 C 
ENDBRANCH   8  19
BRANCH   1  21
HETATM   21  O1  UNL     1      25.670  -1.167  54.631  1.00  0.00    -0.353 OA
HETATM   22  C1  UNL     1      24.498  -1.196  55.412  1.00  0.00     0.210 C 
ENDBRANCH   1  21
TORSDOF 5
ENDMDL
MODEL 8
REMARK VINA RESULT:      -6.6      3.328      6.095
REMARK  5 active torsions:
REMARK  status: ('A' for Active; 'I' for Inactive)
REMARK    1  A    between atoms: O1_2  and  C2_3 
REMARK    2  A    between atoms: C6_7  and  P1_9 
REMARK    3  A    between atoms: P1_9  and  N1_10 
REMARK    4  A    between atoms: N1_10  and  C8_12 
REMARK    5  A    between atoms: C15_19  and  O2_20 
ROOT
HETATM    1  C2  UNL     1      25.615   0.271  54.219  1.00  0.00     0.098 A 
HETATM    2  C3  UNL     1      24.480  -0.219  53.742  1.00  0.00     0.017 A 
HETATM    3  C4  UNL     1      23.710   0.428  52.678  1.00  0.00     0.070 A 
HETATM    4  C5  UNL     1      24.328   1.682  52.193  1.00  0.00    -0.028 A 
HETATM    5  C6  UNL     1      23.712   2.347  51.229  1.00  0.00     0.062 C 
HETATM    6 CL1  UNL     1      24.346   3.831  50.582  1.00  0.00    -0.081 Cl
HETATM    7  C14 UNL     1      25.579   2.180  52.750  1.00  0.00     0.049 A 
HETATM    8  C15 UNL     1      26.188   1.508  53.713  1.00  0.00     0.101 A 
ENDROOT
BRANCH   5   9
HETATM    9  P1  UNL     1      22.159   1.780  50.499  1.00  0.00     0.019 P 
HETATM   10  H7  UNL     1      21.904   2.420  49.207  1.00  0.00     0.086 HD
BRANCH   9  11
HETATM   11  N1  UNL     1      20.762   2.122  51.575  1.00  0.00    -0.357 N 
HETATM   12  C7  UNL     1      20.537   3.477  52.096  1.00  0.00     0.155 C 
BRANCH  11  13
HETATM   13  C8  UNL     1      19.875   1.059  51.914  1.00  0.00     0.033 A 
HETATM   14  C9  UNL     1      19.988   0.256  53.029  1.00  0.00     0.029 A 
HETATM   15  C10 UNL     1      19.079  -0.758  53.286  1.00  0.00     0.002 A 
HETATM   16  C11 UNL     1      18.022  -1.003  52.433  1.00  0.00     0.000 A 
HETATM   17  C12 UNL     1      17.875  -0.215  51.301  1.00  0.00     0.002 A 
HETATM   18  C13 UNL     1      18.806   0.786  51.082  1.00  0.00     0.029 A 
ENDBRANCH  11  13
ENDBRANCH   9  11
ENDBRANCH   5   9
BRANCH   8  19
HETATM   19  O2  UNL     1      27.379   1.882  54.320  1.00  0.00    -0.353 OA
HETATM   20  C16 UNL     1      28.459   2.323  53.523  1.00  0.00     0.210 C 
ENDBRANCH   8  19
BRANCH   1  21
HETATM   21  O1  UNL     1      26.099  -0.566  55.213  1.00  0.00    -0.353 OA
HETATM   22  C1  UNL     1      25.187  -1.026  56.185  1.00  0.00     0.210 C 
ENDBRANCH   1  21
TORSDOF 5
ENDMDL
MODEL 9
REMARK VINA RESULT:      -6.6      4.267      7.086
REMARK  5 active torsions:
REMARK  status: ('A' for Active; 'I' for Inactive)
REMARK    1  A    between atoms: O1_2  and  C2_3 
REMARK    2  A    between atoms: C6_7  and  P1_9 
REMARK    3  A    between atoms: P1_9  and  N1_10 
REMARK    4  A    between atoms: N1_10  and  C8_12 
REMARK    5  A    between atoms: C15_19  and  O2_20 
ROOT
HETATM    1  C2  UNL     1      25.819   1.879  51.543  1.00  0.00     0.098 A 
HETATM    2  C3  UNL     1      24.709   2.572  51.339  1.00  0.00     0.017 A 
HETATM    3  C4  UNL     1      23.409   2.190  51.897  1.00  0.00     0.070 A 
HETATM    4  C5  UNL     1      23.465   0.954  52.707  1.00  0.00    -0.028 A 
HETATM    5  C6  UNL     1      22.343   0.520  53.258  1.00  0.00     0.062 C 
HETATM    6 CL1  UNL     1      22.290  -0.921  54.230  1.00  0.00    -0.081 Cl
HETATM    7  C14 UNL     1      24.713   0.226  52.902  1.00  0.00     0.049 A 
HETATM    8  C15 UNL     1      25.829   0.668  52.347  1.00  0.00     0.101 A 
ENDROOT
BRANCH   5   9
HETATM    9  P1  UNL     1      20.767   1.379  53.053  1.00  0.00     0.019 P 
HETATM   10  H7  UNL     1      19.934   1.276  54.254  1.00  0.00     0.086 HD
BRANCH   9  11
HETATM   11  N1  UNL     1      19.831   0.717  51.670  1.00  0.00    -0.357 N 
HETATM   12  C7  UNL     1      20.240   1.004  50.288  1.00  0.00     0.155 C 
BRANCH  11  13
HETATM   13  C8  UNL     1      18.687  -0.091  51.933  1.00  0.00     0.033 A 
HETATM   14  C9  UNL     1      17.520  -0.076  51.200  1.00  0.00     0.029 A 
HETATM   15  C10 UNL     1      16.450  -0.897  51.523  1.00  0.00     0.002 A 
HETATM   16  C11 UNL     1      16.515  -1.764  52.595  1.00  0.00     0.000 A 
HETATM   17  C12 UNL     1      17.674  -1.807  53.356  1.00  0.00     0.002 A 
HETATM   18  C13 UNL     1      18.717  -0.970  52.999  1.00  0.00     0.029 A 
ENDBRANCH  11  13
ENDBRANCH   9  11
ENDBRANCH   5   9
BRANCH   8  19
HETATM   19  O2  UNL     1      27.073   0.061  52.460  1.00  0.00    -0.353 OA
HETATM   20  C16 UNL     1      27.158  -1.279  52.900  1.00  0.00     0.210 C 
ENDBRANCH   8  19
BRANCH   1  21
HETATM   21  O1  UNL     1      26.875   2.493  50.887  1.00  0.00    -0.353 OA
HETATM   22  C1  UNL     1      26.569   3.357  49.816  1.00  0.00     0.210 C 
ENDBRANCH   1  21
TORSDOF 5
ENDMDL
