MODEL 1
REMARK VINA RESULT:      -8.4      0.000      0.000
REMARK  4 active torsions:
REMARK  status: ('A' for Active; 'I' for Inactive)
REMARK    1  A    between atoms: C2_2  and  C3_4 
REMARK    2  A    between atoms: C4_6  and  C5_7 
REMARK    3  A    between atoms: C6_8  and  N1_9 
REMARK    4  A    between atoms: N1_9  and  C7_10 
ROOT
HETATM    1  C7  UNL     1      23.874  -0.116  53.501  1.00  0.00     0.159 A 
HETATM    2  N2  UNL     1      24.255  -0.853  54.560  1.00  0.00    -0.222 NA
HETATM    3  C8  UNL     1      23.399  -1.390  55.446  1.00  0.00     0.238 A 
HETATM    4  N3  UNL     1      22.084  -1.173  55.252  1.00  0.00    -0.215 NA
HETATM    5  C9  UNL     1      21.634  -0.438  54.201  1.00  0.00     0.202 A 
HETATM    6  C10 UNL     1      22.526   0.120  53.285  1.00  0.00     0.129 A 
HETATM    7  N4  UNL     1      22.196   0.907  52.150  1.00  0.00    -0.379 N 
HETATM    8  C11 UNL     1      20.935   1.574  51.890  1.00  0.00     0.161 C 
HETATM    9  C12 UNL     1      19.762   0.658  52.005  1.00  0.00    -0.007 A 
HETATM   10  C13 UNL     1      18.982   0.796  50.856  1.00  0.00     0.011 A 
HETATM   11  C14 UNL     1      17.827   0.008  50.788  1.00  0.00     0.001 A 
HETATM   12  C15 UNL     1      17.518  -0.845  51.826  1.00  0.00     0.003 A 
HETATM   13  C16 UNL     1      18.299  -0.973  52.958  1.00  0.00     0.038 A 
HETATM   14  C17 UNL     1      19.459  -0.192  53.046  1.00  0.00     0.086 A 
HETATM   15  O1  UNL     1      20.224  -0.355  54.217  1.00  0.00    -0.289 OA
HETATM   16  H8  UNL     1      23.003   0.956  51.494  1.00  0.00     0.160 HD
ENDROOT
BRANCH   1  17
HETATM   17  N1  UNL     1      24.810   0.448  52.573  1.00  0.00    -0.349 N 
HETATM   18  H6  UNL     1      25.249   0.228  51.670  1.00  0.00     0.167 HD
BRANCH  17  19
HETATM   19  C6  UNL     1      25.085   1.651  53.298  1.00  0.00     0.090 C 
HETATM   20  C5  UNL     1      26.360   1.897  53.573  1.00  0.00     0.020 C 
BRANCH  20  21
HETATM   21  C4  UNL     1      27.384   0.956  53.135  1.00  0.00     0.045 C 
HETATM   22  C3  UNL     1      27.888  -0.003  53.875  1.00  0.00     0.137 C 
HETATM   23  F1  UNL     1      27.390  -0.088  55.132  1.00  0.00    -0.204 F 
BRANCH  22  24
HETATM   24  C2  UNL     1      28.904  -0.980  53.523  1.00  0.00     0.063 C 
HETATM   25  C1  UNL     1      30.204  -0.732  53.554  1.00  0.00     0.040 C 
HETATM   26 CL1  UNL     1      28.587  -2.620  53.005  1.00  0.00    -0.082 Cl
ENDBRANCH  22  24
ENDBRANCH  20  21
ENDBRANCH  17  19
ENDBRANCH   1  17
TORSDOF 4
ENDMDL
MODEL 2
REMARK VINA RESULT:      -8.3      3.306      6.984
REMARK  4 active torsions:
REMARK  status: ('A' for Active; 'I' for Inactive)
REMARK    1  A    between atoms: C2_2  and  C3_4 
REMARK    2  A    between atoms: C4_6  and  C5_7 
REMARK    3  A    between atoms: C6_8  and  N1_9 
REMARK    4  A    between atoms: N1_9  and  C7_10 
ROOT
HETATM    1  C7  UNL     1      22.466   0.233  53.782  1.00  0.00     0.159 A 
HETATM    2  N2  UNL     1      21.942  -0.637  54.664  1.00  0.00    -0.222 NA
HETATM    3  C8  UNL     1      22.671  -1.510  55.379  1.00  0.00     0.238 A 
HETATM    4  N3  UNL     1      24.006  -1.504  55.196  1.00  0.00    -0.215 NA
HETATM    5  C9  UNL     1      24.598  -0.649  54.320  1.00  0.00     0.202 A 
HETATM    6  C10 UNL     1      23.836   0.255  53.578  1.00  0.00     0.129 A 
HETATM    7  N4  UNL     1      24.320   1.197  52.632  1.00  0.00    -0.379 N 
HETATM    8  C11 UNL     1      25.621   1.198  51.993  1.00  0.00     0.161 C 
HETATM    9  C12 UNL     1      26.746   1.108  52.970  1.00  0.00    -0.007 A 
HETATM   10  C13 UNL     1      27.660   2.123  52.682  1.00  0.00     0.011 A 
HETATM   11  C14 UNL     1      28.792   2.192  53.503  1.00  0.00     0.001 A 
HETATM   12  C15 UNL     1      28.953   1.285  54.527  1.00  0.00     0.003 A 
HETATM   13  C16 UNL     1      28.040   0.285  54.802  1.00  0.00     0.038 A 
HETATM   14  C17 UNL     1      26.899   0.197  53.992  1.00  0.00     0.086 A 
HETATM   15  O1  UNL     1      25.997  -0.837  54.308  1.00  0.00    -0.289 OA
HETATM   16  H8  UNL     1      23.598   1.921  52.439  1.00  0.00     0.160 HD
ENDROOT
BRANCH   1  17
HETATM   17  N1  UNL     1      21.663   1.153  53.030  1.00  0.00    -0.349 N 
HETATM   18  H6  UNL     1      21.528   2.165  52.916  1.00  0.00     0.167 HD
BRANCH  17  19
HETATM   19  C6  UNL     1      20.909   0.181  52.299  1.00  0.00     0.090 C 
HETATM   20  C5  UNL     1      20.832   0.357  50.986  1.00  0.00     0.020 C 
BRANCH  20  21
HETATM   21  C4  UNL     1      21.500   1.501  50.374  1.00  0.00     0.045 C 
HETATM   22  C3  UNL     1      21.895   1.559  49.123  1.00  0.00     0.137 C 
HETATM   23  F1  UNL     1      21.643   0.452  48.384  1.00  0.00    -0.204 F 
BRANCH  22  24
HETATM   24  C2  UNL     1      22.562   2.650  48.435  1.00  0.00     0.063 C 
HETATM   25  C1  UNL     1      22.175   3.125  47.263  1.00  0.00     0.040 C 
HETATM   26 CL1  UNL     1      23.969   3.504  49.029  1.00  0.00    -0.082 Cl
ENDBRANCH  22  24
ENDBRANCH  20  21
ENDBRANCH  17  19
ENDBRANCH   1  17
TORSDOF 4
ENDMDL
MODEL 3
REMARK VINA RESULT:      -8.2      3.719      6.977
REMARK  4 active torsions:
REMARK  status: ('A' for Active; 'I' for Inactive)
REMARK    1  A    between atoms: C2_2  and  C3_4 
REMARK    2  A    between atoms: C4_6  and  C5_7 
REMARK    3  A    between atoms: C6_8  and  N1_9 
REMARK    4  A    between atoms: N1_9  and  C7_10 
ROOT
HETATM    1  C7  UNL     1      22.957   2.467  52.442  1.00  0.00     0.159 A 
HETATM    2  N2  UNL     1      21.922   1.654  52.719  1.00  0.00    -0.222 NA
HETATM    3  C8  UNL     1      22.057   0.372  53.098  1.00  0.00     0.238 A 
HETATM    4  N3  UNL     1      23.307  -0.118  53.204  1.00  0.00    -0.215 NA
HETATM    5  C9  UNL     1      24.395   0.652  52.939  1.00  0.00     0.202 A 
HETATM    6  C10 UNL     1      24.250   1.982  52.544  1.00  0.00     0.129 A 
HETATM    7  N4  UNL     1      25.294   2.895  52.234  1.00  0.00    -0.379 N 
HETATM    8  C11 UNL     1      26.674   2.568  51.933  1.00  0.00     0.161 C 
HETATM    9  C12 UNL     1      27.300   1.693  52.968  1.00  0.00    -0.007 A 
HETATM   10  C13 UNL     1      28.515   2.266  53.351  1.00  0.00     0.011 A 
HETATM   11  C14 UNL     1      29.250   1.575  54.321  1.00  0.00     0.001 A 
HETATM   12  C15 UNL     1      28.761   0.397  54.842  1.00  0.00     0.003 A 
HETATM   13  C16 UNL     1      27.556  -0.158  54.455  1.00  0.00     0.038 A 
HETATM   14  C17 UNL     1      26.805   0.516  53.484  1.00  0.00     0.086 A 
HETATM   15  O1  UNL     1      25.585  -0.086  53.121  1.00  0.00    -0.289 OA
HETATM   16  H8  UNL     1      24.937   3.872  52.246  1.00  0.00     0.160 HD
ENDROOT
BRANCH   1  17
HETATM   17  N1  UNL     1      22.783   3.831  52.037  1.00  0.00    -0.349 N 
HETATM   18  H6  UNL     1      23.102   4.774  52.296  1.00  0.00     0.167 HD
BRANCH  17  19
HETATM   19  C6  UNL     1      21.875   3.588  50.958  1.00  0.00     0.090 C 
HETATM   20  C5  UNL     1      22.187   4.132  49.788  1.00  0.00     0.020 C 
BRANCH  20  21
HETATM   21  C4  UNL     1      23.403   4.928  49.667  1.00  0.00     0.045 C 
HETATM   22  C3  UNL     1      24.569   4.464  49.281  1.00  0.00     0.137 C 
HETATM   23  F1  UNL     1      24.598   3.143  48.984  1.00  0.00    -0.204 F 
BRANCH  22  24
HETATM   24  C2  UNL     1      25.824   5.180  49.133  1.00  0.00     0.063 C 
HETATM   25  C1  UNL     1      25.929   6.498  49.187  1.00  0.00     0.040 C 
HETATM   26 CL1  UNL     1      27.382   4.433  48.860  1.00  0.00    -0.082 Cl
ENDBRANCH  22  24
ENDBRANCH  20  21
ENDBRANCH  17  19
ENDBRANCH   1  17
TORSDOF 4
ENDMDL
MODEL 4
REMARK VINA RESULT:      -8.2      4.884      6.981
REMARK  4 active torsions:
REMARK  status: ('A' for Active; 'I' for Inactive)
REMARK    1  A    between atoms: C2_2  and  C3_4 
REMARK    2  A    between atoms: C4_6  and  C5_7 
REMARK    3  A    between atoms: C6_8  and  N1_9 
REMARK    4  A    between atoms: N1_9  and  C7_10 
ROOT
HETATM    1  C7  UNL     1      23.301   4.955  51.921  1.00  0.00     0.159 A 
HETATM    2  N2  UNL     1      21.968   5.008  52.093  1.00  0.00    -0.222 NA
HETATM    3  C8  UNL     1      21.182   3.923  52.202  1.00  0.00     0.238 A 
HETATM    4  N3  UNL     1      21.776   2.715  52.134  1.00  0.00    -0.215 NA
HETATM    5  C9  UNL     1      23.118   2.594  51.962  1.00  0.00     0.202 A 
HETATM    6  C10 UNL     1      23.930   3.723  51.848  1.00  0.00     0.129 A 
HETATM    7  N4  UNL     1      25.338   3.742  51.664  1.00  0.00    -0.379 N 
HETATM    8  C11 UNL     1      26.172   2.642  51.223  1.00  0.00     0.161 C 
HETATM    9  C12 UNL     1      25.964   1.400  52.025  1.00  0.00    -0.007 A 
HETATM   10  C13 UNL     1      27.211   0.930  52.440  1.00  0.00     0.011 A 
HETATM   11  C14 UNL     1      27.211  -0.240  53.209  1.00  0.00     0.001 A 
HETATM   12  C15 UNL     1      26.019  -0.859  53.514  1.00  0.00     0.003 A 
HETATM   13  C16 UNL     1      24.791  -0.384  53.097  1.00  0.00     0.038 A 
HETATM   14  C17 UNL     1      24.768   0.786  52.326  1.00  0.00     0.086 A 
HETATM   15  O1  UNL     1      23.495   1.233  51.923  1.00  0.00    -0.289 OA
HETATM   16  H8  UNL     1      25.721   4.682  51.891  1.00  0.00     0.160 HD
ENDROOT
BRANCH   1  17
HETATM   17  N1  UNL     1      24.114   6.130  51.806  1.00  0.00    -0.349 N 
HETATM   18  H6  UNL     1      25.017   6.495  52.136  1.00  0.00     0.167 HD
BRANCH  17  19
HETATM   19  C6  UNL     1      23.240   6.875  50.953  1.00  0.00     0.090 C 
HETATM   20  C5  UNL     1      23.789   7.422  49.876  1.00  0.00     0.020 C 
BRANCH  20  21
HETATM   21  C4  UNL     1      25.215   7.243  49.626  1.00  0.00     0.045 C 
HETATM   22  C3  UNL     1      25.741   6.230  48.977  1.00  0.00     0.137 C 
HETATM   23  F1  UNL     1      24.858   5.308  48.525  1.00  0.00    -0.204 F 
BRANCH  22  24
HETATM   24  C2  UNL     1      27.141   5.972  48.684  1.00  0.00     0.063 C 
HETATM   25  C1  UNL     1      27.667   4.760  48.617  1.00  0.00     0.040 C 
HETATM   26 CL1  UNL     1      28.347   7.201  48.376  1.00  0.00    -0.082 Cl
ENDBRANCH  22  24
ENDBRANCH  20  21
ENDBRANCH  17  19
ENDBRANCH   1  17
TORSDOF 4
ENDMDL
MODEL 5
REMARK VINA RESULT:      -8.1      2.464      3.028
REMARK  4 active torsions:
REMARK  status: ('A' for Active; 'I' for Inactive)
REMARK    1  A    between atoms: C2_2  and  C3_4 
REMARK    2  A    between atoms: C4_6  and  C5_7 
REMARK    3  A    between atoms: C6_8  and  N1_9 
REMARK    4  A    between atoms: N1_9  and  C7_10 
ROOT
HETATM    1  C7  UNL     1      24.247  -0.437  53.715  1.00  0.00     0.159 A 
HETATM    2  N2  UNL     1      24.361  -1.145  54.852  1.00  0.00    -0.222 NA
HETATM    3  C8  UNL     1      23.325  -1.458  55.648  1.00  0.00     0.238 A 
HETATM    4  N3  UNL     1      22.102  -1.031  55.275  1.00  0.00    -0.215 NA
HETATM    5  C9  UNL     1      21.920  -0.311  54.137  1.00  0.00     0.202 A 
HETATM    6  C10 UNL     1      23.000   0.012  53.314  1.00  0.00     0.129 A 
HETATM    7  N4  UNL     1      22.954   0.756  52.105  1.00  0.00    -0.379 N 
HETATM    8  C11 UNL     1      21.874   1.609  51.649  1.00  0.00     0.161 C 
HETATM    9  C12 UNL     1      20.549   0.922  51.662  1.00  0.00    -0.007 A 
HETATM   10  C13 UNL     1      19.947   1.105  50.415  1.00  0.00     0.011 A 
HETATM   11  C14 UNL     1      18.684   0.527  50.242  1.00  0.00     0.001 A 
HETATM   12  C15 UNL     1      18.106  -0.178  51.276  1.00  0.00     0.003 A 
HETATM   13  C16 UNL     1      18.713  -0.353  52.505  1.00  0.00     0.038 A 
HETATM   14  C17 UNL     1      19.977   0.219  52.700  1.00  0.00     0.086 A 
HETATM   15  O1  UNL     1      20.557   0.016  53.966  1.00  0.00    -0.289 OA
HETATM   16  H8  UNL     1      23.827   0.613  51.557  1.00  0.00     0.160 HD
ENDROOT
BRANCH   1  17
HETATM   17  N1  UNL     1      25.373  -0.116  52.886  1.00  0.00    -0.349 N 
HETATM   18  H6  UNL     1      25.710  -0.269  51.927  1.00  0.00     0.167 HD
BRANCH  17  19
HETATM   19  C6  UNL     1      26.112   0.626  53.860  1.00  0.00     0.090 C 
HETATM   20  C5  UNL     1      26.740   1.712  53.425  1.00  0.00     0.020 C 
BRANCH  20  21
HETATM   21  C4  UNL     1      26.648   2.080  52.017  1.00  0.00     0.045 C 
HETATM   22  C3  UNL     1      25.735   2.873  51.507  1.00  0.00     0.137 C 
HETATM   23  F1  UNL     1      24.833   3.362  52.390  1.00  0.00    -0.204 F 
BRANCH  22  24
HETATM   24  C2  UNL     1      25.569   3.291  50.125  1.00  0.00     0.063 C 
HETATM   25  C1  UNL     1      26.544   3.797  49.389  1.00  0.00     0.040 C 
HETATM   26 CL1  UNL     1      24.076   3.197  49.219  1.00  0.00    -0.082 Cl
ENDBRANCH  22  24
ENDBRANCH  20  21
ENDBRANCH  17  19
ENDBRANCH   1  17
TORSDOF 4
ENDMDL
MODEL 6
REMARK VINA RESULT:      -8.1      3.285      5.902
REMARK  4 active torsions:
REMARK  status: ('A' for Active; 'I' for Inactive)
REMARK    1  A    between atoms: C2_2  and  C3_4 
REMARK    2  A    between atoms: C4_6  and  C5_7 
REMARK    3  A    between atoms: C6_8  and  N1_9 
REMARK    4  A    between atoms: N1_9  and  C7_10 
ROOT
HETATM    1  C7  UNL     1      21.965   1.775  51.998  1.00  0.00     0.159 A 
HETATM    2  N2  UNL     1      20.769   2.331  52.262  1.00  0.00    -0.222 NA
HETATM    3  C8  UNL     1      20.539   3.655  52.254  1.00  0.00     0.238 A 
HETATM    4  N3  UNL     1      21.576   4.465  51.963  1.00  0.00    -0.215 NA
HETATM    5  C9  UNL     1      22.809   3.966  51.686  1.00  0.00     0.202 A 
HETATM    6  C10 UNL     1      23.043   2.591  51.697  1.00  0.00     0.129 A 
HETATM    7  N4  UNL     1      24.275   1.937  51.431  1.00  0.00    -0.379 N 
HETATM    8  C11 UNL     1      25.596   2.536  51.429  1.00  0.00     0.161 C 
HETATM    9  C12 UNL     1      25.678   3.753  50.568  1.00  0.00    -0.007 A 
HETATM   10  C13 UNL     1      26.779   3.617  49.721  1.00  0.00     0.011 A 
HETATM   11  C14 UNL     1      27.016   4.675  48.835  1.00  0.00     0.001 A 
HETATM   12  C15 UNL     1      26.180   5.771  48.835  1.00  0.00     0.003 A 
HETATM   13  C16 UNL     1      25.093   5.891  49.679  1.00  0.00     0.038 A 
HETATM   14  C17 UNL     1      24.837   4.844  50.574  1.00  0.00     0.086 A 
HETATM   15  O1  UNL     1      23.720   5.011  51.414  1.00  0.00    -0.289 OA
HETATM   16  H8  UNL     1      24.116   0.929  51.229  1.00  0.00     0.160 HD
ENDROOT
BRANCH   1  17
HETATM   17  N1  UNL     1      22.182   0.358  52.016  1.00  0.00    -0.349 N 
HETATM   18  H6  UNL     1      22.425  -0.407  51.373  1.00  0.00     0.167 HD
BRANCH  17  19
HETATM   19  C6  UNL     1      21.940   0.153  53.411  1.00  0.00     0.090 C 
HETATM   20  C5  UNL     1      22.889  -0.481  54.089  1.00  0.00     0.020 C 
BRANCH  20  21
HETATM   21  C4  UNL     1      24.093  -0.924  53.396  1.00  0.00     0.045 C 
HETATM   22  C3  UNL     1      25.310  -0.515  53.668  1.00  0.00     0.137 C 
HETATM   23  F1  UNL     1      25.407   0.387  54.674  1.00  0.00    -0.204 F 
BRANCH  22  24
HETATM   24  C2  UNL     1      26.558  -0.901  53.033  1.00  0.00     0.063 C 
HETATM   25  C1  UNL     1      27.654  -0.160  53.055  1.00  0.00     0.040 C 
HETATM   26 CL1  UNL     1      26.818  -2.386  52.146  1.00  0.00    -0.082 Cl
ENDBRANCH  22  24
ENDBRANCH  20  21
ENDBRANCH  17  19
ENDBRANCH   1  17
TORSDOF 4
ENDMDL
MODEL 7
REMARK VINA RESULT:      -7.9      2.435      3.924
REMARK  4 active torsions:
REMARK  status: ('A' for Active; 'I' for Inactive)
REMARK    1  A    between atoms: C2_2  and  C3_4 
REMARK    2  A    between atoms: C4_6  and  C5_7 
REMARK    3  A    between atoms: C6_8  and  N1_9 
REMARK    4  A    between atoms: N1_9  and  C7_10 
ROOT
HETATM    1  C7  UNL     1      23.625   3.517  51.099  1.00  0.00     0.159 A 
HETATM    2  N2  UNL     1      23.124   4.409  50.226  1.00  0.00    -0.222 NA
HETATM    3  C8  UNL     1      21.968   4.242  49.563  1.00  0.00     0.238 A 
HETATM    4  N3  UNL     1      21.276   3.109  49.794  1.00  0.00    -0.215 NA
HETATM    5  C9  UNL     1      21.726   2.168  50.664  1.00  0.00     0.202 A 
HETATM    6  C10 UNL     1      22.929   2.346  51.349  1.00  0.00     0.129 A 
HETATM    7  N4  UNL     1      23.516   1.448  52.280  1.00  0.00    -0.379 N 
HETATM    8  C11 UNL     1      23.191   0.047  52.461  1.00  0.00     0.161 C 
HETATM    9  C12 UNL     1      21.730  -0.187  52.658  1.00  0.00    -0.007 A 
HETATM   10  C13 UNL     1      21.561  -0.982  53.794  1.00  0.00     0.011 A 
HETATM   11  C14 UNL     1      20.244  -1.308  54.135  1.00  0.00     0.001 A 
HETATM   12  C15 UNL     1      19.201  -0.847  53.361  1.00  0.00     0.003 A 
HETATM   13  C16 UNL     1      19.381  -0.060  52.240  1.00  0.00     0.038 A 
HETATM   14  C17 UNL     1      20.692   0.278  51.880  1.00  0.00     0.086 A 
HETATM   15  O1  UNL     1      20.828   1.080  50.731  1.00  0.00    -0.289 OA
HETATM   16  H8  UNL     1      24.244   1.933  52.843  1.00  0.00     0.160 HD
ENDROOT
BRANCH   1  17
HETATM   17  N1  UNL     1      24.864   3.720  51.791  1.00  0.00    -0.349 N 
HETATM   18  H6  UNL     1      25.208   3.975  52.726  1.00  0.00     0.167 HD
BRANCH  17  19
HETATM   19  C6  UNL     1      25.736   3.443  50.691  1.00  0.00     0.090 C 
HETATM   20  C5  UNL     1      26.787   2.675  50.948  1.00  0.00     0.020 C 
BRANCH  20  21
HETATM   21  C4  UNL     1      26.994   2.170  52.301  1.00  0.00     0.045 C 
HETATM   22  C3  UNL     1      26.985   0.901  52.637  1.00  0.00     0.137 C 
HETATM   23  F1  UNL     1      26.763   0.033  51.622  1.00  0.00    -0.204 F 
BRANCH  22  24
HETATM   24  C2  UNL     1      27.180   0.312  53.951  1.00  0.00     0.063 C 
HETATM   25  C1  UNL     1      26.189  -0.046  54.751  1.00  0.00     0.040 C 
HETATM   26 CL1  UNL     1      28.734  -0.018  54.684  1.00  0.00    -0.082 Cl
ENDBRANCH  22  24
ENDBRANCH  20  21
ENDBRANCH  17  19
ENDBRANCH   1  17
TORSDOF 4
ENDMDL
MODEL 8
REMARK VINA RESULT:      -7.9      4.599      7.334
REMARK  4 active torsions:
REMARK  status: ('A' for Active; 'I' for Inactive)
REMARK    1  A    between atoms: C2_2  and  C3_4 
REMARK    2  A    between atoms: C4_6  and  C5_7 
REMARK    3  A    between atoms: C6_8  and  N1_9 
REMARK    4  A    between atoms: N1_9  and  C7_10 
ROOT
HETATM    1  C7  UNL     1      24.960   1.584  52.488  1.00  0.00     0.159 A 
HETATM    2  N2  UNL     1      26.041   1.240  53.210  1.00  0.00    -0.222 NA
HETATM    3  C8  UNL     1      27.294   1.623  52.912  1.00  0.00     0.238 A 
HETATM    4  N3  UNL     1      27.466   2.398  51.823  1.00  0.00    -0.215 NA
HETATM    5  C9  UNL     1      26.414   2.781  51.052  1.00  0.00     0.202 A 
HETATM    6  C10 UNL     1      25.115   2.379  51.365  1.00  0.00     0.129 A 
HETATM    7  N4  UNL     1      23.931   2.702  50.650  1.00  0.00    -0.379 N 
HETATM    8  C11 UNL     1      23.845   3.210  49.295  1.00  0.00     0.161 C 
HETATM    9  C12 UNL     1      24.700   4.413  49.072  1.00  0.00    -0.007 A 
HETATM   10  C13 UNL     1      23.916   5.405  48.480  1.00  0.00     0.011 A 
HETATM   11  C14 UNL     1      24.557   6.616  48.193  1.00  0.00     0.001 A 
HETATM   12  C15 UNL     1      25.892   6.774  48.497  1.00  0.00     0.003 A 
HETATM   13  C16 UNL     1      26.656   5.784  49.084  1.00  0.00     0.038 A 
HETATM   14  C17 UNL     1      26.034   4.563  49.379  1.00  0.00     0.086 A 
HETATM   15  O1  UNL     1      26.851   3.584  49.976  1.00  0.00    -0.289 OA
HETATM   16  H8  UNL     1      23.091   2.522  51.237  1.00  0.00     0.160 HD
ENDROOT
BRANCH   1  17
HETATM   17  N1  UNL     1      23.633   1.159  52.829  1.00  0.00    -0.349 N 
HETATM   18  H6  UNL     1      22.656   1.378  52.599  1.00  0.00     0.167 HD
BRANCH  17  19
HETATM   19  C6  UNL     1      24.002   0.141  53.764  1.00  0.00     0.090 C 
HETATM   20  C5  UNL     1      23.126  -0.839  53.949  1.00  0.00     0.020 C 
BRANCH  20  21
HETATM   21  C4  UNL     1      21.868  -0.826  53.211  1.00  0.00     0.045 C 
HETATM   22  C3  UNL     1      20.736  -0.341  53.666  1.00  0.00     0.137 C 
HETATM   23  F1  UNL     1      20.787   0.175  54.917  1.00  0.00    -0.204 F 
BRANCH  22  24
HETATM   24  C2  UNL     1      19.444  -0.287  53.005  1.00  0.00     0.063 C 
HETATM   25  C1  UNL     1      18.456  -1.132  53.252  1.00  0.00     0.040 C 
HETATM   26 CL1  UNL     1      18.984   0.884  51.790  1.00  0.00    -0.082 Cl
ENDBRANCH  22  24
ENDBRANCH  20  21
ENDBRANCH  17  19
ENDBRANCH   1  17
TORSDOF 4
ENDMDL
MODEL 9
REMARK VINA RESULT:      -7.9      4.443      7.520
REMARK  4 active torsions:
REMARK  status: ('A' for Active; 'I' for Inactive)
REMARK    1  A    between atoms: C2_2  and  C3_4 
REMARK    2  A    between atoms: C4_6  and  C5_7 
REMARK    3  A    between atoms: C6_8  and  N1_9 
REMARK    4  A    between atoms: N1_9  and  C7_10 
ROOT
HETATM    1  C7  UNL     1      24.569   4.459  49.829  1.00  0.00     0.159 A 
HETATM    2  N2  UNL     1      25.446   4.987  48.958  1.00  0.00    -0.222 NA
HETATM    3  C8  UNL     1      26.760   4.706  48.952  1.00  0.00     0.238 A 
HETATM    4  N3  UNL     1      27.215   3.840  49.880  1.00  0.00    -0.215 NA
HETATM    5  C9  UNL     1      26.380   3.271  50.789  1.00  0.00     0.202 A 
HETATM    6  C10 UNL     1      25.017   3.569  50.791  1.00  0.00     0.129 A 
HETATM    7  N4  UNL     1      24.037   3.052  51.679  1.00  0.00    -0.379 N 
HETATM    8  C11 UNL     1      24.274   2.395  52.950  1.00  0.00     0.161 C 
HETATM    9  C12 UNL     1      25.249   1.269  52.847  1.00  0.00    -0.007 A 
HETATM   10  C13 UNL     1      24.686   0.144  53.453  1.00  0.00     0.011 A 
HETATM   11  C14 UNL     1      25.466  -1.018  53.453  1.00  0.00     0.001 A 
HETATM   12  C15 UNL     1      26.717  -1.004  52.874  1.00  0.00     0.003 A 
HETATM   13  C16 UNL     1      27.262   0.116  52.277  1.00  0.00     0.038 A 
HETATM   14  C17 UNL     1      26.498   1.291  52.266  1.00  0.00     0.086 A 
HETATM   15  O1  UNL     1      27.093   2.407  51.648  1.00  0.00    -0.289 OA
HETATM   16  H8  UNL     1      23.082   3.206  51.297  1.00  0.00     0.160 HD
ENDROOT
BRANCH   1  17
HETATM   17  N1  UNL     1      23.171   4.780  49.813  1.00  0.00    -0.349 N 
HETATM   18  H6  UNL     1      22.445   5.156  50.436  1.00  0.00     0.167 HD
BRANCH  17  19
HETATM   19  C6  UNL     1      22.910   4.392  48.461  1.00  0.00     0.090 C 
HETATM   20  C5  UNL     1      22.084   3.368  48.288  1.00  0.00     0.020 C 
BRANCH  20  21
HETATM   21  C4  UNL     1      21.502   2.710  49.452  1.00  0.00     0.045 C 
HETATM   22  C3  UNL     1      21.275   1.420  49.550  1.00  0.00     0.137 C 
HETATM   23  F1  UNL     1      21.621   0.687  48.465  1.00  0.00    -0.204 F 
BRANCH  22  24
HETATM   24  C2  UNL     1      20.703   0.684  50.664  1.00  0.00     0.063 C 
HETATM   25  C1  UNL     1      21.421   0.157  51.642  1.00  0.00     0.040 C 
HETATM   26 CL1  UNL     1      18.997   0.373  50.894  1.00  0.00    -0.082 Cl
ENDBRANCH  22  24
ENDBRANCH  20  21
ENDBRANCH  17  19
ENDBRANCH   1  17
TORSDOF 4
ENDMDL
