MODEL 1
REMARK VINA RESULT:      -7.4      0.000      0.000
REMARK  8 active torsions:
REMARK  status: ('A' for Active; 'I' for Inactive)
REMARK    1  A    between atoms: C3_3  and  C4_4 
REMARK    2  A    between atoms: C3_3  and  O2_21 
REMARK    3  A    between atoms: C4_4  and  C5_5 
REMARK    4  A    between atoms: C5_5  and  C6_6 
REMARK    5  A    between atoms: C6_6  and  C7_7 
REMARK    6  A    between atoms: C7_7  and  C8_8 
REMARK    7  A    between atoms: C8_8  and  N1_9 
REMARK    8  A    between atoms: N1_9  and  C9_10 
ROOT
HETATM    1  C9  UNL     1      25.036   1.962  53.131  1.00  0.00     0.155 A 
HETATM    2  N2  UNL     1      24.019   1.096  53.036  1.00  0.00    -0.222 NA
HETATM    3  C10 UNL     1      24.133  -0.173  53.448  1.00  0.00     0.238 A 
HETATM    4  N3  UNL     1      25.280  -0.678  53.989  1.00  0.00    -0.216 NA
HETATM    5  C11 UNL     1      26.344   0.146  54.112  1.00  0.00     0.196 A 
HETATM    6  C12 UNL     1      26.195   1.452  53.678  1.00  0.00     0.128 A 
HETATM    7  N4  UNL     1      27.185   2.471  53.729  1.00  0.00    -0.383 N 
HETATM    8  C13 UNL     1      28.627   2.384  53.633  1.00  0.00     0.122 C 
HETATM    9  C14 UNL     1      29.131   0.984  53.705  1.00  0.00     0.046 C 
HETATM   10  C15 UNL     1      28.709   0.203  54.902  1.00  0.00     0.179 C 
HETATM   11  O1  UNL     1      27.466  -0.485  54.681  1.00  0.00    -0.333 OA
HETATM   12  H17 UNL     1      26.767   3.418  53.859  1.00  0.00     0.159 HD
ENDROOT
BRANCH   1  13
HETATM   13  N1  UNL     1      24.865   3.305  52.679  1.00  0.00    -0.373 N 
HETATM   14  H15 UNL     1      25.263   4.198  52.977  1.00  0.00     0.161 HD
BRANCH  13  15
HETATM   15  C8  UNL     1      23.964   3.562  51.553  1.00  0.00     0.121 C 
BRANCH  15  16
HETATM   16  C7  UNL     1      24.728   4.342  50.530  1.00  0.00     0.020 C 
BRANCH  16  17
HETATM   17  C6  UNL     1      25.488   3.416  49.622  1.00  0.00     0.002 C 
BRANCH  17  18
HETATM   18  C5  UNL     1      26.847   4.002  49.339  1.00  0.00     0.006 C 
BRANCH  18  19
HETATM   19  C4  UNL     1      26.596   5.449  48.910  1.00  0.00     0.064 C 
BRANCH  19  20
HETATM   20  C3  UNL     1      27.845   5.975  48.352  1.00  0.00     0.041 C 
HETATM   21  C2  UNL     1      27.942   7.087  47.644  1.00  0.00     0.001 C 
HETATM   22  C1  UNL     1      26.738   7.908  47.358  1.00  0.00     0.038 C 
BRANCH  20  23
HETATM   23  O2  UNL     1      28.930   5.192  48.635  1.00  0.00    -0.361 OA
HETATM   24  C16 UNL     1      30.157   5.340  47.953  1.00  0.00     0.209 C 
ENDBRANCH  20  23
ENDBRANCH  19  20
ENDBRANCH  18  19
ENDBRANCH  17  18
ENDBRANCH  16  17
ENDBRANCH  15  16
ENDBRANCH  13  15
ENDBRANCH   1  13
TORSDOF 8
ENDMDL
MODEL 2
REMARK VINA RESULT:      -7.4      1.005      1.911
REMARK  8 active torsions:
REMARK  status: ('A' for Active; 'I' for Inactive)
REMARK    1  A    between atoms: C3_3  and  C4_4 
REMARK    2  A    between atoms: C3_3  and  O2_21 
REMARK    3  A    between atoms: C4_4  and  C5_5 
REMARK    4  A    between atoms: C5_5  and  C6_6 
REMARK    5  A    between atoms: C6_6  and  C7_7 
REMARK    6  A    between atoms: C7_7  and  C8_8 
REMARK    7  A    between atoms: C8_8  and  N1_9 
REMARK    8  A    between atoms: N1_9  and  C9_10 
ROOT
HETATM    1  C9  UNL     1      25.015   2.128  53.226  1.00  0.00     0.155 A 
HETATM    2  N2  UNL     1      23.962   1.306  53.123  1.00  0.00    -0.222 NA
HETATM    3  C10 UNL     1      24.034   0.020  53.488  1.00  0.00     0.238 A 
HETATM    4  N3  UNL     1      25.171  -0.548  53.985  1.00  0.00    -0.216 NA
HETATM    5  C11 UNL     1      26.269   0.229  54.113  1.00  0.00     0.196 A 
HETATM    6  C12 UNL     1      26.163   1.555  53.728  1.00  0.00     0.128 A 
HETATM    7  N4  UNL     1      27.194   2.531  53.792  1.00  0.00    -0.383 N 
HETATM    8  C13 UNL     1      28.630   2.392  53.662  1.00  0.00     0.122 C 
HETATM    9  C14 UNL     1      29.078   0.971  53.674  1.00  0.00     0.046 C 
HETATM   10  C15 UNL     1      28.651   0.165  54.852  1.00  0.00     0.179 C 
HETATM   11  O1  UNL     1      27.377  -0.466  54.635  1.00  0.00    -0.333 OA
HETATM   12  H17 UNL     1      26.817   3.489  53.964  1.00  0.00     0.159 HD
ENDROOT
BRANCH   1  13
HETATM   13  N1  UNL     1      24.888   3.492  52.824  1.00  0.00    -0.373 N 
HETATM   14  H15 UNL     1      25.568   4.235  52.652  1.00  0.00     0.161 HD
BRANCH  13  15
HETATM   15  C8  UNL     1      23.551   4.031  52.568  1.00  0.00     0.121 C 
BRANCH  15  16
HETATM   16  C7  UNL     1      23.557   4.627  51.196  1.00  0.00     0.020 C 
BRANCH  16  17
HETATM   17  C6  UNL     1      23.772   6.113  51.269  1.00  0.00     0.002 C 
BRANCH  17  18
HETATM   18  C5  UNL     1      25.072   6.461  50.590  1.00  0.00     0.006 C 
BRANCH  18  19
HETATM   19  C4  UNL     1      25.088   5.664  49.285  1.00  0.00     0.064 C 
BRANCH  19  20
HETATM   20  C3  UNL     1      26.487   5.474  48.892  1.00  0.00     0.041 C 
HETATM   21  C2  UNL     1      27.156   4.341  49.021  1.00  0.00     0.001 C 
HETATM   22  C1  UNL     1      26.502   3.138  49.597  1.00  0.00     0.038 C 
BRANCH  20  23
HETATM   23  O2  UNL     1      27.055   6.603  48.367  1.00  0.00    -0.361 OA
HETATM   24  C16 UNL     1      28.423   6.662  48.027  1.00  0.00     0.209 C 
ENDBRANCH  20  23
ENDBRANCH  19  20
ENDBRANCH  18  19
ENDBRANCH  17  18
ENDBRANCH  16  17
ENDBRANCH  15  16
ENDBRANCH  13  15
ENDBRANCH   1  13
TORSDOF 8
ENDMDL
MODEL 3
REMARK VINA RESULT:      -7.1      3.606      5.484
REMARK  8 active torsions:
REMARK  status: ('A' for Active; 'I' for Inactive)
REMARK    1  A    between atoms: C3_3  and  C4_4 
REMARK    2  A    between atoms: C3_3  and  O2_21 
REMARK    3  A    between atoms: C4_4  and  C5_5 
REMARK    4  A    between atoms: C5_5  and  C6_6 
REMARK    5  A    between atoms: C6_6  and  C7_7 
REMARK    6  A    between atoms: C7_7  and  C8_8 
REMARK    7  A    between atoms: C8_8  and  N1_9 
REMARK    8  A    between atoms: N1_9  and  C9_10 
ROOT
HETATM    1  C9  UNL     1      25.020   2.051  53.220  1.00  0.00     0.155 A 
HETATM    2  N2  UNL     1      23.985   1.204  53.143  1.00  0.00    -0.222 NA
HETATM    3  C10 UNL     1      24.083  -0.067  53.551  1.00  0.00     0.238 A 
HETATM    4  N3  UNL     1      25.230  -0.595  54.069  1.00  0.00    -0.216 NA
HETATM    5  C11 UNL     1      26.312   0.209  54.173  1.00  0.00     0.196 A 
HETATM    6  C12 UNL     1      26.179   1.519  53.744  1.00  0.00     0.128 A 
HETATM    7  N4  UNL     1      27.189   2.519  53.777  1.00  0.00    -0.383 N 
HETATM    8  C13 UNL     1      28.627   2.405  53.655  1.00  0.00     0.122 C 
HETATM    9  C14 UNL     1      29.106   0.995  53.714  1.00  0.00     0.046 C 
HETATM   10  C15 UNL     1      28.692   0.220  54.918  1.00  0.00     0.179 C 
HETATM   11  O1  UNL     1      27.433  -0.444  54.720  1.00  0.00    -0.333 OA
HETATM   12  H17 UNL     1      26.791   3.473  53.917  1.00  0.00     0.159 HD
ENDROOT
BRANCH   1  13
HETATM   13  N1  UNL     1      24.866   3.398  52.773  1.00  0.00    -0.373 N 
HETATM   14  H15 UNL     1      25.528   4.109  52.456  1.00  0.00     0.161 HD
BRANCH  13  15
HETATM   15  C8  UNL     1      23.519   3.970  52.707  1.00  0.00     0.121 C 
BRANCH  15  16
HETATM   16  C7  UNL     1      23.146   4.085  51.263  1.00  0.00     0.020 C 
BRANCH  16  17
HETATM   17  C6  UNL     1      21.676   4.362  51.119  1.00  0.00     0.002 C 
BRANCH  17  18
HETATM   18  C5  UNL     1      20.926   3.648  52.215  1.00  0.00     0.006 C 
BRANCH  18  19
HETATM   19  C4  UNL     1      20.066   2.595  51.514  1.00  0.00     0.064 C 
BRANCH  19  20
HETATM   20  C3  UNL     1      20.650   1.281  51.795  1.00  0.00     0.041 C 
HETATM   21  C2  UNL     1      21.237   0.511  50.895  1.00  0.00     0.001 C 
HETATM   22  C1  UNL     1      21.347   0.951  49.480  1.00  0.00     0.038 C 
BRANCH  20  23
HETATM   23  O2  UNL     1      20.530   0.910  53.106  1.00  0.00    -0.361 OA
HETATM   24  C16 UNL     1      20.202  -0.410  53.483  1.00  0.00     0.209 C 
ENDBRANCH  20  23
ENDBRANCH  19  20
ENDBRANCH  18  19
ENDBRANCH  17  18
ENDBRANCH  16  17
ENDBRANCH  15  16
ENDBRANCH  13  15
ENDBRANCH   1  13
TORSDOF 8
ENDMDL
MODEL 4
REMARK VINA RESULT:      -6.9      1.139      1.759
REMARK  8 active torsions:
REMARK  status: ('A' for Active; 'I' for Inactive)
REMARK    1  A    between atoms: C3_3  and  C4_4 
REMARK    2  A    between atoms: C3_3  and  O2_21 
REMARK    3  A    between atoms: C4_4  and  C5_5 
REMARK    4  A    between atoms: C5_5  and  C6_6 
REMARK    5  A    between atoms: C6_6  and  C7_7 
REMARK    6  A    between atoms: C7_7  and  C8_8 
REMARK    7  A    between atoms: C8_8  and  N1_9 
REMARK    8  A    between atoms: N1_9  and  C9_10 
ROOT
HETATM    1  C9  UNL     1      24.969   1.953  53.111  1.00  0.00     0.155 A 
HETATM    2  N2  UNL     1      23.955   1.078  53.087  1.00  0.00    -0.222 NA
HETATM    3  C10 UNL     1      24.080  -0.159  53.585  1.00  0.00     0.238 A 
HETATM    4  N3  UNL     1      25.235  -0.619  54.147  1.00  0.00    -0.216 NA
HETATM    5  C11 UNL     1      26.296   0.216  54.202  1.00  0.00     0.196 A 
HETATM    6  C12 UNL     1      26.135   1.489  53.680  1.00  0.00     0.128 A 
HETATM    7  N4  UNL     1      27.120   2.513  53.650  1.00  0.00    -0.383 N 
HETATM    8  C13 UNL     1      28.562   2.427  53.546  1.00  0.00     0.122 C 
HETATM    9  C14 UNL     1      29.074   1.038  53.710  1.00  0.00     0.046 C 
HETATM   10  C15 UNL     1      28.668   0.340  54.963  1.00  0.00     0.179 C 
HETATM   11  O1  UNL     1      27.427  -0.368  54.803  1.00  0.00    -0.333 OA
HETATM   12  H17 UNL     1      26.698   3.465  53.718  1.00  0.00     0.159 HD
ENDROOT
BRANCH   1  13
HETATM   13  N1  UNL     1      24.786   3.261  52.568  1.00  0.00    -0.373 N 
HETATM   14  H15 UNL     1      24.987   4.198  52.922  1.00  0.00     0.161 HD
BRANCH  13  15
HETATM   15  C8  UNL     1      24.209   3.395  51.229  1.00  0.00     0.121 C 
BRANCH  15  16
HETATM   16  C7  UNL     1      25.065   4.353  50.461  1.00  0.00     0.020 C 
BRANCH  16  17
HETATM   17  C6  UNL     1      24.215   5.240  49.594  1.00  0.00     0.002 C 
BRANCH  17  18
HETATM   18  C5  UNL     1      25.084   5.894  48.551  1.00  0.00     0.006 C 
BRANCH  18  19
HETATM   19  C4  UNL     1      26.527   5.609  48.971  1.00  0.00     0.064 C 
BRANCH  19  20
HETATM   20  C3  UNL     1      27.328   6.794  48.653  1.00  0.00     0.041 C 
HETATM   21  C2  UNL     1      28.582   6.763  48.234  1.00  0.00     0.001 C 
HETATM   22  C1  UNL     1      29.286   5.467  48.051  1.00  0.00     0.038 C 
BRANCH  20  23
HETATM   23  O2  UNL     1      26.648   7.966  48.834  1.00  0.00    -0.361 OA
HETATM   24  C16 UNL     1      26.706   8.685  50.048  1.00  0.00     0.209 C 
ENDBRANCH  20  23
ENDBRANCH  19  20
ENDBRANCH  18  19
ENDBRANCH  17  18
ENDBRANCH  16  17
ENDBRANCH  15  16
ENDBRANCH  13  15
ENDBRANCH   1  13
TORSDOF 8
ENDMDL
MODEL 5
REMARK VINA RESULT:      -6.8      2.913      4.106
REMARK  8 active torsions:
REMARK  status: ('A' for Active; 'I' for Inactive)
REMARK    1  A    between atoms: C3_3  and  C4_4 
REMARK    2  A    between atoms: C3_3  and  O2_21 
REMARK    3  A    between atoms: C4_4  and  C5_5 
REMARK    4  A    between atoms: C5_5  and  C6_6 
REMARK    5  A    between atoms: C6_6  and  C7_7 
REMARK    6  A    between atoms: C7_7  and  C8_8 
REMARK    7  A    between atoms: C8_8  and  N1_9 
REMARK    8  A    between atoms: N1_9  and  C9_10 
ROOT
HETATM    1  C9  UNL     1      25.018   2.043  53.216  1.00  0.00     0.155 A 
HETATM    2  N2  UNL     1      23.980   1.201  53.121  1.00  0.00    -0.222 NA
HETATM    3  C10 UNL     1      24.071  -0.075  53.514  1.00  0.00     0.238 A 
HETATM    4  N3  UNL     1      25.213  -0.613  54.034  1.00  0.00    -0.216 NA
HETATM    5  C11 UNL     1      26.296   0.186  54.155  1.00  0.00     0.196 A 
HETATM    6  C12 UNL     1      26.171   1.501  53.741  1.00  0.00     0.128 A 
HETATM    7  N4  UNL     1      27.184   2.497  53.793  1.00  0.00    -0.383 N 
HETATM    8  C13 UNL     1      28.623   2.380  53.679  1.00  0.00     0.122 C 
HETATM    9  C14 UNL     1      29.096   0.968  53.725  1.00  0.00     0.046 C 
HETATM   10  C15 UNL     1      28.671   0.179  54.916  1.00  0.00     0.179 C 
HETATM   11  O1  UNL     1      27.411  -0.478  54.702  1.00  0.00    -0.333 OA
HETATM   12  H17 UNL     1      26.789   3.451  53.941  1.00  0.00     0.159 HD
ENDROOT
BRANCH   1  13
HETATM   13  N1  UNL     1      24.871   3.396  52.784  1.00  0.00    -0.373 N 
HETATM   14  H15 UNL     1      25.507   4.196  52.767  1.00  0.00     0.161 HD
BRANCH  13  15
HETATM   15  C8  UNL     1      23.587   3.823  52.223  1.00  0.00     0.121 C 
BRANCH  15  16
HETATM   16  C7  UNL     1      23.877   4.726  51.066  1.00  0.00     0.020 C 
BRANCH  16  17
HETATM   17  C6  UNL     1      24.217   3.921  49.843  1.00  0.00     0.002 C 
BRANCH  17  18
HETATM   18  C5  UNL     1      23.471   4.479  48.658  1.00  0.00     0.006 C 
BRANCH  18  19
HETATM   19  C4  UNL     1      22.060   3.894  48.741  1.00  0.00     0.064 C 
BRANCH  19  20
HETATM   20  C3  UNL     1      22.011   2.715  47.872  1.00  0.00     0.041 C 
HETATM   21  C2  UNL     1      21.823   1.477  48.296  1.00  0.00     0.001 C 
HETATM   22  C1  UNL     1      21.643   1.192  49.743  1.00  0.00     0.038 C 
BRANCH  20  23
HETATM   23  O2  UNL     1      22.181   3.016  46.549  1.00  0.00    -0.361 OA
HETATM   24  C16 UNL     1      21.242   3.788  45.831  1.00  0.00     0.209 C 
ENDBRANCH  20  23
ENDBRANCH  19  20
ENDBRANCH  18  19
ENDBRANCH  17  18
ENDBRANCH  16  17
ENDBRANCH  15  16
ENDBRANCH  13  15
ENDBRANCH   1  13
TORSDOF 8
ENDMDL
MODEL 6
REMARK VINA RESULT:      -6.6      1.800      2.393
REMARK  8 active torsions:
REMARK  status: ('A' for Active; 'I' for Inactive)
REMARK    1  A    between atoms: C3_3  and  C4_4 
REMARK    2  A    between atoms: C3_3  and  O2_21 
REMARK    3  A    between atoms: C4_4  and  C5_5 
REMARK    4  A    between atoms: C5_5  and  C6_6 
REMARK    5  A    between atoms: C6_6  and  C7_7 
REMARK    6  A    between atoms: C7_7  and  C8_8 
REMARK    7  A    between atoms: C8_8  and  N1_9 
REMARK    8  A    between atoms: N1_9  and  C9_10 
ROOT
HETATM    1  C9  UNL     1      24.979   1.999  53.175  1.00  0.00     0.155 A 
HETATM    2  N2  UNL     1      23.954   1.138  53.128  1.00  0.00    -0.222 NA
HETATM    3  C10 UNL     1      24.065  -0.115  53.586  1.00  0.00     0.238 A 
HETATM    4  N3  UNL     1      25.217  -0.608  54.129  1.00  0.00    -0.216 NA
HETATM    5  C11 UNL     1      26.288   0.213  54.206  1.00  0.00     0.196 A 
HETATM    6  C12 UNL     1      26.141   1.503  53.724  1.00  0.00     0.128 A 
HETATM    7  N4  UNL     1      27.139   2.515  53.722  1.00  0.00    -0.383 N 
HETATM    8  C13 UNL     1      28.579   2.415  53.609  1.00  0.00     0.122 C 
HETATM    9  C14 UNL     1      29.074   1.014  53.727  1.00  0.00     0.046 C 
HETATM   10  C15 UNL     1      28.664   0.282  54.959  1.00  0.00     0.179 C 
HETATM   11  O1  UNL     1      27.414  -0.405  54.782  1.00  0.00    -0.333 OA
HETATM   12  H17 UNL     1      26.729   3.470  53.822  1.00  0.00     0.159 HD
ENDROOT
BRANCH   1  13
HETATM   13  N1  UNL     1      24.810   3.326  52.675  1.00  0.00    -0.373 N 
HETATM   14  H15 UNL     1      25.163   4.236  52.976  1.00  0.00     0.161 HD
BRANCH  13  15
HETATM   15  C8  UNL     1      23.989   3.530  51.479  1.00  0.00     0.121 C 
BRANCH  15  16
HETATM   16  C7  UNL     1      24.818   3.154  50.291  1.00  0.00     0.020 C 
BRANCH  16  17
HETATM   17  C6  UNL     1      25.987   4.088  50.148  1.00  0.00     0.002 C 
BRANCH  17  18
HETATM   18  C5  UNL     1      25.483   5.507  50.073  1.00  0.00     0.006 C 
BRANCH  18  19
HETATM   19  C4  UNL     1      25.701   5.951  48.626  1.00  0.00     0.064 C 
BRANCH  19  20
HETATM   20  C3  UNL     1      24.448   6.538  48.143  1.00  0.00     0.041 C 
HETATM   21  C2  UNL     1      24.369   7.552  47.298  1.00  0.00     0.001 C 
HETATM   22  C1  UNL     1      25.601   8.186  46.762  1.00  0.00     0.038 C 
BRANCH  20  23
HETATM   23  O2  UNL     1      23.337   5.928  48.658  1.00  0.00    -0.361 OA
HETATM   24  C16 UNL     1      22.475   5.147  47.859  1.00  0.00     0.209 C 
ENDBRANCH  20  23
ENDBRANCH  19  20
ENDBRANCH  18  19
ENDBRANCH  17  18
ENDBRANCH  16  17
ENDBRANCH  15  16
ENDBRANCH  13  15
ENDBRANCH   1  13
TORSDOF 8
ENDMDL
MODEL 7
REMARK VINA RESULT:      -6.4      1.937      3.798
REMARK  8 active torsions:
REMARK  status: ('A' for Active; 'I' for Inactive)
REMARK    1  A    between atoms: C3_3  and  C4_4 
REMARK    2  A    between atoms: C3_3  and  O2_21 
REMARK    3  A    between atoms: C4_4  and  C5_5 
REMARK    4  A    between atoms: C5_5  and  C6_6 
REMARK    5  A    between atoms: C6_6  and  C7_7 
REMARK    6  A    between atoms: C7_7  and  C8_8 
REMARK    7  A    between atoms: C8_8  and  N1_9 
REMARK    8  A    between atoms: N1_9  and  C9_10 
ROOT
HETATM    1  C9  UNL     1      25.260   0.689  53.138  1.00  0.00     0.155 A 
HETATM    2  N2  UNL     1      26.349   0.479  53.890  1.00  0.00    -0.222 NA
HETATM    3  C10 UNL     1      26.319  -0.316  54.967  1.00  0.00     0.238 A 
HETATM    4  N3  UNL     1      25.191  -0.966  55.378  1.00  0.00    -0.216 NA
HETATM    5  C11 UNL     1      24.058  -0.796  54.661  1.00  0.00     0.196 A 
HETATM    6  C12 UNL     1      24.121   0.032  53.553  1.00  0.00     0.128 A 
HETATM    7  N4  UNL     1      23.050   0.332  52.669  1.00  0.00    -0.383 N 
HETATM    8  C13 UNL     1      21.626   0.425  52.916  1.00  0.00     0.122 C 
HETATM    9  C14 UNL     1      21.236  -0.083  54.261  1.00  0.00     0.046 C 
HETATM   10  C15 UNL     1      21.660  -1.476  54.578  1.00  0.00     0.179 C 
HETATM   11  O1  UNL     1      22.965  -1.514  55.181  1.00  0.00    -0.333 OA
HETATM   12  H17 UNL     1      23.381   0.505  51.695  1.00  0.00     0.159 HD
ENDROOT
BRANCH   1  13
HETATM   13  N1  UNL     1      25.343   1.545  51.999  1.00  0.00    -0.373 N 
HETATM   14  H15 UNL     1      24.645   1.910  51.347  1.00  0.00     0.161 HD
BRANCH  13  15
HETATM   15  C8  UNL     1      26.651   2.075  51.607  1.00  0.00     0.121 C 
BRANCH  15  16
HETATM   16  C7  UNL     1      26.497   2.710  50.261  1.00  0.00     0.020 C 
BRANCH  16  17
HETATM   17  C6  UNL     1      25.205   3.475  50.184  1.00  0.00     0.002 C 
BRANCH  17  18
HETATM   18  C5  UNL     1      25.408   4.709  49.343  1.00  0.00     0.006 C 
BRANCH  18  19
HETATM   19  C4  UNL     1      26.882   4.698  48.934  1.00  0.00     0.064 C 
BRANCH  19  20
HETATM   20  C3  UNL     1      27.222   6.037  48.447  1.00  0.00     0.041 C 
HETATM   21  C2  UNL     1      28.437   6.422  48.094  1.00  0.00     0.001 C 
HETATM   22  C1  UNL     1      29.582   5.479  48.175  1.00  0.00     0.038 C 
BRANCH  20  23
HETATM   23  O2  UNL     1      26.144   6.876  48.387  1.00  0.00    -0.361 OA
HETATM   24  C16 UNL     1      26.036   7.886  47.407  1.00  0.00     0.209 C 
ENDBRANCH  20  23
ENDBRANCH  19  20
ENDBRANCH  18  19
ENDBRANCH  17  18
ENDBRANCH  16  17
ENDBRANCH  15  16
ENDBRANCH  13  15
ENDBRANCH   1  13
TORSDOF 8
ENDMDL
MODEL 8
REMARK VINA RESULT:      -6.1      2.949      3.987
REMARK  8 active torsions:
REMARK  status: ('A' for Active; 'I' for Inactive)
REMARK    1  A    between atoms: C3_3  and  C4_4 
REMARK    2  A    between atoms: C3_3  and  O2_21 
REMARK    3  A    between atoms: C4_4  and  C5_5 
REMARK    4  A    between atoms: C5_5  and  C6_6 
REMARK    5  A    between atoms: C6_6  and  C7_7 
REMARK    6  A    between atoms: C7_7  and  C8_8 
REMARK    7  A    between atoms: C8_8  and  N1_9 
REMARK    8  A    between atoms: N1_9  and  C9_10 
ROOT
HETATM    1  C9  UNL     1      23.340  -0.217  53.486  1.00  0.00     0.155 A 
HETATM    2  N2  UNL     1      22.696  -0.877  54.458  1.00  0.00    -0.222 NA
HETATM    3  C10 UNL     1      23.343  -1.383  55.515  1.00  0.00     0.238 A 
HETATM    4  N3  UNL     1      24.693  -1.269  55.682  1.00  0.00    -0.216 NA
HETATM    5  C11 UNL     1      25.401  -0.614  54.736  1.00  0.00     0.196 A 
HETATM    6  C12 UNL     1      24.703  -0.101  53.655  1.00  0.00     0.128 A 
HETATM    7  N4  UNL     1      25.258   0.622  52.566  1.00  0.00    -0.383 N 
HETATM    8  C13 UNL     1      26.563   0.531  51.944  1.00  0.00     0.122 C 
HETATM    9  C14 UNL     1      27.518  -0.309  52.721  1.00  0.00     0.046 C 
HETATM   10  C15 UNL     1      27.721   0.085  54.144  1.00  0.00     0.179 C 
HETATM   11  O1  UNL     1      26.780  -0.561  55.017  1.00  0.00    -0.333 OA
HETATM   12  H17 UNL     1      24.590   1.324  52.179  1.00  0.00     0.159 HD
ENDROOT
BRANCH   1  13
HETATM   13  N1  UNL     1      22.604   0.304  52.379  1.00  0.00    -0.373 N 
HETATM   14  H15 UNL     1      22.685   0.182  51.367  1.00  0.00     0.161 HD
BRANCH  13  15
HETATM   15  C8  UNL     1      21.474   1.198  52.640  1.00  0.00     0.121 C 
BRANCH  15  16
HETATM   16  C7  UNL     1      21.577   2.348  51.689  1.00  0.00     0.020 C 
BRANCH  16  17
HETATM   17  C6  UNL     1      21.031   3.601  52.316  1.00  0.00     0.002 C 
BRANCH  17  18
HETATM   18  C5  UNL     1      21.497   4.796  51.526  1.00  0.00     0.006 C 
BRANCH  18  19
HETATM   19  C4  UNL     1      23.023   4.800  51.635  1.00  0.00     0.064 C 
BRANCH  19  20
HETATM   20  C3  UNL     1      23.560   5.366  50.395  1.00  0.00     0.041 C 
HETATM   21  C2  UNL     1      24.333   4.714  49.544  1.00  0.00     0.001 C 
HETATM   22  C1  UNL     1      24.723   3.304  49.805  1.00  0.00     0.038 C 
BRANCH  20  23
HETATM   23  O2  UNL     1      23.181   6.665  50.190  1.00  0.00    -0.361 OA
HETATM   24  C16 UNL     1      23.876   7.747  50.770  1.00  0.00     0.209 C 
ENDBRANCH  20  23
ENDBRANCH  19  20
ENDBRANCH  18  19
ENDBRANCH  17  18
ENDBRANCH  16  17
ENDBRANCH  15  16
ENDBRANCH  13  15
ENDBRANCH   1  13
TORSDOF 8
ENDMDL
MODEL 9
REMARK VINA RESULT:      -6.1      3.281      8.245
REMARK  8 active torsions:
REMARK  status: ('A' for Active; 'I' for Inactive)
REMARK    1  A    between atoms: C3_3  and  C4_4 
REMARK    2  A    between atoms: C3_3  and  O2_21 
REMARK    3  A    between atoms: C4_4  and  C5_5 
REMARK    4  A    between atoms: C5_5  and  C6_6 
REMARK    5  A    between atoms: C6_6  and  C7_7 
REMARK    6  A    between atoms: C7_7  and  C8_8 
REMARK    7  A    between atoms: C8_8  and  N1_9 
REMARK    8  A    between atoms: N1_9  and  C9_10 
ROOT
HETATM    1  C9  UNL     1      27.597   6.378  48.571  1.00  0.00     0.155 A 
HETATM    2  N2  UNL     1      26.456   6.930  48.137  1.00  0.00    -0.222 NA
HETATM    3  C10 UNL     1      26.443   8.103  47.492  1.00  0.00     0.238 A 
HETATM    4  N3  UNL     1      27.574   8.820  47.231  1.00  0.00    -0.216 NA
HETATM    5  C11 UNL     1      28.759   8.316  47.643  1.00  0.00     0.196 A 
HETATM    6  C12 UNL     1      28.740   7.101  48.306  1.00  0.00     0.128 A 
HETATM    7  N4  UNL     1      29.872   6.403  48.809  1.00  0.00    -0.383 N 
HETATM    8  C13 UNL     1      31.131   6.902  49.324  1.00  0.00     0.122 C 
HETATM    9  C14 UNL     1      31.321   8.359  49.081  1.00  0.00     0.046 C 
HETATM   10  C15 UNL     1      31.205   8.802  47.663  1.00  0.00     0.179 C 
HETATM   11  O1  UNL     1      29.852   9.142  47.317  1.00  0.00    -0.333 OA
HETATM   12  H17 UNL     1      29.738   5.369  48.784  1.00  0.00     0.159 HD
ENDROOT
BRANCH   1  13
HETATM   13  N1  UNL     1      27.560   5.124  49.253  1.00  0.00    -0.373 N 
HETATM   14  H15 UNL     1      28.278   4.552  49.702  1.00  0.00     0.161 HD
BRANCH  13  15
HETATM   15  C8  UNL     1      26.274   4.441  49.406  1.00  0.00     0.121 C 
BRANCH  15  16
HETATM   16  C7  UNL     1      26.554   3.046  49.866  1.00  0.00     0.020 C 
BRANCH  16  17
HETATM   17  C6  UNL     1      25.785   2.741  51.122  1.00  0.00     0.002 C 
BRANCH  17  18
HETATM   18  C5  UNL     1      26.705   2.087  52.121  1.00  0.00     0.006 C 
BRANCH  18  19
HETATM   19  C4  UNL     1      25.954   2.106  53.454  1.00  0.00     0.064 C 
BRANCH  19  20
HETATM   20  C3  UNL     1      26.315   0.891  54.189  1.00  0.00     0.041 C 
HETATM   21  C2  UNL     1      25.609  -0.228  54.185  1.00  0.00     0.001 C 
HETATM   22  C1  UNL     1      24.351  -0.325  53.400  1.00  0.00     0.038 C 
BRANCH  20  23
HETATM   23  O2  UNL     1      27.477   1.019  54.899  1.00  0.00    -0.361 OA
HETATM   24  C16 UNL     1      28.525   0.080  54.792  1.00  0.00     0.209 C 
ENDBRANCH  20  23
ENDBRANCH  19  20
ENDBRANCH  18  19
ENDBRANCH  17  18
ENDBRANCH  16  17
ENDBRANCH  15  16
ENDBRANCH  13  15
ENDBRANCH   1  13
TORSDOF 8
ENDMDL
