MODEL 1
REMARK VINA RESULT:      -9.2      0.000      0.000
REMARK  7 active torsions:
REMARK  status: ('A' for Active; 'I' for Inactive)
REMARK    1  A    between atoms: C1_2  and  C2_3 
REMARK    2  A    between atoms: C7_11  and  N3_12 
REMARK    3  A    between atoms: N3_12  and  C8_13 
REMARK    4  A    between atoms: N4_24  and  C18_25 
REMARK    5  A    between atoms: C18_25  and  C19_26 
REMARK    6  A    between atoms: C19_26  and  C20_27 
REMARK    7  A    between atoms: C20_27  and  N5_28 
ROOT
HETATM    1  C2  UNL     1      24.358   5.440  50.162  1.00  0.00     0.288 C 
HETATM    2  O2  UNL     1      25.045   6.556  49.620  1.00  0.00    -0.319 OA
HETATM    3  C3  UNL     1      26.332   6.393  49.136  1.00  0.00     0.082 A 
HETATM    4  C4  UNL     1      27.095   7.491  48.814  1.00  0.00     0.070 A 
HETATM    5  C5  UNL     1      28.370   7.359  48.332  1.00  0.00     0.074 A 
HETATM    6  N1  UNL     1      29.026   8.486  48.051  1.00  0.00    -0.241 NA
HETATM    7  C6  UNL     1      30.275   8.461  47.577  1.00  0.00     0.236 A 
HETATM    8  N2  UNL     1      30.832   7.260  47.400  1.00  0.00    -0.224 NA
HETATM    9  C7  UNL     1      30.264   6.078  47.650  1.00  0.00     0.142 A 
HETATM   10  C14 UNL     1      28.981   6.142  48.135  1.00  0.00     0.039 A 
HETATM   11  C15 UNL     1      28.203   5.063  48.463  1.00  0.00     0.029 A 
HETATM   12  C16 UNL     1      26.920   5.181  48.947  1.00  0.00    -0.006 A 
HETATM   13  C17 UNL     1      26.079   3.983  49.305  1.00  0.00     0.161 C 
HETATM   14  N4  UNL     1      25.270   4.378  50.408  1.00  0.00    -0.378 N 
ENDROOT
BRANCH   9  15
HETATM   15  N3  UNL     1      30.861   4.811  47.459  1.00  0.00    -0.340 N 
HETATM   16  H5  UNL     1      30.297   3.961  47.308  1.00  0.00     0.167 HD
BRANCH  15  17
HETATM   17  C8  UNL     1      32.227   4.446  47.433  1.00  0.00     0.035 A 
HETATM   18  C9  UNL     1      32.802   3.485  46.598  1.00  0.00     0.029 A 
HETATM   19  C10 UNL     1      34.122   3.165  46.609  1.00  0.00     0.004 A 
HETATM   20  C11 UNL     1      34.993   3.782  47.463  1.00  0.00     0.024 A 
HETATM   21  C12 UNL     1      34.484   4.740  48.311  1.00  0.00     0.036 A 
HETATM   22 CL1  UNL     1      35.637   5.496  49.383  1.00  0.00    -0.084 Cl
HETATM   23  C13 UNL     1      33.137   5.039  48.272  1.00  0.00     0.053 A 
ENDBRANCH  15  17
ENDBRANCH   9  15
BRANCH  14  24
HETATM   24  C18 UNL     1      24.858   3.359  51.304  1.00  0.00     0.121 C 
BRANCH  24  25
HETATM   25  C19 UNL     1      25.711   2.130  51.353  1.00  0.00     0.039 C 
BRANCH  25  26
HETATM   26  C20 UNL     1      26.822   2.243  52.380  1.00  0.00     0.118 C 
BRANCH  26  27
HETATM   27  N5  UNL     1      27.342   0.986  52.782  1.00  0.00    -0.408 N 
HETATM   28  C21 UNL     1      26.417  -0.024  53.149  1.00  0.00     0.143 C 
HETATM   29  C22 UNL     1      26.393  -0.185  54.632  1.00  0.00     0.187 C 
HETATM   30  O3  UNL     1      27.617  -0.216  55.251  1.00  0.00    -0.388 OA
HETATM   31  C23 UNL     1      28.704  -0.147  54.420  1.00  0.00     0.187 C 
HETATM   32  C24 UNL     1      28.615   0.971  53.408  1.00  0.00     0.143 C 
ENDBRANCH  26  27
ENDBRANCH  25  26
ENDBRANCH  24  25
ENDBRANCH  14  24
BRANCH   1  33
HETATM   33  C1  UNL     1      23.778   5.907  51.447  1.00  0.00     0.284 C 
HETATM   34  O1  UNL     1      23.397   7.002  51.052  1.00  0.00    -0.302 OA
ENDBRANCH   1  33
TORSDOF 7
ENDMDL
MODEL 2
REMARK VINA RESULT:      -9.1      1.433      1.854
REMARK  7 active torsions:
REMARK  status: ('A' for Active; 'I' for Inactive)
REMARK    1  A    between atoms: C1_2  and  C2_3 
REMARK    2  A    between atoms: C7_11  and  N3_12 
REMARK    3  A    between atoms: N3_12  and  C8_13 
REMARK    4  A    between atoms: N4_24  and  C18_25 
REMARK    5  A    between atoms: C18_25  and  C19_26 
REMARK    6  A    between atoms: C19_26  and  C20_27 
REMARK    7  A    between atoms: C20_27  and  N5_28 
ROOT
HETATM    1  C2  UNL     1      24.239   4.221  50.480  1.00  0.00     0.288 C 
HETATM    2  O2  UNL     1      24.588   5.446  49.857  1.00  0.00    -0.319 OA
HETATM    3  C3  UNL     1      25.860   5.604  49.333  1.00  0.00     0.082 A 
HETATM    4  C4  UNL     1      26.293   6.845  48.928  1.00  0.00     0.070 A 
HETATM    5  C5  UNL     1      27.544   7.030  48.405  1.00  0.00     0.074 A 
HETATM    6  N1  UNL     1      27.866   8.273  48.043  1.00  0.00    -0.241 NA
HETATM    7  C6  UNL     1      29.066   8.554  47.523  1.00  0.00     0.236 A 
HETATM    8  N2  UNL     1      29.920   7.537  47.385  1.00  0.00    -0.224 NA
HETATM    9  C7  UNL     1      29.696   6.264  47.716  1.00  0.00     0.142 A 
HETATM   10  C14 UNL     1      28.454   6.011  48.246  1.00  0.00     0.039 A 
HETATM   11  C15 UNL     1      28.003   4.784  48.657  1.00  0.00     0.029 A 
HETATM   12  C16 UNL     1      26.747   4.584  49.183  1.00  0.00    -0.006 A 
HETATM   13  C17 UNL     1      26.267   3.228  49.632  1.00  0.00     0.161 C 
HETATM   14  N4  UNL     1      25.408   3.457  50.745  1.00  0.00    -0.378 N 
ENDROOT
BRANCH   9  15
HETATM   15  N3  UNL     1      30.607   5.192  47.566  1.00  0.00    -0.340 N 
HETATM   16  H5  UNL     1      30.291   4.239  47.333  1.00  0.00     0.167 HD
BRANCH  15  17
HETATM   17  C8  UNL     1      32.016   5.176  47.687  1.00  0.00     0.035 A 
HETATM   18  C9  UNL     1      32.758   5.792  48.698  1.00  0.00     0.029 A 
HETATM   19  C10 UNL     1      34.113   5.752  48.773  1.00  0.00     0.004 A 
HETATM   20  C11 UNL     1      34.855   5.088  47.837  1.00  0.00     0.024 A 
HETATM   21  C12 UNL     1      34.179   4.461  46.815  1.00  0.00     0.036 A 
HETATM   22 CL1  UNL     1      35.172   3.629  45.643  1.00  0.00    -0.084 Cl
HETATM   23  C13 UNL     1      32.800   4.523  46.770  1.00  0.00     0.053 A 
ENDBRANCH  15  17
ENDBRANCH   9  15
BRANCH  14  24
HETATM   24  C18 UNL     1      25.306   2.419  51.706  1.00  0.00     0.121 C 
BRANCH  24  25
HETATM   25  C19 UNL     1      26.359   1.357  51.654  1.00  0.00     0.039 C 
BRANCH  25  26
HETATM   26  C20 UNL     1      27.267   1.390  52.868  1.00  0.00     0.118 C 
BRANCH  26  27
HETATM   27  N5  UNL     1      27.448   0.116  53.465  1.00  0.00    -0.408 N 
HETATM   28  C21 UNL     1      28.481  -0.023  54.425  1.00  0.00     0.143 C 
HETATM   29  C22 UNL     1      29.640  -0.752  53.833  1.00  0.00     0.187 C 
HETATM   30  O3  UNL     1      29.331  -1.867  53.095  1.00  0.00    -0.388 OA
HETATM   31  C23 UNL     1      28.002  -2.194  53.041  1.00  0.00     0.187 C 
HETATM   32  C24 UNL     1      27.111  -1.026  52.693  1.00  0.00     0.143 C 
ENDBRANCH  26  27
ENDBRANCH  25  26
ENDBRANCH  24  25
ENDBRANCH  14  24
BRANCH   1  33
HETATM   33  C1  UNL     1      23.585   4.590  51.762  1.00  0.00     0.284 C 
HETATM   34  O1  UNL     1      22.437   4.638  51.337  1.00  0.00    -0.302 OA
ENDBRANCH   1  33
TORSDOF 7
ENDMDL
MODEL 3
REMARK VINA RESULT:      -9.0      3.332      5.592
REMARK  7 active torsions:
REMARK  status: ('A' for Active; 'I' for Inactive)
REMARK    1  A    between atoms: C1_2  and  C2_3 
REMARK    2  A    between atoms: C7_11  and  N3_12 
REMARK    3  A    between atoms: N3_12  and  C8_13 
REMARK    4  A    between atoms: N4_24  and  C18_25 
REMARK    5  A    between atoms: C18_25  and  C19_26 
REMARK    6  A    between atoms: C19_26  and  C20_27 
REMARK    7  A    between atoms: C20_27  and  N5_28 
ROOT
HETATM    1  C2  UNL     1      21.620   0.703  52.879  1.00  0.00     0.288 C 
HETATM    2  O2  UNL     1      21.240   2.035  52.577  1.00  0.00    -0.319 OA
HETATM    3  C3  UNL     1      22.154   2.884  51.977  1.00  0.00     0.082 A 
HETATM    4  C4  UNL     1      21.889   4.230  51.877  1.00  0.00     0.070 A 
HETATM    5  C5  UNL     1      22.774   5.091  51.287  1.00  0.00     0.074 A 
HETATM    6  N1  UNL     1      22.423   6.377  51.242  1.00  0.00    -0.241 NA
HETATM    7  C6  UNL     1      23.221   7.295  50.688  1.00  0.00     0.236 A 
HETATM    8  N2  UNL     1      24.381   6.864  50.185  1.00  0.00    -0.224 NA
HETATM    9  C7  UNL     1      24.825   5.605  50.181  1.00  0.00     0.142 A 
HETATM   10  C14 UNL     1      23.979   4.690  50.758  1.00  0.00     0.039 A 
HETATM   11  C15 UNL     1      24.223   3.346  50.868  1.00  0.00     0.029 A 
HETATM   12  C16 UNL     1      23.341   2.469  51.457  1.00  0.00    -0.006 A 
HETATM   13  C17 UNL     1      23.626   0.994  51.573  1.00  0.00     0.161 C 
HETATM   14  N4  UNL     1      23.031   0.567  52.795  1.00  0.00    -0.378 N 
ENDROOT
BRANCH   9  15
HETATM   15  N3  UNL     1      26.055   5.159  49.645  1.00  0.00    -0.340 N 
HETATM   16  H5  UNL     1      26.412   4.207  49.822  1.00  0.00     0.167 HD
BRANCH  15  17
HETATM   17  C8  UNL     1      26.988   5.837  48.827  1.00  0.00     0.035 A 
HETATM   18  C9  UNL     1      26.751   7.021  48.123  1.00  0.00     0.029 A 
HETATM   19  C10 UNL     1      27.679   7.637  47.346  1.00  0.00     0.004 A 
HETATM   20  C11 UNL     1      28.937   7.122  47.201  1.00  0.00     0.024 A 
HETATM   21  C12 UNL     1      29.229   5.956  47.871  1.00  0.00     0.036 A 
HETATM   22 CL1  UNL     1      30.848   5.337  47.651  1.00  0.00    -0.084 Cl
HETATM   23  C13 UNL     1      28.261   5.356  48.652  1.00  0.00     0.053 A 
ENDBRANCH  15  17
ENDBRANCH   9  15
BRANCH  14  24
HETATM   24  C18 UNL     1      23.620  -0.548  53.443  1.00  0.00     0.121 C 
BRANCH  24  25
HETATM   25  C19 UNL     1      24.999  -0.350  53.990  1.00  0.00     0.039 C 
BRANCH  25  26
HETATM   26  C20 UNL     1      26.058  -1.011  53.128  1.00  0.00     0.118 C 
BRANCH  26  27
HETATM   27  N5  UNL     1      27.213  -0.207  52.948  1.00  0.00    -0.408 N 
HETATM   28  C21 UNL     1      28.425  -0.653  53.531  1.00  0.00     0.143 C 
HETATM   29  C22 UNL     1      28.736   0.150  54.750  1.00  0.00     0.187 C 
HETATM   30  O3  UNL     1      28.573   1.506  54.630  1.00  0.00    -0.388 OA
HETATM   31  C23 UNL     1      28.195   1.952  53.391  1.00  0.00     0.187 C 
HETATM   32  C24 UNL     1      27.025   1.193  52.813  1.00  0.00     0.143 C 
ENDBRANCH  26  27
ENDBRANCH  25  26
ENDBRANCH  24  25
ENDBRANCH  14  24
BRANCH   1  33
HETATM   33  C1  UNL     1      21.179   0.464  54.278  1.00  0.00     0.284 C 
HETATM   34  O1  UNL     1      20.129  -0.107  54.010  1.00  0.00    -0.302 OA
ENDBRANCH   1  33
TORSDOF 7
ENDMDL
MODEL 4
REMARK VINA RESULT:      -8.6      2.079      3.069
REMARK  7 active torsions:
REMARK  status: ('A' for Active; 'I' for Inactive)
REMARK    1  A    between atoms: C1_2  and  C2_3 
REMARK    2  A    between atoms: C7_11  and  N3_12 
REMARK    3  A    between atoms: N3_12  and  C8_13 
REMARK    4  A    between atoms: N4_24  and  C18_25 
REMARK    5  A    between atoms: C18_25  and  C19_26 
REMARK    6  A    between atoms: C19_26  and  C20_27 
REMARK    7  A    between atoms: C20_27  and  N5_28 
ROOT
HETATM    1  C2  UNL     1      22.952   2.956  50.986  1.00  0.00     0.288 C 
HETATM    2  O2  UNL     1      22.873   3.918  49.947  1.00  0.00    -0.319 OA
HETATM    3  C3  UNL     1      24.014   4.601  49.563  1.00  0.00     0.082 A 
HETATM    4  C4  UNL     1      23.923   5.685  48.723  1.00  0.00     0.070 A 
HETATM    5  C5  UNL     1      25.035   6.378  48.326  1.00  0.00     0.074 A 
HETATM    6  N1  UNL     1      24.838   7.415  47.510  1.00  0.00    -0.241 NA
HETATM    7  C6  UNL     1      25.861   8.154  47.069  1.00  0.00     0.236 A 
HETATM    8  N2  UNL     1      27.083   7.805  47.483  1.00  0.00    -0.224 NA
HETATM    9  C7  UNL     1      27.385   6.790  48.295  1.00  0.00     0.142 A 
HETATM   10  C14 UNL     1      26.310   6.053  48.728  1.00  0.00     0.039 A 
HETATM   11  C15 UNL     1      26.378   4.971  49.565  1.00  0.00     0.029 A 
HETATM   12  C16 UNL     1      25.268   4.265  49.970  1.00  0.00    -0.006 A 
HETATM   13  C17 UNL     1      25.360   3.077  50.893  1.00  0.00     0.161 C 
HETATM   14  N4  UNL     1      24.179   3.098  51.689  1.00  0.00    -0.378 N 
ENDROOT
BRANCH   9  15
HETATM   15  N3  UNL     1      28.682   6.429  48.727  1.00  0.00    -0.340 N 
HETATM   16  H5  UNL     1      28.886   6.217  49.716  1.00  0.00     0.167 HD
BRANCH  15  17
HETATM   17  C8  UNL     1      29.878   6.287  47.987  1.00  0.00     0.035 A 
HETATM   18  C9  UNL     1      30.533   7.304  47.287  1.00  0.00     0.029 A 
HETATM   19  C10 UNL     1      31.682   7.121  46.586  1.00  0.00     0.004 A 
HETATM   20  C11 UNL     1      32.284   5.896  46.519  1.00  0.00     0.024 A 
HETATM   21  C12 UNL     1      31.683   4.853  47.189  1.00  0.00     0.036 A 
HETATM   22 CL1  UNL     1      32.490   3.309  47.071  1.00  0.00    -0.084 Cl
HETATM   23  C13 UNL     1      30.516   5.076  47.891  1.00  0.00     0.053 A 
ENDBRANCH  15  17
ENDBRANCH   9  15
BRANCH  14  24
HETATM   24  C18 UNL     1      24.261   2.518  52.981  1.00  0.00     0.121 C 
BRANCH  24  25
HETATM   25  C19 UNL     1      24.768   1.112  53.049  1.00  0.00     0.039 C 
BRANCH  25  26
HETATM   26  C20 UNL     1      26.019   0.994  53.899  1.00  0.00     0.118 C 
BRANCH  26  27
HETATM   27  N5  UNL     1      27.103   0.384  53.217  1.00  0.00    -0.408 N 
HETATM   28  C21 UNL     1      26.799  -0.536  52.183  1.00  0.00     0.143 C 
HETATM   29  C22 UNL     1      27.033  -1.933  52.652  1.00  0.00     0.187 C 
HETATM   30  O3  UNL     1      28.201  -2.144  53.342  1.00  0.00    -0.388 OA
HETATM   31  C23 UNL     1      29.023  -1.056  53.465  1.00  0.00     0.187 C 
HETATM   32  C24 UNL     1      28.307   0.185  53.941  1.00  0.00     0.143 C 
ENDBRANCH  26  27
ENDBRANCH  25  26
ENDBRANCH  24  25
ENDBRANCH  14  24
BRANCH   1  33
HETATM   33  C1  UNL     1      21.817   3.250  51.898  1.00  0.00     0.284 C 
HETATM   34  O1  UNL     1      21.096   3.794  51.071  1.00  0.00    -0.302 OA
ENDBRANCH   1  33
TORSDOF 7
ENDMDL
MODEL 5
REMARK VINA RESULT:      -8.6      5.276      8.748
REMARK  7 active torsions:
REMARK  status: ('A' for Active; 'I' for Inactive)
REMARK    1  A    between atoms: C1_2  and  C2_3 
REMARK    2  A    between atoms: C7_11  and  N3_12 
REMARK    3  A    between atoms: N3_12  and  C8_13 
REMARK    4  A    between atoms: N4_24  and  C18_25 
REMARK    5  A    between atoms: C18_25  and  C19_26 
REMARK    6  A    between atoms: C19_26  and  C20_27 
REMARK    7  A    between atoms: C20_27  and  N5_28 
ROOT
HETATM    1  C2  UNL     1      20.510  -0.096  53.701  1.00  0.00     0.288 C 
HETATM    2  O2  UNL     1      21.862  -0.007  54.118  1.00  0.00    -0.319 OA
HETATM    3  C3  UNL     1      22.780   0.650  53.316  1.00  0.00     0.082 A 
HETATM    4  C4  UNL     1      24.125   0.559  53.584  1.00  0.00     0.070 A 
HETATM    5  C5  UNL     1      25.054   1.199  52.809  1.00  0.00     0.074 A 
HETATM    6  N1  UNL     1      26.334   1.046  53.154  1.00  0.00    -0.241 NA
HETATM    7  C6  UNL     1      27.314   1.630  52.457  1.00  0.00     0.236 A 
HETATM    8  N2  UNL     1      26.952   2.370  51.405  1.00  0.00    -0.224 NA
HETATM    9  C7  UNL     1      25.705   2.583  50.978  1.00  0.00     0.142 A 
HETATM   10  C14 UNL     1      24.725   1.969  51.717  1.00  0.00     0.039 A 
HETATM   11  C15 UNL     1      23.380   2.045  51.467  1.00  0.00     0.029 A 
HETATM   12  C16 UNL     1      22.435   1.408  52.240  1.00  0.00    -0.006 A 
HETATM   13  C17 UNL     1      20.959   1.500  51.950  1.00  0.00     0.161 C 
HETATM   14  N4  UNL     1      20.400   0.246  52.326  1.00  0.00    -0.378 N 
ENDROOT
BRANCH   9  15
HETATM   15  N3  UNL     1      25.332   3.368  49.862  1.00  0.00    -0.340 N 
HETATM   16  H5  UNL     1      24.479   3.168  49.317  1.00  0.00     0.167 HD
BRANCH  15  17
HETATM   17  C8  UNL     1      25.969   4.493  49.290  1.00  0.00     0.035 A 
HETATM   18  C9  UNL     1      25.361   5.715  48.990  1.00  0.00     0.029 A 
HETATM   19  C10 UNL     1      26.014   6.769  48.437  1.00  0.00     0.004 A 
HETATM   20  C11 UNL     1      27.344   6.698  48.132  1.00  0.00     0.024 A 
HETATM   21  C12 UNL     1      27.998   5.518  48.405  1.00  0.00     0.036 A 
HETATM   22 CL1  UNL     1      29.696   5.477  47.994  1.00  0.00    -0.084 Cl
HETATM   23  C13 UNL     1      27.303   4.466  48.966  1.00  0.00     0.053 A 
ENDBRANCH  15  17
ENDBRANCH   9  15
BRANCH  14  24
HETATM   24  C18 UNL     1      19.229  -0.170  51.642  1.00  0.00     0.121 C 
BRANCH  24  25
HETATM   25  C19 UNL     1      17.978   0.599  51.935  1.00  0.00     0.039 C 
BRANCH  25  26
HETATM   26  C20 UNL     1      17.448   1.320  50.710  1.00  0.00     0.118 C 
BRANCH  26  27
HETATM   27  N5  UNL     1      16.297   2.104  50.977  1.00  0.00    -0.408 N 
HETATM   28  C21 UNL     1      16.321   3.466  50.588  1.00  0.00     0.143 C 
HETATM   29  C22 UNL     1      16.511   4.340  51.783  1.00  0.00     0.187 C 
HETATM   30  O3  UNL     1      15.750   4.026  52.880  1.00  0.00    -0.388 OA
HETATM   31  C23 UNL     1      14.877   2.983  52.719  1.00  0.00     0.187 C 
HETATM   32  C24 UNL     1      15.514   1.757  52.109  1.00  0.00     0.143 C 
ENDBRANCH  26  27
ENDBRANCH  25  26
ENDBRANCH  24  25
ENDBRANCH  14  24
BRANCH   1  33
HETATM   33  C1  UNL     1      20.120  -1.517  53.894  1.00  0.00     0.284 C 
HETATM   34  O1  UNL     1      20.935  -1.780  54.770  1.00  0.00    -0.302 OA
ENDBRANCH   1  33
TORSDOF 7
ENDMDL
MODEL 6
REMARK VINA RESULT:      -8.6      4.449      6.749
REMARK  7 active torsions:
REMARK  status: ('A' for Active; 'I' for Inactive)
REMARK    1  A    between atoms: C1_2  and  C2_3 
REMARK    2  A    between atoms: C7_11  and  N3_12 
REMARK    3  A    between atoms: N3_12  and  C8_13 
REMARK    4  A    between atoms: N4_24  and  C18_25 
REMARK    5  A    between atoms: C18_25  and  C19_26 
REMARK    6  A    between atoms: C19_26  and  C20_27 
REMARK    7  A    between atoms: C20_27  and  N5_28 
ROOT
HETATM    1  C2  UNL     1      22.290  -0.572  52.741  1.00  0.00     0.288 C 
HETATM    2  O2  UNL     1      21.443   0.387  52.131  1.00  0.00    -0.319 OA
HETATM    3  C3  UNL     1      21.929   1.658  51.873  1.00  0.00     0.082 A 
HETATM    4  C4  UNL     1      21.072   2.664  51.492  1.00  0.00     0.070 A 
HETATM    5  C5  UNL     1      21.526   3.928  51.229  1.00  0.00     0.074 A 
HETATM    6  N1  UNL     1      20.613   4.831  50.867  1.00  0.00    -0.241 NA
HETATM    7  C6  UNL     1      20.958   6.093  50.591  1.00  0.00     0.236 A 
HETATM    8  N2  UNL     1      22.253   6.404  50.694  1.00  0.00    -0.224 NA
HETATM    9  C7  UNL     1      23.240   5.578  51.047  1.00  0.00     0.142 A 
HETATM   10  C14 UNL     1      22.849   4.290  51.323  1.00  0.00     0.039 A 
HETATM   11  C15 UNL     1      23.685   3.274  51.705  1.00  0.00     0.029 A 
HETATM   12  C16 UNL     1      23.242   1.998  51.971  1.00  0.00    -0.006 A 
HETATM   13  C17 UNL     1      24.175   0.892  52.392  1.00  0.00     0.161 C 
HETATM   14  N4  UNL     1      23.437   0.066  53.287  1.00  0.00    -0.378 N 
ENDROOT
BRANCH   9  15
HETATM   15  N3  UNL     1      24.609   5.916  51.154  1.00  0.00    -0.340 N 
HETATM   16  H5  UNL     1      25.035   6.179  52.055  1.00  0.00     0.167 HD
BRANCH  15  17
HETATM   17  C8  UNL     1      25.611   5.968  50.157  1.00  0.00     0.035 A 
HETATM   18  C9  UNL     1      26.289   4.871  49.619  1.00  0.00     0.029 A 
HETATM   19  C10 UNL     1      27.248   4.969  48.663  1.00  0.00     0.004 A 
HETATM   20  C11 UNL     1      27.619   6.181  48.153  1.00  0.00     0.024 A 
HETATM   21  C12 UNL     1      26.986   7.300  48.646  1.00  0.00     0.036 A 
HETATM   22 CL1  UNL     1      27.498   8.825  47.964  1.00  0.00    -0.084 Cl
HETATM   23  C13 UNL     1      26.016   7.163  49.618  1.00  0.00     0.053 A 
ENDBRANCH  15  17
ENDBRANCH   9  15
BRANCH  14  24
HETATM   24  C18 UNL     1      24.175  -0.645  54.267  1.00  0.00     0.121 C 
BRANCH  24  25
HETATM   25  C19 UNL     1      25.582  -0.192  54.500  1.00  0.00     0.039 C 
BRANCH  25  26
HETATM   26  C20 UNL     1      26.573  -0.912  53.605  1.00  0.00     0.118 C 
BRANCH  26  27
HETATM   27  N5  UNL     1      27.902  -0.871  54.097  1.00  0.00    -0.408 N 
HETATM   28  C21 UNL     1      28.249   0.186  54.975  1.00  0.00     0.143 C 
HETATM   29  C22 UNL     1      29.074   1.201  54.257  1.00  0.00     0.187 C 
HETATM   30  O3  UNL     1      30.078   0.705  53.464  1.00  0.00    -0.388 OA
HETATM   31  C23 UNL     1      30.224  -0.657  53.475  1.00  0.00     0.187 C 
HETATM   32  C24 UNL     1      28.926  -1.401  53.270  1.00  0.00     0.143 C 
ENDBRANCH  26  27
ENDBRANCH  25  26
ENDBRANCH  24  25
ENDBRANCH  14  24
BRANCH   1  33
HETATM   33  C1  UNL     1      21.491  -1.181  53.835  1.00  0.00     0.284 C 
HETATM   34  O1  UNL     1      20.398  -0.757  53.478  1.00  0.00    -0.302 OA
ENDBRANCH   1  33
TORSDOF 7
ENDMDL
MODEL 7
REMARK VINA RESULT:      -8.4      3.249      4.733
REMARK  7 active torsions:
REMARK  status: ('A' for Active; 'I' for Inactive)
REMARK    1  A    between atoms: C1_2  and  C2_3 
REMARK    2  A    between atoms: C7_11  and  N3_12 
REMARK    3  A    between atoms: N3_12  and  C8_13 
REMARK    4  A    between atoms: N4_24  and  C18_25 
REMARK    5  A    between atoms: C18_25  and  C19_26 
REMARK    6  A    between atoms: C19_26  and  C20_27 
REMARK    7  A    between atoms: C20_27  and  N5_28 
ROOT
HETATM    1  C2  UNL     1      22.813   1.685  50.431  1.00  0.00     0.288 C 
HETATM    2  O2  UNL     1      22.494   2.423  49.263  1.00  0.00    -0.319 OA
HETATM    3  C3  UNL     1      23.124   3.634  49.030  1.00  0.00     0.082 A 
HETATM    4  C4  UNL     1      22.676   4.468  48.033  1.00  0.00     0.070 A 
HETATM    5  C5  UNL     1      23.281   5.670  47.779  1.00  0.00     0.074 A 
HETATM    6  N1  UNL     1      22.768   6.404  46.790  1.00  0.00    -0.241 NA
HETATM    7  C6  UNL     1      23.289   7.593  46.469  1.00  0.00     0.236 A 
HETATM    8  N2  UNL     1      24.340   8.007  47.181  1.00  0.00    -0.224 NA
HETATM    9  C7  UNL     1      24.924   7.351  48.187  1.00  0.00     0.142 A 
HETATM   10  C14 UNL     1      24.364   6.134  48.489  1.00  0.00     0.039 A 
HETATM   11  C15 UNL     1      24.793   5.289  49.478  1.00  0.00     0.029 A 
HETATM   12  C16 UNL     1      24.195   4.077  49.742  1.00  0.00    -0.006 A 
HETATM   13  C17 UNL     1      24.678   3.160  50.836  1.00  0.00     0.161 C 
HETATM   14  N4  UNL     1      23.522   2.507  51.349  1.00  0.00    -0.378 N 
ENDROOT
BRANCH   9  15
HETATM   15  N3  UNL     1      26.037   7.798  48.936  1.00  0.00    -0.340 N 
HETATM   16  H5  UNL     1      25.925   8.348  49.801  1.00  0.00     0.167 HD
BRANCH  15  17
HETATM   17  C8  UNL     1      27.420   7.617  48.701  1.00  0.00     0.035 A 
HETATM   18  C9  UNL     1      28.013   6.485  48.136  1.00  0.00     0.029 A 
HETATM   19  C10 UNL     1      29.349   6.354  47.932  1.00  0.00     0.004 A 
HETATM   20  C11 UNL     1      30.220   7.349  48.277  1.00  0.00     0.024 A 
HETATM   21  C12 UNL     1      29.693   8.490  48.840  1.00  0.00     0.036 A 
HETATM   22 CL1  UNL     1      30.847   9.731  49.265  1.00  0.00    -0.084 Cl
HETATM   23  C13 UNL     1      28.330   8.589  49.033  1.00  0.00     0.053 A 
ENDBRANCH  15  17
ENDBRANCH   9  15
BRANCH  14  24
HETATM   24  C18 UNL     1      23.566   2.085  52.702  1.00  0.00     0.121 C 
BRANCH  24  25
HETATM   25  C19 UNL     1      24.906   2.121  53.368  1.00  0.00     0.039 C 
BRANCH  25  26
HETATM   26  C20 UNL     1      25.605   0.775  53.323  1.00  0.00     0.118 C 
BRANCH  26  27
HETATM   27  N5  UNL     1      27.011   0.882  53.169  1.00  0.00    -0.408 N 
HETATM   28  C21 UNL     1      27.808  -0.202  53.616  1.00  0.00     0.143 C 
HETATM   29  C22 UNL     1      28.480   0.148  54.901  1.00  0.00     0.187 C 
HETATM   30  O3  UNL     1      29.049   1.395  54.957  1.00  0.00    -0.388 OA
HETATM   31  C23 UNL     1      28.971   2.137  53.809  1.00  0.00     0.187 C 
HETATM   32  C24 UNL     1      27.582   2.180  53.217  1.00  0.00     0.143 C 
ENDBRANCH  26  27
ENDBRANCH  25  26
ENDBRANCH  24  25
ENDBRANCH  14  24
BRANCH   1  33
HETATM   33  C1  UNL     1      21.512   1.283  51.024  1.00  0.00     0.284 C 
HETATM   34  O1  UNL     1      21.175   0.507  50.137  1.00  0.00    -0.302 OA
ENDBRANCH   1  33
TORSDOF 7
ENDMDL
MODEL 8
REMARK VINA RESULT:      -8.3      3.196      7.479
REMARK  7 active torsions:
REMARK  status: ('A' for Active; 'I' for Inactive)
REMARK    1  A    between atoms: C1_2  and  C2_3 
REMARK    2  A    between atoms: C7_11  and  N3_12 
REMARK    3  A    between atoms: N3_12  and  C8_13 
REMARK    4  A    between atoms: N4_24  and  C18_25 
REMARK    5  A    between atoms: C18_25  and  C19_26 
REMARK    6  A    between atoms: C19_26  and  C20_27 
REMARK    7  A    between atoms: C20_27  and  N5_28 
ROOT
HETATM    1  C2  UNL     1      25.332   8.487  47.047  1.00  0.00     0.288 C 
HETATM    2  O2  UNL     1      24.318   7.572  47.427  1.00  0.00    -0.319 OA
HETATM    3  C3  UNL     1      24.634   6.514  48.262  1.00  0.00     0.082 A 
HETATM    4  C4  UNL     1      23.731   5.497  48.464  1.00  0.00     0.070 A 
HETATM    5  C5  UNL     1      24.016   4.440  49.287  1.00  0.00     0.074 A 
HETATM    6  N1  UNL     1      23.073   3.505  49.414  1.00  0.00    -0.241 NA
HETATM    7  C6  UNL     1      23.259   2.435  50.193  1.00  0.00     0.236 A 
HETATM    8  N2  UNL     1      24.427   2.348  50.834  1.00  0.00    -0.224 NA
HETATM    9  C7  UNL     1      25.432   3.224  50.773  1.00  0.00     0.142 A 
HETATM   10  C14 UNL     1      25.207   4.311  49.964  1.00  0.00     0.039 A 
HETATM   11  C15 UNL     1      26.091   5.334  49.748  1.00  0.00     0.029 A 
HETATM   12  C16 UNL     1      25.816   6.403  48.925  1.00  0.00    -0.006 A 
HETATM   13  C17 UNL     1      26.802   7.520  48.697  1.00  0.00     0.161 C 
HETATM   14  N4  UNL     1      26.612   7.951  47.353  1.00  0.00    -0.378 N 
ENDROOT
BRANCH   9  15
HETATM   15  N3  UNL     1      26.667   3.123  51.455  1.00  0.00    -0.340 N 
HETATM   16  H5  UNL     1      27.360   3.886  51.441  1.00  0.00     0.167 HD
BRANCH  15  17
HETATM   17  C8  UNL     1      27.188   2.064  52.234  1.00  0.00     0.035 A 
HETATM   18  C9  UNL     1      28.091   2.195  53.293  1.00  0.00     0.029 A 
HETATM   19  C10 UNL     1      28.569   1.147  54.013  1.00  0.00     0.004 A 
HETATM   20  C11 UNL     1      28.184  -0.136  53.738  1.00  0.00     0.024 A 
HETATM   21  C12 UNL     1      27.295  -0.327  52.704  1.00  0.00     0.036 A 
HETATM   22 CL1  UNL     1      26.837  -1.984  52.392  1.00  0.00    -0.084 Cl
HETATM   23  C13 UNL     1      26.831   0.761  51.993  1.00  0.00     0.053 A 
ENDBRANCH  15  17
ENDBRANCH   9  15
BRANCH  14  24
HETATM   24  C18 UNL     1      27.732   8.518  46.693  1.00  0.00     0.121 C 
BRANCH  24  25
HETATM   25  C19 UNL     1      29.050   8.394  47.391  1.00  0.00     0.039 C 
BRANCH  25  26
HETATM   26  C20 UNL     1      29.945   7.354  46.745  1.00  0.00     0.118 C 
BRANCH  26  27
HETATM   27  N5  UNL     1      31.076   7.022  47.535  1.00  0.00    -0.408 N 
HETATM   28  C21 UNL     1      32.036   6.142  46.976  1.00  0.00     0.143 C 
HETATM   29  C22 UNL     1      31.908   4.786  47.585  1.00  0.00     0.187 C 
HETATM   30  O3  UNL     1      31.764   4.755  48.949  1.00  0.00    -0.388 OA
HETATM   31  C23 UNL     1      31.808   5.970  49.579  1.00  0.00     0.187 C 
HETATM   32  C24 UNL     1      30.912   7.007  48.944  1.00  0.00     0.143 C 
ENDBRANCH  26  27
ENDBRANCH  25  26
ENDBRANCH  24  25
ENDBRANCH  14  24
BRANCH   1  33
HETATM   33  C1  UNL     1      25.199   8.651  45.576  1.00  0.00     0.284 C 
HETATM   34  O1  UNL     1      24.144   8.041  45.451  1.00  0.00    -0.302 OA
ENDBRANCH   1  33
TORSDOF 7
ENDMDL
MODEL 9
REMARK VINA RESULT:      -8.2      5.892      9.582
REMARK  7 active torsions:
REMARK  status: ('A' for Active; 'I' for Inactive)
REMARK    1  A    between atoms: C1_2  and  C2_3 
REMARK    2  A    between atoms: C7_11  and  N3_12 
REMARK    3  A    between atoms: N3_12  and  C8_13 
REMARK    4  A    between atoms: N4_24  and  C18_25 
REMARK    5  A    between atoms: C18_25  and  C19_26 
REMARK    6  A    between atoms: C19_26  and  C20_27 
REMARK    7  A    between atoms: C20_27  and  N5_28 
ROOT
HETATM    1  C2  UNL     1      21.159  -0.316  54.265  1.00  0.00     0.288 C 
HETATM    2  O2  UNL     1      22.535  -0.009  54.110  1.00  0.00    -0.319 OA
HETATM    3  C3  UNL     1      22.921   0.926  53.165  1.00  0.00     0.082 A 
HETATM    4  C4  UNL     1      24.249   1.078  52.842  1.00  0.00     0.070 A 
HETATM    5  C5  UNL     1      24.659   1.996  51.913  1.00  0.00     0.074 A 
HETATM    6  N1  UNL     1      25.969   2.063  51.672  1.00  0.00    -0.241 NA
HETATM    7  C6  UNL     1      26.466   2.927  50.781  1.00  0.00     0.236 A 
HETATM    8  N2  UNL     1      25.592   3.714  50.147  1.00  0.00    -0.224 NA
HETATM    9  C7  UNL     1      24.268   3.724  50.315  1.00  0.00     0.142 A 
HETATM   10  C14 UNL     1      23.793   2.825  51.238  1.00  0.00     0.039 A 
HETATM   11  C15 UNL     1      22.476   2.657  51.574  1.00  0.00     0.029 A 
HETATM   12  C16 UNL     1      22.050   1.739  52.507  1.00  0.00    -0.006 A 
HETATM   13  C17 UNL     1      20.596   1.565  52.864  1.00  0.00     0.161 C 
HETATM   14  N4  UNL     1      20.420   0.182  53.158  1.00  0.00    -0.378 N 
ENDROOT
BRANCH   9  15
HETATM   15  N3  UNL     1      23.351   4.562  49.640  1.00  0.00    -0.340 N 
HETATM   16  H5  UNL     1      22.933   5.388  50.095  1.00  0.00     0.167 HD
BRANCH  15  17
HETATM   17  C8  UNL     1      22.842   4.476  48.324  1.00  0.00     0.035 A 
HETATM   18  C9  UNL     1      22.340   3.323  47.714  1.00  0.00     0.029 A 
HETATM   19  C10 UNL     1      21.863   3.286  46.443  1.00  0.00     0.004 A 
HETATM   20  C11 UNL     1      21.845   4.406  45.660  1.00  0.00     0.024 A 
HETATM   21  C12 UNL     1      22.328   5.574  46.207  1.00  0.00     0.036 A 
HETATM   22 CL1  UNL     1      22.286   6.975  45.165  1.00  0.00    -0.084 Cl
HETATM   23  C13 UNL     1      22.806   5.574  47.502  1.00  0.00     0.053 A 
ENDBRANCH  15  17
ENDBRANCH   9  15
BRANCH  14  24
HETATM   24  C18 UNL     1      19.132  -0.366  52.933  1.00  0.00     0.121 C 
BRANCH  24  25
HETATM   25  C19 UNL     1      18.416   0.097  51.703  1.00  0.00     0.039 C 
BRANCH  25  26
HETATM   26  C20 UNL     1      16.932   0.300  51.945  1.00  0.00     0.118 C 
BRANCH  26  27
HETATM   27  N5  UNL     1      16.444   1.527  51.427  1.00  0.00    -0.408 N 
HETATM   28  C21 UNL     1      17.364   2.376  50.764  1.00  0.00     0.143 C 
HETATM   29  C22 UNL     1      17.723   3.530  51.640  1.00  0.00     0.187 C 
HETATM   30  O3  UNL     1      16.677   4.139  52.286  1.00  0.00    -0.388 OA
HETATM   31  C23 UNL     1      15.433   3.641  52.001  1.00  0.00     0.187 C 
HETATM   32  C24 UNL     1      15.353   2.137  52.099  1.00  0.00     0.143 C 
ENDBRANCH  26  27
ENDBRANCH  25  26
ENDBRANCH  24  25
ENDBRANCH  14  24
BRANCH   1  33
HETATM   33  C1  UNL     1      21.076  -1.800  54.291  1.00  0.00     0.284 C 
HETATM   34  O1  UNL     1      21.898  -1.981  55.181  1.00  0.00    -0.302 OA
ENDBRANCH   1  33
TORSDOF 7
ENDMDL
