MODEL 1
REMARK VINA RESULT:      -9.2      0.000      0.000
REMARK  5 active torsions:
REMARK  status: ('A' for Active; 'I' for Inactive)
REMARK       I    between atoms: C2_2  and  N1_4 
REMARK    1  A    between atoms: N2_7  and  C5_8 
REMARK    2  A    between atoms: C8_12  and  C9_13 
REMARK    3  A    between atoms: C13_17  and  O2_18 
REMARK    4  A    between atoms: O2_18  and  C14_19 
REMARK    5  A    between atoms: C14_19  and  C15_20 
ROOT
HETATM    1  C5  UNL     1      23.669   0.422  53.862  1.00  0.00     0.234 C 
HETATM    2  C6  UNL     1      23.003  -0.962  53.917  1.00  0.00     0.073 C 
HETATM    3  C7  UNL     1      21.718  -0.179  54.224  1.00  0.00     0.233 C 
HETATM    4  N3  UNL     1      20.506  -0.759  53.736  1.00  0.00     0.101 N 
HETATM    5  C8  UNL     1      19.937   0.045  52.716  1.00  0.00     0.279 C 
HETATM    6  C20 UNL     1      20.962   0.183  51.615  1.00  0.00     0.010 C 
HETATM    7  C21 UNL     1      22.180   0.625  51.910  1.00  0.00    -0.019 C 
HETATM    8  C22 UNL     1      22.298   0.914  53.367  1.00  0.00     0.074 C 
HETATM    9  H12 UNL     1      19.880  -0.845  54.595  1.00  0.00     0.317 HD
ENDROOT
BRANCH   5  10
HETATM   10  C9  UNL     1      18.633  -0.347  52.197  1.00  0.00     0.020 A 
HETATM   11  C10 UNL     1      18.423   0.300  50.971  1.00  0.00     0.013 A 
HETATM   12  C11 UNL     1      17.251   0.116  50.235  1.00  0.00     0.003 A 
HETATM   13  C12 UNL     1      16.301  -0.729  50.761  1.00  0.00     0.040 A 
HETATM   14  C13 UNL     1      16.432  -1.395  51.952  1.00  0.00     0.107 A 
HETATM   15  C19 UNL     1      17.627  -1.178  52.654  1.00  0.00     0.158 A 
HETATM   16  F1  UNL     1      17.990  -1.721  53.844  1.00  0.00    -0.203 F 
BRANCH  14  17
HETATM   17  O2  UNL     1      15.677  -2.251  52.669  1.00  0.00    -0.345 OA
BRANCH  17  18
HETATM   18  C14 UNL     1      14.785  -3.221  52.294  1.00  0.00     0.207 C 
BRANCH  18  19
HETATM   19  C15 UNL     1      15.440  -4.578  52.282  1.00  0.00     0.145 C 
HETATM   20  C16 UNL     1      16.301  -4.652  53.521  1.00  0.00     0.036 C 
HETATM   21  C17 UNL     1      15.296  -5.179  54.548  1.00  0.00     0.029 C 
HETATM   22  C18 UNL     1      14.511  -6.114  53.648  1.00  0.00     0.168 C 
HETATM   23  O3  UNL     1      14.481  -5.573  52.393  1.00  0.00    -0.384 OA
ENDBRANCH  18  19
ENDBRANCH  17  18
ENDBRANCH  14  17
ENDBRANCH   5  10
BRANCH   1  24
HETATM   24  N2  UNL     1      24.652   0.564  52.816  1.00  0.00     0.097 N 
HETATM   25  C4  UNL     1      25.451   1.734  53.031  1.00  0.00     0.292 C 
HETATM   26  C3  UNL     1      26.710   1.483  53.827  1.00  0.00     0.156 C 
HETATM   27  N1  UNL     1      27.473   0.370  53.270  1.00  0.00    -0.349 N 
HETATM   28  C2  UNL     1      28.667   0.249  54.033  1.00  0.00     0.215 C 
HETATM   29  C24 UNL     1      26.836  -0.288  52.134  1.00  0.00     0.156 C 
HETATM   30  C1  UNL     1      29.739  -0.750  53.820  1.00  0.00     0.117 C 
HETATM   31  O1  UNL     1      28.553   1.170  54.877  1.00  0.00    -0.274 OA
HETATM   32  C23 UNL     1      25.422  -0.632  52.602  1.00  0.00     0.292 C 
ENDBRANCH   1  24
TORSDOF 5
ENDMDL
MODEL 2
REMARK VINA RESULT:      -9.2      2.143      3.381
REMARK  5 active torsions:
REMARK  status: ('A' for Active; 'I' for Inactive)
REMARK       I    between atoms: C2_2  and  N1_4 
REMARK    1  A    between atoms: N2_7  and  C5_8 
REMARK    2  A    between atoms: C8_12  and  C9_13 
REMARK    3  A    between atoms: C13_17  and  O2_18 
REMARK    4  A    between atoms: O2_18  and  C14_19 
REMARK    5  A    between atoms: C14_19  and  C15_20 
ROOT
HETATM    1  C5  UNL     1      23.613   0.189  54.136  1.00  0.00     0.234 C 
HETATM    2  C6  UNL     1      23.034  -1.211  54.389  1.00  0.00     0.073 C 
HETATM    3  C7  UNL     1      21.744  -0.462  54.751  1.00  0.00     0.233 C 
HETATM    4  N3  UNL     1      20.524  -1.142  54.447  1.00  0.00     0.101 N 
HETATM    5  C8  UNL     1      19.814  -0.470  53.420  1.00  0.00     0.279 C 
HETATM    6  C20 UNL     1      20.718  -0.395  52.211  1.00  0.00     0.010 C 
HETATM    7  C21 UNL     1      21.932   0.129  52.337  1.00  0.00    -0.019 C 
HETATM    8  C22 UNL     1      22.176   0.567  53.740  1.00  0.00     0.074 C 
HETATM    9  H12 UNL     1      19.990  -1.171  55.369  1.00  0.00     0.317 HD
ENDROOT
BRANCH   5  10
HETATM   10  C9  UNL     1      18.490  -0.971  53.076  1.00  0.00     0.020 A 
HETATM   11  C10 UNL     1      18.362  -2.279  53.563  1.00  0.00     0.013 A 
HETATM   12  C11 UNL     1      17.193  -3.020  53.381  1.00  0.00     0.003 A 
HETATM   13  C12 UNL     1      16.162  -2.415  52.700  1.00  0.00     0.040 A 
HETATM   14  C13 UNL     1      16.211  -1.141  52.193  1.00  0.00     0.107 A 
HETATM   15  C19 UNL     1      17.406  -0.439  52.402  1.00  0.00     0.158 A 
HETATM   16  F1  UNL     1      17.694   0.827  52.002  1.00  0.00    -0.203 F 
BRANCH  14  17
HETATM   17  O2  UNL     1      15.369  -0.341  51.509  1.00  0.00    -0.345 OA
BRANCH  17  18
HETATM   18  C14 UNL     1      14.184   0.252  51.856  1.00  0.00     0.207 C 
BRANCH  18  19
HETATM   19  C15 UNL     1      14.309   0.976  53.172  1.00  0.00     0.145 C 
HETATM   20  C16 UNL     1      14.588   2.423  52.843  1.00  0.00     0.036 C 
HETATM   21  C17 UNL     1      13.166   2.974  52.709  1.00  0.00     0.029 C 
HETATM   22  C18 UNL     1      12.497   2.162  53.802  1.00  0.00     0.168 C 
HETATM   23  O3  UNL     1      13.104   0.939  53.855  1.00  0.00    -0.384 OA
ENDBRANCH  18  19
ENDBRANCH  17  18
ENDBRANCH  14  17
ENDBRANCH   5  10
BRANCH   1  24
HETATM   24  N2  UNL     1      24.480   0.271  52.987  1.00  0.00     0.097 N 
HETATM   25  C4  UNL     1      25.128   1.549  52.934  1.00  0.00     0.292 C 
HETATM   26  C3  UNL     1      26.468   1.590  53.627  1.00  0.00     0.156 C 
HETATM   27  N1  UNL     1      27.329   0.500  53.175  1.00  0.00    -0.349 N 
HETATM   28  C2  UNL     1      28.585   0.655  53.822  1.00  0.00     0.215 C 
HETATM   29  C24 UNL     1      26.698  -0.412  52.227  1.00  0.00     0.156 C 
HETATM   30  C1  UNL     1      29.763  -0.228  53.660  1.00  0.00     0.117 C 
HETATM   31  O1  UNL     1      28.416   1.683  54.520  1.00  0.00    -0.274 OA
HETATM   32  C23 UNL     1      25.386  -0.841  52.884  1.00  0.00     0.292 C 
ENDBRANCH   1  24
TORSDOF 5
ENDMDL
MODEL 3
REMARK VINA RESULT:      -8.9      6.456      9.211
REMARK  5 active torsions:
REMARK  status: ('A' for Active; 'I' for Inactive)
REMARK       I    between atoms: C2_2  and  N1_4 
REMARK    1  A    between atoms: N2_7  and  C5_8 
REMARK    2  A    between atoms: C8_12  and  C9_13 
REMARK    3  A    between atoms: C13_17  and  O2_18 
REMARK    4  A    between atoms: O2_18  and  C14_19 
REMARK    5  A    between atoms: C14_19  and  C15_20 
ROOT
HETATM    1  C5  UNL     1      25.286   6.941  48.837  1.00  0.00     0.234 C 
HETATM    2  C6  UNL     1      25.492   6.895  50.359  1.00  0.00     0.073 C 
HETATM    3  C7  UNL     1      24.639   5.620  50.298  1.00  0.00     0.233 C 
HETATM    4  N3  UNL     1      24.954   4.614  51.263  1.00  0.00     0.101 N 
HETATM    5  C8  UNL     1      25.493   3.463  50.636  1.00  0.00     0.279 C 
HETATM    6  C20 UNL     1      26.721   3.891  49.869  1.00  0.00     0.010 C 
HETATM    7  C21 UNL     1      26.628   4.882  48.988  1.00  0.00    -0.019 C 
HETATM    8  C22 UNL     1      25.235   5.407  48.931  1.00  0.00     0.074 C 
HETATM    9  H12 UNL     1      24.034   4.422  51.766  1.00  0.00     0.317 HD
ENDROOT
BRANCH   5  10
HETATM   10  C9  UNL     1      25.755   2.300  51.473  1.00  0.00     0.020 A 
HETATM   11  C10 UNL     1      27.103   2.314  51.856  1.00  0.00     0.013 A 
HETATM   12  C11 UNL     1      27.648   1.315  52.666  1.00  0.00     0.003 A 
HETATM   13  C12 UNL     1      26.807   0.307  53.077  1.00  0.00     0.040 A 
HETATM   14  C13 UNL     1      25.479   0.223  52.744  1.00  0.00     0.107 A 
HETATM   15  C19 UNL     1      24.979   1.250  51.930  1.00  0.00     0.158 A 
HETATM   16  F1  UNL     1      23.709   1.389  51.472  1.00  0.00    -0.203 F 
BRANCH  14  17
HETATM   17  O2  UNL     1      24.469  -0.631  53.005  1.00  0.00    -0.345 OA
BRANCH  17  18
HETATM   18  C14 UNL     1      23.519  -0.653  53.992  1.00  0.00     0.207 C 
BRANCH  18  19
HETATM   19  C15 UNL     1      22.231  -1.250  53.485  1.00  0.00     0.145 C 
HETATM   20  C16 UNL     1      21.244  -1.176  54.625  1.00  0.00     0.036 C 
HETATM   21  C17 UNL     1      20.648   0.218  54.411  1.00  0.00     0.029 C 
HETATM   22  C18 UNL     1      20.641   0.238  52.894  1.00  0.00     0.168 C 
HETATM   23  O3  UNL     1      21.720  -0.477  52.454  1.00  0.00    -0.384 OA
ENDBRANCH  18  19
ENDBRANCH  17  18
ENDBRANCH  14  17
ENDBRANCH   5  10
BRANCH   1  24
HETATM   24  N2  UNL     1      26.452   7.352  48.094  1.00  0.00     0.097 N 
HETATM   25  C4  UNL     1      26.071   8.078  46.918  1.00  0.00     0.292 C 
HETATM   26  C3  UNL     1      25.986   9.572  47.115  1.00  0.00     0.156 C 
HETATM   27  N1  UNL     1      27.204  10.092  47.732  1.00  0.00    -0.349 N 
HETATM   28  C2  UNL     1      27.067  11.505  47.816  1.00  0.00     0.215 C 
HETATM   29  C24 UNL     1      28.186   9.071  48.079  1.00  0.00     0.156 C 
HETATM   30  C1  UNL     1      28.066  12.445  48.376  1.00  0.00     0.117 C 
HETATM   31  O1  UNL     1      25.935  11.707  47.315  1.00  0.00    -0.274 OA
HETATM   32  C23 UNL     1      27.424   8.035  48.905  1.00  0.00     0.292 C 
ENDBRANCH   1  24
TORSDOF 5
ENDMDL
MODEL 4
REMARK VINA RESULT:      -8.8      7.009     10.671
REMARK  5 active torsions:
REMARK  status: ('A' for Active; 'I' for Inactive)
REMARK       I    between atoms: C2_2  and  N1_4 
REMARK    1  A    between atoms: N2_7  and  C5_8 
REMARK    2  A    between atoms: C8_12  and  C9_13 
REMARK    3  A    between atoms: C13_17  and  O2_18 
REMARK    4  A    between atoms: O2_18  and  C14_19 
REMARK    5  A    between atoms: C14_19  and  C15_20 
ROOT
HETATM    1  C5  UNL     1      26.099   8.162  48.756  1.00  0.00     0.234 C 
HETATM    2  C6  UNL     1      26.214   7.854  50.257  1.00  0.00     0.073 C 
HETATM    3  C7  UNL     1      24.979   6.971  50.031  1.00  0.00     0.233 C 
HETATM    4  N3  UNL     1      24.890   5.805  50.852  1.00  0.00     0.101 N 
HETATM    5  C8  UNL     1      25.026   4.627  50.075  1.00  0.00     0.279 C 
HETATM    6  C20 UNL     1      26.358   4.698  49.364  1.00  0.00     0.010 C 
HETATM    7  C21 UNL     1      26.646   5.764  48.624  1.00  0.00    -0.019 C 
HETATM    8  C22 UNL     1      25.521   6.741  48.645  1.00  0.00     0.074 C 
HETATM    9  H12 UNL     1      23.939   5.880  51.330  1.00  0.00     0.317 HD
ENDROOT
BRANCH   5  10
HETATM   10  C9  UNL     1      24.839   3.349  50.748  1.00  0.00     0.020 A 
HETATM   11  C10 UNL     1      23.490   2.978  50.646  1.00  0.00     0.013 A 
HETATM   12  C11 UNL     1      23.010   1.791  51.202  1.00  0.00     0.003 A 
HETATM   13  C12 UNL     1      23.915   0.991  51.861  1.00  0.00     0.040 A 
HETATM   14  C13 UNL     1      25.248   1.285  52.003  1.00  0.00     0.107 A 
HETATM   15  C19 UNL     1      25.681   2.488  51.427  1.00  0.00     0.158 A 
HETATM   16  F1  UNL     1      26.941   2.992  51.431  1.00  0.00    -0.203 F 
BRANCH  14  17
HETATM   17  O2  UNL     1      26.311   0.693  52.582  1.00  0.00    -0.345 OA
BRANCH  17  18
HETATM   18  C14 UNL     1      27.007  -0.446  52.272  1.00  0.00     0.207 C 
BRANCH  18  19
HETATM   19  C15 UNL     1      27.559  -1.094  53.516  1.00  0.00     0.145 C 
HETATM   20  C16 UNL     1      29.017  -1.378  53.243  1.00  0.00     0.036 C 
HETATM   21  C17 UNL     1      29.661  -0.059  53.679  1.00  0.00     0.029 C 
HETATM   22  C18 UNL     1      28.764   0.261  54.859  1.00  0.00     0.168 C 
HETATM   23  O3  UNL     1      27.510  -0.205  54.579  1.00  0.00    -0.384 OA
ENDBRANCH  18  19
ENDBRANCH  17  18
ENDBRANCH  14  17
ENDBRANCH   5  10
BRANCH   1  24
HETATM   24  N2  UNL     1      27.364   8.235  48.068  1.00  0.00     0.097 N 
HETATM   25  C4  UNL     1      27.308   9.201  47.011  1.00  0.00     0.292 C 
HETATM   26  C3  UNL     1      27.740  10.589  47.419  1.00  0.00     0.156 C 
HETATM   27  N1  UNL     1      29.036  10.560  48.092  1.00  0.00    -0.349 N 
HETATM   28  C2  UNL     1      29.396  11.906  48.377  1.00  0.00     0.215 C 
HETATM   29  C24 UNL     1      29.587   9.223  48.282  1.00  0.00     0.156 C 
HETATM   30  C1  UNL     1      30.636  12.351  49.056  1.00  0.00     0.117 C 
HETATM   31  O1  UNL     1      28.427  12.558  47.920  1.00  0.00    -0.274 OA
HETATM   32  C23 UNL     1      28.478   8.417  48.959  1.00  0.00     0.292 C 
ENDBRANCH   1  24
TORSDOF 5
ENDMDL
MODEL 5
REMARK VINA RESULT:      -8.5      5.044      9.640
REMARK  5 active torsions:
REMARK  status: ('A' for Active; 'I' for Inactive)
REMARK       I    between atoms: C2_2  and  N1_4 
REMARK    1  A    between atoms: N2_7  and  C5_8 
REMARK    2  A    between atoms: C8_12  and  C9_13 
REMARK    3  A    between atoms: C13_17  and  O2_18 
REMARK    4  A    between atoms: O2_18  and  C14_19 
REMARK    5  A    between atoms: C14_19  and  C15_20 
ROOT
HETATM    1  C5  UNL     1      20.098   3.447  49.209  1.00  0.00     0.234 C 
HETATM    2  C6  UNL     1      21.344   3.889  49.993  1.00  0.00     0.073 C 
HETATM    3  C7  UNL     1      20.695   3.150  51.171  1.00  0.00     0.233 C 
HETATM    4  N3  UNL     1      21.599   2.541  52.097  1.00  0.00     0.101 N 
HETATM    5  C8  UNL     1      21.499   1.128  52.045  1.00  0.00     0.279 C 
HETATM    6  C20 UNL     1      21.794   0.700  50.626  1.00  0.00     0.010 C 
HETATM    7  C21 UNL     1      21.104   1.238  49.626  1.00  0.00    -0.019 C 
HETATM    8  C22 UNL     1      20.111   2.223  50.139  1.00  0.00     0.074 C 
HETATM    9  H12 UNL     1      21.327   2.942  53.047  1.00  0.00     0.317 HD
ENDROOT
BRANCH   5  10
HETATM   10  C9  UNL     1      22.270   0.361  53.013  1.00  0.00     0.020 A 
HETATM   11  C10 UNL     1      21.384  -0.344  53.840  1.00  0.00     0.013 A 
HETATM   12  C11 UNL     1      21.839  -1.169  54.870  1.00  0.00     0.003 A 
HETATM   13  C12 UNL     1      23.200  -1.266  55.047  1.00  0.00     0.040 A 
HETATM   14  C13 UNL     1      24.129  -0.609  54.282  1.00  0.00     0.107 A 
HETATM   15  C19 UNL     1      23.622   0.207  53.260  1.00  0.00     0.158 A 
HETATM   16  F1  UNL     1      24.335   0.951  52.376  1.00  0.00    -0.203 F 
BRANCH  14  17
HETATM   17  O2  UNL     1      25.474  -0.534  54.248  1.00  0.00    -0.345 OA
BRANCH  17  18
HETATM   18  C14 UNL     1      26.366   0.243  54.940  1.00  0.00     0.207 C 
BRANCH  18  19
HETATM   19  C15 UNL     1      27.731   0.190  54.304  1.00  0.00     0.145 C 
HETATM   20  C16 UNL     1      27.518   0.316  52.814  1.00  0.00     0.036 C 
HETATM   21  C17 UNL     1      27.530   1.837  52.643  1.00  0.00     0.029 C 
HETATM   22  C18 UNL     1      28.586   2.181  53.676  1.00  0.00     0.168 C 
HETATM   23  O3  UNL     1      28.487   1.282  54.701  1.00  0.00    -0.384 OA
ENDBRANCH  18  19
ENDBRANCH  17  18
ENDBRANCH  14  17
ENDBRANCH   5  10
BRANCH   1  24
HETATM   24  N2  UNL     1      20.368   3.039  47.852  1.00  0.00     0.097 N 
HETATM   25  C4  UNL     1      19.225   3.274  47.018  1.00  0.00     0.292 C 
HETATM   26  C3  UNL     1      19.222   4.623  46.341  1.00  0.00     0.156 C 
HETATM   27  N1  UNL     1      20.486   4.868  45.651  1.00  0.00    -0.349 N 
HETATM   28  C2  UNL     1      20.372   6.121  44.988  1.00  0.00     0.215 C 
HETATM   29  C24 UNL     1      21.480   3.814  45.821  1.00  0.00     0.156 C 
HETATM   30  C1  UNL     1      21.418   6.769  44.164  1.00  0.00     0.117 C 
HETATM   31  O1  UNL     1      19.210   6.489  45.284  1.00  0.00    -0.274 OA
HETATM   32  C23 UNL     1      21.588   3.593  47.330  1.00  0.00     0.292 C 
ENDBRANCH   1  24
TORSDOF 5
ENDMDL
MODEL 6
REMARK VINA RESULT:      -8.3      7.567     13.675
REMARK  5 active torsions:
REMARK  status: ('A' for Active; 'I' for Inactive)
REMARK       I    between atoms: C2_2  and  N1_4 
REMARK    1  A    between atoms: N2_7  and  C5_8 
REMARK    2  A    between atoms: C8_12  and  C9_13 
REMARK    3  A    between atoms: C13_17  and  O2_18 
REMARK    4  A    between atoms: O2_18  and  C14_19 
REMARK    5  A    between atoms: C14_19  and  C15_20 
ROOT
HETATM    1  C5  UNL     1      24.148   4.994  49.997  1.00  0.00     0.234 C 
HETATM    2  C6  UNL     1      24.161   5.549  48.564  1.00  0.00     0.073 C 
HETATM    3  C7  UNL     1      25.208   6.534  49.102  1.00  0.00     0.233 C 
HETATM    4  N3  UNL     1      26.207   6.950  48.168  1.00  0.00     0.101 N 
HETATM    5  C8  UNL     1      27.483   6.455  48.540  1.00  0.00     0.279 C 
HETATM    6  C20 UNL     1      27.388   4.949  48.608  1.00  0.00     0.010 C 
HETATM    7  C21 UNL     1      26.449   4.388  49.363  1.00  0.00    -0.019 C 
HETATM    8  C22 UNL     1      25.622   5.429  50.037  1.00  0.00     0.074 C 
HETATM    9  H12 UNL     1      26.158   8.015  48.173  1.00  0.00     0.317 HD
ENDROOT
BRANCH   5  10
HETATM   10  C9  UNL     1      28.630   6.890  47.755  1.00  0.00     0.020 A 
HETATM   11  C10 UNL     1      28.171   7.633  46.658  1.00  0.00     0.013 A 
HETATM   12  C11 UNL     1      29.049   8.183  45.723  1.00  0.00     0.003 A 
HETATM   13  C12 UNL     1      30.394   7.966  45.916  1.00  0.00     0.040 A 
HETATM   14  C13 UNL     1      30.920   7.251  46.962  1.00  0.00     0.107 A 
HETATM   15  C19 UNL     1      29.997   6.720  47.875  1.00  0.00     0.158 A 
HETATM   16  F1  UNL     1      30.269   5.985  48.983  1.00  0.00    -0.203 F 
BRANCH  14  17
HETATM   17  O2  UNL     1      32.157   6.902  47.369  1.00  0.00    -0.345 OA
BRANCH  17  18
HETATM   18  C14 UNL     1      33.017   5.921  46.950  1.00  0.00     0.207 C 
BRANCH  18  19
HETATM   19  C15 UNL     1      33.202   4.876  48.021  1.00  0.00     0.145 C 
HETATM   20  C16 UNL     1      32.539   3.617  47.515  1.00  0.00     0.036 C 
HETATM   21  C17 UNL     1      33.686   2.975  46.731  1.00  0.00     0.029 C 
HETATM   22  C18 UNL     1      34.838   3.372  47.635  1.00  0.00     0.168 C 
HETATM   23  O3  UNL     1      34.548   4.591  48.183  1.00  0.00    -0.384 OA
ENDBRANCH  18  19
ENDBRANCH  17  18
ENDBRANCH  14  17
ENDBRANCH   5  10
BRANCH   1  24
HETATM   24  N2  UNL     1      24.054   3.557  50.074  1.00  0.00     0.097 N 
HETATM   25  C4  UNL     1      23.922   3.132  51.437  1.00  0.00     0.292 C 
HETATM   26  C3  UNL     1      22.492   2.994  51.904  1.00  0.00     0.156 C 
HETATM   27  N1  UNL     1      21.712   2.178  50.978  1.00  0.00    -0.349 N 
HETATM   28  C2  UNL     1      20.407   2.043  51.527  1.00  0.00     0.215 C 
HETATM   29  C24 UNL     1      22.445   1.741  49.795  1.00  0.00     0.156 C 
HETATM   30  C1  UNL     1      19.281   1.294  50.922  1.00  0.00     0.117 C 
HETATM   31  O1  UNL     1      20.484   2.697  52.594  1.00  0.00    -0.274 OA
HETATM   32  C23 UNL     1      23.052   3.011  49.198  1.00  0.00     0.292 C 
ENDBRANCH   1  24
TORSDOF 5
ENDMDL
MODEL 7
REMARK VINA RESULT:      -8.3      3.706      4.727
REMARK  5 active torsions:
REMARK  status: ('A' for Active; 'I' for Inactive)
REMARK       I    between atoms: C2_2  and  N1_4 
REMARK    1  A    between atoms: N2_7  and  C5_8 
REMARK    2  A    between atoms: C8_12  and  C9_13 
REMARK    3  A    between atoms: C13_17  and  O2_18 
REMARK    4  A    between atoms: O2_18  and  C14_19 
REMARK    5  A    between atoms: C14_19  and  C15_20 
ROOT
HETATM    1  C5  UNL     1      23.553   0.742  51.789  1.00  0.00     0.234 C 
HETATM    2  C6  UNL     1      23.174   2.054  51.086  1.00  0.00     0.073 C 
HETATM    3  C7  UNL     1      21.926   1.288  50.627  1.00  0.00     0.233 C 
HETATM    4  N3  UNL     1      20.737   2.068  50.475  1.00  0.00     0.101 N 
HETATM    5  C8  UNL     1      19.767   1.704  51.442  1.00  0.00     0.279 C 
HETATM    6  C20 UNL     1      20.383   1.901  52.808  1.00  0.00     0.010 C 
HETATM    7  C21 UNL     1      21.543   1.317  53.090  1.00  0.00    -0.019 C 
HETATM    8  C22 UNL     1      22.036   0.531  51.924  1.00  0.00     0.074 C 
HETATM    9  H12 UNL     1      20.417   1.885  49.475  1.00  0.00     0.317 HD
ENDROOT
BRANCH   5  10
HETATM   10  C9  UNL     1      18.453   2.325  51.346  1.00  0.00     0.020 A 
HETATM   11  C10 UNL     1      18.604   3.628  50.850  1.00  0.00     0.013 A 
HETATM   12  C11 UNL     1      17.510   4.471  50.651  1.00  0.00     0.003 A 
HETATM   13  C12 UNL     1      16.265   3.974  50.963  1.00  0.00     0.040 A 
HETATM   14  C13 UNL     1      16.036   2.713  51.453  1.00  0.00     0.107 A 
HETATM   15  C19 UNL     1      17.168   1.905  51.635  1.00  0.00     0.158 A 
HETATM   16  F1  UNL     1      17.199   0.630  52.100  1.00  0.00    -0.203 F 
BRANCH  14  17
HETATM   17  O2  UNL     1      14.952   2.005  51.828  1.00  0.00    -0.345 OA
BRANCH  17  18
HETATM   18  C14 UNL     1      14.167   2.056  52.950  1.00  0.00     0.207 C 
BRANCH  18  19
HETATM   19  C15 UNL     1      12.786   2.558  52.617  1.00  0.00     0.145 C 
HETATM   20  C16 UNL     1      12.027   2.629  53.921  1.00  0.00     0.036 C 
HETATM   21  C17 UNL     1      12.392   4.036  54.399  1.00  0.00     0.029 C 
HETATM   22  C18 UNL     1      12.418   4.740  53.056  1.00  0.00     0.168 C 
HETATM   23  O3  UNL     1      12.855   3.849  52.116  1.00  0.00    -0.384 OA
ENDBRANCH  18  19
ENDBRANCH  17  18
ENDBRANCH  14  17
ENDBRANCH   5  10
BRANCH   1  24
HETATM   24  N2  UNL     1      24.145   0.918  53.092  1.00  0.00     0.097 N 
HETATM   25  C4  UNL     1      24.397  -0.351  53.708  1.00  0.00     0.292 C 
HETATM   26  C3  UNL     1      25.776  -0.905  53.439  1.00  0.00     0.156 C 
HETATM   27  N1  UNL     1      26.808   0.084  53.738  1.00  0.00    -0.349 N 
HETATM   28  C2  UNL     1      28.068  -0.539  53.524  1.00  0.00     0.215 C 
HETATM   29  C24 UNL     1      26.294   1.385  54.154  1.00  0.00     0.156 C 
HETATM   30  C1  UNL     1      29.395   0.093  53.706  1.00  0.00     0.117 C 
HETATM   31  O1  UNL     1      27.749  -1.697  53.162  1.00  0.00    -0.274 OA
HETATM   32  C23 UNL     1      25.288   1.791  53.077  1.00  0.00     0.292 C 
ENDBRANCH   1  24
TORSDOF 5
ENDMDL
MODEL 8
REMARK VINA RESULT:      -8.1      6.610     12.485
REMARK  5 active torsions:
REMARK  status: ('A' for Active; 'I' for Inactive)
REMARK       I    between atoms: C2_2  and  N1_4 
REMARK    1  A    between atoms: N2_7  and  C5_8 
REMARK    2  A    between atoms: C8_12  and  C9_13 
REMARK    3  A    between atoms: C13_17  and  O2_18 
REMARK    4  A    between atoms: O2_18  and  C14_19 
REMARK    5  A    between atoms: C14_19  and  C15_20 
ROOT
HETATM    1  C5  UNL     1      23.212   3.261  51.803  1.00  0.00     0.234 C 
HETATM    2  C6  UNL     1      22.676   4.363  50.875  1.00  0.00     0.073 C 
HETATM    3  C7  UNL     1      23.963   5.112  51.247  1.00  0.00     0.233 C 
HETATM    4  N3  UNL     1      24.507   5.956  50.229  1.00  0.00     0.101 N 
HETATM    5  C8  UNL     1      25.749   5.452  49.765  1.00  0.00     0.279 C 
HETATM    6  C20 UNL     1      25.511   4.052  49.249  1.00  0.00     0.010 C 
HETATM    7  C21 UNL     1      24.927   3.156  50.038  1.00  0.00    -0.019 C 
HETATM    8  C22 UNL     1      24.602   3.753  51.364  1.00  0.00     0.074 C 
HETATM    9  H12 UNL     1      24.594   6.915  50.688  1.00  0.00     0.317 HD
ENDROOT
BRANCH   5  10
HETATM   10  C9  UNL     1      26.491   6.262  48.810  1.00  0.00     0.020 A 
HETATM   11  C10 UNL     1      25.651   7.278  48.331  1.00  0.00     0.013 A 
HETATM   12  C11 UNL     1      26.091   8.215  47.394  1.00  0.00     0.003 A 
HETATM   13  C12 UNL     1      27.390   8.105  46.953  1.00  0.00     0.040 A 
HETATM   14  C13 UNL     1      28.271   7.141  47.373  1.00  0.00     0.107 A 
HETATM   15  C19 UNL     1      27.781   6.224  48.314  1.00  0.00     0.158 A 
HETATM   16  F1  UNL     1      28.455   5.189  48.878  1.00  0.00    -0.203 F 
BRANCH  14  17
HETATM   17  O2  UNL     1      29.553   6.822  47.107  1.00  0.00    -0.345 OA
BRANCH  17  18
HETATM   18  C14 UNL     1      30.738   7.399  47.481  1.00  0.00     0.207 C 
BRANCH  18  19
HETATM   19  C15 UNL     1      31.910   6.611  46.954  1.00  0.00     0.145 C 
HETATM   20  C16 UNL     1      33.087   6.948  47.838  1.00  0.00     0.036 C 
HETATM   21  C17 UNL     1      32.927   5.910  48.951  1.00  0.00     0.029 C 
HETATM   22  C18 UNL     1      32.424   4.747  48.116  1.00  0.00     0.168 C 
HETATM   23  O3  UNL     1      31.673   5.253  47.092  1.00  0.00    -0.384 OA
ENDBRANCH  18  19
ENDBRANCH  17  18
ENDBRANCH  14  17
ENDBRANCH   5  10
BRANCH   1  24
HETATM   24  N2  UNL     1      22.987   1.921  51.322  1.00  0.00     0.097 N 
HETATM   25  C4  UNL     1      23.383   0.958  52.307  1.00  0.00     0.292 C 
HETATM   26  C3  UNL     1      22.272   0.535  53.237  1.00  0.00     0.156 C 
HETATM   27  N1  UNL     1      21.086   0.126  52.489  1.00  0.00    -0.349 N 
HETATM   28  C2  UNL     1      20.121  -0.319  53.434  1.00  0.00     0.215 C 
HETATM   29  C24 UNL     1      21.204   0.277  51.043  1.00  0.00     0.156 C 
HETATM   30  C1  UNL     1      18.765  -0.826  53.121  1.00  0.00     0.117 C 
HETATM   31  O1  UNL     1      20.711  -0.167  54.530  1.00  0.00    -0.274 OA
HETATM   32  C23 UNL     1      21.655   1.720  50.818  1.00  0.00     0.292 C 
ENDBRANCH   1  24
TORSDOF 5
ENDMDL
MODEL 9
REMARK VINA RESULT:      -8.1      4.403     10.581
REMARK  5 active torsions:
REMARK  status: ('A' for Active; 'I' for Inactive)
REMARK       I    between atoms: C2_2  and  N1_4 
REMARK    1  A    between atoms: N2_7  and  C5_8 
REMARK    2  A    between atoms: C8_12  and  C9_13 
REMARK    3  A    between atoms: C13_17  and  O2_18 
REMARK    4  A    between atoms: O2_18  and  C14_19 
REMARK    5  A    between atoms: C14_19  and  C15_20 
ROOT
HETATM    1  C5  UNL     1      17.416   2.065  50.077  1.00  0.00     0.234 C 
HETATM    2  C6  UNL     1      17.343   0.858  51.025  1.00  0.00     0.073 C 
HETATM    3  C7  UNL     1      18.762   0.554  50.525  1.00  0.00     0.233 C 
HETATM    4  N3  UNL     1      19.635  -0.066  51.472  1.00  0.00     0.101 N 
HETATM    5  C8  UNL     1      20.689   0.810  51.836  1.00  0.00     0.279 C 
HETATM    6  C20 UNL     1      20.067   2.066  52.401  1.00  0.00     0.010 C 
HETATM    7  C21 UNL     1      19.161   2.723  51.686  1.00  0.00    -0.019 C 
HETATM    8  C22 UNL     1      18.923   2.044  50.381  1.00  0.00     0.074 C 
HETATM    9  H12 UNL     1      19.980  -0.951  50.987  1.00  0.00     0.317 HD
ENDROOT
BRANCH   5  10
HETATM   10  C9  UNL     1      21.734   0.285  52.704  1.00  0.00     0.020 A 
HETATM   11  C10 UNL     1      21.135  -0.457  53.733  1.00  0.00     0.013 A 
HETATM   12  C11 UNL     1      21.893  -1.083  54.724  1.00  0.00     0.003 A 
HETATM   13  C12 UNL     1      23.260  -0.945  54.656  1.00  0.00     0.040 A 
HETATM   14  C13 UNL     1      23.918  -0.237  53.683  1.00  0.00     0.107 A 
HETATM   15  C19 UNL     1      23.113   0.373  52.710  1.00  0.00     0.158 A 
HETATM   16  F1  UNL     1      23.527   1.119  51.654  1.00  0.00    -0.203 F 
BRANCH  14  17
HETATM   17  O2  UNL     1      25.205   0.046  53.398  1.00  0.00    -0.345 OA
BRANCH  17  18
HETATM   18  C14 UNL     1      26.383  -0.493  53.846  1.00  0.00     0.207 C 
BRANCH  18  19
HETATM   19  C15 UNL     1      27.103   0.470  54.755  1.00  0.00     0.145 C 
HETATM   20  C16 UNL     1      28.560   0.076  54.733  1.00  0.00     0.036 C 
HETATM   21  C17 UNL     1      29.064   0.879  53.531  1.00  0.00     0.029 C 
HETATM   22  C18 UNL     1      28.224   2.128  53.715  1.00  0.00     0.168 C 
HETATM   23  O3  UNL     1      27.021   1.757  54.248  1.00  0.00    -0.384 OA
ENDBRANCH  18  19
ENDBRANCH  17  18
ENDBRANCH  14  17
ENDBRANCH   5  10
BRANCH   1  24
HETATM   24  N2  UNL     1      16.822   3.268  50.605  1.00  0.00     0.097 N 
HETATM   25  C4  UNL     1      16.762   4.286  49.598  1.00  0.00     0.292 C 
HETATM   26  C3  UNL     1      15.473   4.301  48.812  1.00  0.00     0.156 C 
HETATM   27  N1  UNL     1      14.315   4.316  49.701  1.00  0.00    -0.349 N 
HETATM   28  C2  UNL     1      13.154   4.399  48.884  1.00  0.00     0.215 C 
HETATM   29  C24 UNL     1      14.643   4.243  51.120  1.00  0.00     0.156 C 
HETATM   30  C1  UNL     1      11.753   4.440  49.363  1.00  0.00     0.117 C 
HETATM   31  O1  UNL     1      13.629   4.425  47.724  1.00  0.00    -0.274 OA
HETATM   32  C23 UNL     1      15.566   3.033  51.265  1.00  0.00     0.292 C 
ENDBRANCH   1  24
TORSDOF 5
ENDMDL
