MODEL 1
REMARK VINA RESULT:      -6.4      0.000      0.000
REMARK  7 active torsions:
REMARK  status: ('A' for Active; 'I' for Inactive)
REMARK    1  A    between atoms: C2_2  and  O1_3 
REMARK    2  A    between atoms: O1_3  and  C3_4 
REMARK    3  A    between atoms: C3_4  and  C4_5 
REMARK    4  A    between atoms: C10_14  and  O2_15 
REMARK    5  A    between atoms: O2_15  and  C11_16 
REMARK    6  A    between atoms: C11_16  and  C12_17 
REMARK    7  A    between atoms: C14_20  and  C15_21 
ROOT
HETATM    1  C4  UNL     1      26.549   0.597  51.625  1.00  0.00     0.154 C 
HETATM    2  N1  UNL     1      25.857   1.730  51.430  1.00  0.00    -0.357 N 
HETATM    3  C5  UNL     1      26.318   2.983  50.716  1.00  0.00     0.104 C 
HETATM    4  C6  UNL     1      25.283   3.772  50.246  1.00  0.00     0.031 C 
HETATM    5  C7  UNL     1      24.799   5.140  50.676  1.00  0.00     0.138 C 
HETATM    6  N2  UNL     1      24.910   6.132  49.867  1.00  0.00    -0.224 NA
HETATM    7  C8  UNL     1      24.263   5.864  48.531  1.00  0.00     0.229 C 
HETATM    8  N3  UNL     1      23.790   4.686  48.646  1.00  0.00    -0.270 NA
HETATM    9  C9  UNL     1      24.181   3.482  49.239  1.00  0.00     0.181 C 
HETATM   10  C10 UNL     1      23.109   2.664  49.966  1.00  0.00     0.186 C 
HETATM   11  C13 UNL     1      23.534   2.515  51.445  1.00  0.00    -0.003 C 
HETATM   12  C14 UNL     1      24.502   1.736  52.121  1.00  0.00     0.020 C 
HETATM   13  C17 UNL     1      23.203   3.273  52.772  1.00  0.00     0.029 C 
HETATM   14  C18 UNL     1      23.261   4.694  52.845  1.00  0.00     0.090 C 
HETATM   15  N4  UNL     1      24.064   5.621  51.934  1.00  0.00    -0.350 N 
HETATM   16  H24 UNL     1      24.104   6.531  52.180  1.00  0.00     0.166 HD
ENDROOT
BRANCH   1  17
HETATM   17  C3  UNL     1      27.747   0.625  52.552  1.00  0.00     0.187 C 
BRANCH  17  18
HETATM   18  O1  UNL     1      27.498   0.239  53.852  1.00  0.00    -0.390 OA
BRANCH  18  19
HETATM   19  C2  UNL     1      28.594  -0.124  54.585  1.00  0.00     0.163 C 
HETATM   20  C1  UNL     1      29.702  -0.755  53.793  1.00  0.00     0.033 C 
ENDBRANCH  18  19
ENDBRANCH  17  18
ENDBRANCH   1  17
BRANCH  12  21
HETATM   21  C15 UNL     1      24.046   1.237  53.359  1.00  0.00     0.053 C 
HETATM   22  C16 UNL     1      23.718  -0.180  53.706  1.00  0.00     0.011 C 
ENDBRANCH  12  21
BRANCH  10  23
HETATM   23  O2  UNL     1      21.952   3.341  49.869  1.00  0.00    -0.372 OA
BRANCH  23  24
HETATM   24  C11 UNL     1      20.779   2.663  50.056  1.00  0.00     0.237 C 
BRANCH  24  25
HETATM   25  C12 UNL     1      19.917   3.556  50.917  1.00  0.00     0.257 C 
HETATM   26  O3  UNL     1      19.795   3.589  52.128  1.00  0.00    -0.305 OA
ENDBRANCH  24  25
ENDBRANCH  23  24
ENDBRANCH  10  23
TORSDOF 7
ENDMDL
MODEL 2
REMARK VINA RESULT:      -6.4      1.500      1.589
REMARK  7 active torsions:
REMARK  status: ('A' for Active; 'I' for Inactive)
REMARK    1  A    between atoms: C2_2  and  O1_3 
REMARK    2  A    between atoms: O1_3  and  C3_4 
REMARK    3  A    between atoms: C3_4  and  C4_5 
REMARK    4  A    between atoms: C10_14  and  O2_15 
REMARK    5  A    between atoms: O2_15  and  C11_16 
REMARK    6  A    between atoms: C11_16  and  C12_17 
REMARK    7  A    between atoms: C14_20  and  C15_21 
ROOT
HETATM    1  C4  UNL     1      25.523   0.235  52.899  1.00  0.00     0.154 C 
HETATM    2  N1  UNL     1      24.851   1.293  52.420  1.00  0.00    -0.357 N 
HETATM    3  C5  UNL     1      25.404   2.661  52.079  1.00  0.00     0.104 C 
HETATM    4  C6  UNL     1      24.627   3.369  51.178  1.00  0.00     0.031 C 
HETATM    5  C7  UNL     1      23.788   4.616  51.352  1.00  0.00     0.138 C 
HETATM    6  N2  UNL     1      24.128   5.695  50.743  1.00  0.00    -0.224 NA
HETATM    7  C8  UNL     1      24.276   5.499  49.255  1.00  0.00     0.229 C 
HETATM    8  N3  UNL     1      23.997   4.268  49.076  1.00  0.00    -0.270 NA
HETATM    9  C9  UNL     1      24.227   3.062  49.744  1.00  0.00     0.181 C 
HETATM   10  C10 UNL     1      23.078   2.050  49.803  1.00  0.00     0.186 C 
HETATM   11  C13 UNL     1      22.734   1.794  51.289  1.00  0.00    -0.003 C 
HETATM   12  C14 UNL     1      23.350   1.066  52.334  1.00  0.00     0.020 C 
HETATM   13  C17 UNL     1      21.678   2.361  52.292  1.00  0.00     0.029 C 
HETATM   14  C18 UNL     1      21.470   3.763  52.433  1.00  0.00     0.090 C 
HETATM   15  N4  UNL     1      22.463   4.870  52.083  1.00  0.00    -0.350 N 
HETATM   16  H24 UNL     1      22.235   5.747  52.347  1.00  0.00     0.166 HD
ENDROOT
BRANCH   1  17
HETATM   17  C3  UNL     1      26.086   0.304  54.304  1.00  0.00     0.187 C 
BRANCH  17  18
HETATM   18  O1  UNL     1      27.161  -0.523  54.551  1.00  0.00    -0.390 OA
BRANCH  18  19
HETATM   19  C2  UNL     1      28.386   0.086  54.571  1.00  0.00     0.163 C 
HETATM   20  C1  UNL     1      29.464  -0.638  53.818  1.00  0.00     0.033 C 
ENDBRANCH  18  19
ENDBRANCH  17  18
ENDBRANCH   1  17
BRANCH  12  21
HETATM   21  C15 UNL     1      22.426   0.387  53.155  1.00  0.00     0.053 C 
HETATM   22  C16 UNL     1      22.277  -1.090  53.332  1.00  0.00     0.011 C 
ENDBRANCH  12  21
BRANCH  10  23
HETATM   23  O2  UNL     1      22.031   2.593  49.159  1.00  0.00    -0.372 OA
BRANCH  23  24
HETATM   24  C11 UNL     1      21.166   1.763  48.500  1.00  0.00     0.237 C 
BRANCH  24  25
HETATM   25  C12 UNL     1      19.795   2.069  49.056  1.00  0.00     0.257 C 
HETATM   26  O3  UNL     1      19.066   1.387  49.753  1.00  0.00    -0.305 OA
ENDBRANCH  24  25
ENDBRANCH  23  24
ENDBRANCH  10  23
TORSDOF 7
ENDMDL
MODEL 3
REMARK VINA RESULT:      -6.2      2.598      4.230
REMARK  7 active torsions:
REMARK  status: ('A' for Active; 'I' for Inactive)
REMARK    1  A    between atoms: C2_2  and  O1_3 
REMARK    2  A    between atoms: O1_3  and  C3_4 
REMARK    3  A    between atoms: C3_4  and  C4_5 
REMARK    4  A    between atoms: C10_14  and  O2_15 
REMARK    5  A    between atoms: O2_15  and  C11_16 
REMARK    6  A    between atoms: C11_16  and  C12_17 
REMARK    7  A    between atoms: C14_20  and  C15_21 
ROOT
HETATM    1  C4  UNL     1      24.886   0.445  53.558  1.00  0.00     0.154 C 
HETATM    2  N1  UNL     1      23.850   0.734  52.755  1.00  0.00    -0.357 N 
HETATM    3  C5  UNL     1      22.526   0.006  52.657  1.00  0.00     0.104 C 
HETATM    4  C6  UNL     1      21.501   0.777  52.136  1.00  0.00     0.031 C 
HETATM    5  C7  UNL     1      20.755   0.685  50.823  1.00  0.00     0.138 C 
HETATM    6  N2  UNL     1      19.505   0.387  50.828  1.00  0.00    -0.224 NA
HETATM    7  C8  UNL     1      18.692   1.308  51.703  1.00  0.00     0.229 C 
HETATM    8  N3  UNL     1      19.550   2.125  52.174  1.00  0.00    -0.270 NA
HETATM    9  C9  UNL     1      20.870   2.068  52.632  1.00  0.00     0.181 C 
HETATM   10  C10 UNL     1      21.810   3.212  52.237  1.00  0.00     0.186 C 
HETATM   11  C13 UNL     1      22.989   2.613  51.435  1.00  0.00    -0.003 C 
HETATM   12  C14 UNL     1      24.140   1.865  51.780  1.00  0.00     0.020 C 
HETATM   13  C17 UNL     1      23.315   2.432  49.917  1.00  0.00     0.029 C 
HETATM   14  C18 UNL     1      22.358   1.883  49.016  1.00  0.00     0.090 C 
HETATM   15  N4  UNL     1      21.177   0.983  49.379  1.00  0.00    -0.350 N 
HETATM   16  H24 UNL     1      20.701   0.595  48.663  1.00  0.00     0.166 HD
ENDROOT
BRANCH   1  17
HETATM   17  C3  UNL     1      25.662  -0.833  53.314  1.00  0.00     0.187 C 
BRANCH  17  18
HETATM   18  O1  UNL     1      26.902  -0.895  53.916  1.00  0.00    -0.390 OA
BRANCH  18  19
HETATM   19  C2  UNL     1      27.263   0.204  54.646  1.00  0.00     0.163 C 
HETATM   20  C1  UNL     1      28.739   0.473  54.695  1.00  0.00     0.033 C 
ENDBRANCH  18  19
ENDBRANCH  17  18
ENDBRANCH   1  17
BRANCH  12  21
HETATM   21  C15 UNL     1      25.285   2.241  51.049  1.00  0.00     0.053 C 
HETATM   22  C16 UNL     1      26.670   2.457  51.570  1.00  0.00     0.011 C 
ENDBRANCH  12  21
BRANCH  10  23
HETATM   23  O2  UNL     1      21.105   4.068  51.477  1.00  0.00    -0.372 OA
BRANCH  23  24
HETATM   24  C11 UNL     1      21.535   5.363  51.380  1.00  0.00     0.237 C 
BRANCH  24  25
HETATM   25  C12 UNL     1      21.257   5.786  49.957  1.00  0.00     0.257 C 
HETATM   26  O3  UNL     1      21.848   5.503  48.931  1.00  0.00    -0.305 OA
ENDBRANCH  24  25
ENDBRANCH  23  24
ENDBRANCH  10  23
TORSDOF 7
ENDMDL
MODEL 4
REMARK VINA RESULT:      -6.1      2.504      4.147
REMARK  7 active torsions:
REMARK  status: ('A' for Active; 'I' for Inactive)
REMARK    1  A    between atoms: C2_2  and  O1_3 
REMARK    2  A    between atoms: O1_3  and  C3_4 
REMARK    3  A    between atoms: C3_4  and  C4_5 
REMARK    4  A    between atoms: C10_14  and  O2_15 
REMARK    5  A    between atoms: O2_15  and  C11_16 
REMARK    6  A    between atoms: C11_16  and  C12_17 
REMARK    7  A    between atoms: C14_20  and  C15_21 
ROOT
HETATM    1  C4  UNL     1      25.859   2.086  52.369  1.00  0.00     0.154 C 
HETATM    2  N1  UNL     1      24.647   1.966  51.803  1.00  0.00    -0.357 N 
HETATM    3  C5  UNL     1      23.539   1.008  52.187  1.00  0.00     0.104 C 
HETATM    4  C6  UNL     1      22.280   1.420  51.785  1.00  0.00     0.031 C 
HETATM    5  C7  UNL     1      21.335   0.861  50.744  1.00  0.00     0.138 C 
HETATM    6  N2  UNL     1      20.216   0.350  51.117  1.00  0.00    -0.224 NA
HETATM    7  C8  UNL     1      19.396   1.300  51.955  1.00  0.00     0.229 C 
HETATM    8  N3  UNL     1      20.112   2.352  52.020  1.00  0.00    -0.270 NA
HETATM    9  C9  UNL     1      21.471   2.657  52.141  1.00  0.00     0.181 C 
HETATM   10  C10 UNL     1      22.020   3.813  51.298  1.00  0.00     0.186 C 
HETATM   11  C13 UNL     1      23.127   3.254  50.374  1.00  0.00    -0.003 C 
HETATM   12  C14 UNL     1      24.466   2.843  50.574  1.00  0.00     0.020 C 
HETATM   13  C17 UNL     1      23.183   2.754  48.895  1.00  0.00     0.029 C 
HETATM   14  C18 UNL     1      22.226   1.828  48.391  1.00  0.00     0.090 C 
HETATM   15  N4  UNL     1      21.384   0.851  49.211  1.00  0.00    -0.350 N 
HETATM   16  H24 UNL     1      20.883   0.212  48.731  1.00  0.00     0.166 HD
ENDROOT
BRANCH   1  17
HETATM   17  C3  UNL     1      26.851   0.952  52.213  1.00  0.00     0.187 C 
BRANCH  17  18
HETATM   18  O1  UNL     1      26.913   0.072  53.273  1.00  0.00    -0.390 OA
BRANCH  18  19
HETATM   19  C2  UNL     1      27.970   0.243  54.125  1.00  0.00     0.163 C 
HETATM   20  C1  UNL     1      29.272  -0.323  53.637  1.00  0.00     0.033 C 
ENDBRANCH  18  19
ENDBRANCH  17  18
ENDBRANCH   1  17
BRANCH  12  21
HETATM   21  C15 UNL     1      25.325   3.222  49.522  1.00  0.00     0.053 C 
HETATM   22  C16 UNL     1      26.367   4.294  49.537  1.00  0.00     0.011 C 
ENDBRANCH  12  21
BRANCH  10  23
HETATM   23  O2  UNL     1      20.999   4.303  50.575  1.00  0.00    -0.372 OA
BRANCH  23  24
HETATM   24  C11 UNL     1      21.173   5.491  49.920  1.00  0.00     0.237 C 
BRANCH  24  25
HETATM   25  C12 UNL     1      21.621   6.480  50.969  1.00  0.00     0.257 C 
HETATM   26  O3  UNL     1      22.042   7.616  50.840  1.00  0.00    -0.305 OA
ENDBRANCH  24  25
ENDBRANCH  23  24
ENDBRANCH  10  23
TORSDOF 7
ENDMDL
MODEL 5
REMARK VINA RESULT:      -5.8      3.516      5.201
REMARK  7 active torsions:
REMARK  status: ('A' for Active; 'I' for Inactive)
REMARK    1  A    between atoms: C2_2  and  O1_3 
REMARK    2  A    between atoms: O1_3  and  C3_4 
REMARK    3  A    between atoms: C3_4  and  C4_5 
REMARK    4  A    between atoms: C10_14  and  O2_15 
REMARK    5  A    between atoms: O2_15  and  C11_16 
REMARK    6  A    between atoms: C11_16  and  C12_17 
REMARK    7  A    between atoms: C14_20  and  C15_21 
ROOT
HETATM    1  C4  UNL     1      21.317  -0.037  54.384  1.00  0.00     0.154 C 
HETATM    2  N1  UNL     1      20.952   0.532  53.224  1.00  0.00    -0.357 N 
HETATM    3  C5  UNL     1      19.604   0.449  52.538  1.00  0.00     0.104 C 
HETATM    4  C6  UNL     1      19.361   1.488  51.656  1.00  0.00     0.031 C 
HETATM    5  C7  UNL     1      19.250   1.507  50.147  1.00  0.00     0.138 C 
HETATM    6  N2  UNL     1      18.121   1.788  49.602  1.00  0.00    -0.224 NA
HETATM    7  C8  UNL     1      17.560   3.106  50.076  1.00  0.00     0.229 C 
HETATM    8  N3  UNL     1      18.433   3.535  50.900  1.00  0.00    -0.270 NA
HETATM    9  C9  UNL     1      19.268   2.988  51.880  1.00  0.00     0.181 C 
HETATM   10  C10 UNL     1      20.701   3.521  51.971  1.00  0.00     0.186 C 
HETATM   11  C13 UNL     1      21.672   2.341  51.734  1.00  0.00    -0.003 C 
HETATM   12  C14 UNL     1      22.095   1.238  52.513  1.00  0.00     0.020 C 
HETATM   13  C17 UNL     1      22.447   1.779  50.498  1.00  0.00     0.029 C 
HETATM   14  C18 UNL     1      21.793   1.557  49.253  1.00  0.00     0.090 C 
HETATM   15  N4  UNL     1      20.296   1.339  49.038  1.00  0.00    -0.350 N 
HETATM   16  H24 UNL     1      20.022   1.080  48.172  1.00  0.00     0.166 HD
ENDROOT
BRANCH   1  17
HETATM   17  C3  UNL     1      21.431  -1.547  54.450  1.00  0.00     0.187 C 
BRANCH  17  18
HETATM   18  O1  UNL     1      22.472  -2.027  55.216  1.00  0.00    -0.390 OA
BRANCH  18  19
HETATM   19  C2  UNL     1      23.330  -1.083  55.711  1.00  0.00     0.163 C 
HETATM   20  C1  UNL     1      24.767  -1.268  55.317  1.00  0.00     0.033 C 
ENDBRANCH  18  19
ENDBRANCH  17  18
ENDBRANCH   1  17
BRANCH  12  21
HETATM   21  C15 UNL     1      23.467   0.946  52.361  1.00  0.00     0.053 C 
HETATM   22  C16 UNL     1      24.617   1.570  53.084  1.00  0.00     0.011 C 
ENDBRANCH  12  21
BRANCH  10  23
HETATM   23  O2  UNL     1      20.845   4.455  51.015  1.00  0.00    -0.372 OA
BRANCH  23  24
HETATM   24  C11 UNL     1      21.878   5.345  51.121  1.00  0.00     0.237 C 
BRANCH  24  25
HETATM   25  C12 UNL     1      21.394   6.620  50.470  1.00  0.00     0.257 C 
HETATM   26  O3  UNL     1      21.544   7.777  50.817  1.00  0.00    -0.305 OA
ENDBRANCH  24  25
ENDBRANCH  23  24
ENDBRANCH  10  23
TORSDOF 7
ENDMDL
MODEL 6
REMARK VINA RESULT:      -5.7      7.544      9.274
REMARK  7 active torsions:
REMARK  status: ('A' for Active; 'I' for Inactive)
REMARK    1  A    between atoms: C2_2  and  O1_3 
REMARK    2  A    between atoms: O1_3  and  C3_4 
REMARK    3  A    between atoms: C3_4  and  C4_5 
REMARK    4  A    between atoms: C10_14  and  O2_15 
REMARK    5  A    between atoms: O2_15  and  C11_16 
REMARK    6  A    between atoms: C11_16  and  C12_17 
REMARK    7  A    between atoms: C14_20  and  C15_21 
ROOT
HETATM    1  C4  UNL     1      32.508   6.632  44.681  1.00  0.00     0.154 C 
HETATM    2  N1  UNL     1      32.003   6.967  45.879  1.00  0.00    -0.357 N 
HETATM    3  C5  UNL     1      31.800   8.360  46.439  1.00  0.00     0.104 C 
HETATM    4  C6  UNL     1      30.847   8.426  47.440  1.00  0.00     0.031 C 
HETATM    5  C7  UNL     1      30.977   8.698  48.923  1.00  0.00     0.138 C 
HETATM    6  N2  UNL     1      30.468   9.771  49.414  1.00  0.00    -0.224 NA
HETATM    7  C8  UNL     1      29.001   9.917  49.093  1.00  0.00     0.229 C 
HETATM    8  N3  UNL     1      28.730   8.875  48.410  1.00  0.00    -0.270 NA
HETATM    9  C9  UNL     1      29.361   8.104  47.430  1.00  0.00     0.181 C 
HETATM   10  C10 UNL     1      29.228   6.581  47.527  1.00  0.00     0.186 C 
HETATM   11  C13 UNL     1      30.646   5.979  47.666  1.00  0.00    -0.003 C 
HETATM   12  C14 UNL     1      31.722   5.769  46.771  1.00  0.00     0.020 C 
HETATM   13  C17 UNL     1      31.538   5.519  48.864  1.00  0.00     0.029 C 
HETATM   14  C18 UNL     1      31.722   6.346  50.009  1.00  0.00     0.090 C 
HETATM   15  N4  UNL     1      31.551   7.863  50.074  1.00  0.00    -0.350 N 
HETATM   16  H24 UNL     1      31.828   8.289  50.870  1.00  0.00     0.166 HD
ENDROOT
BRANCH   1  17
HETATM   17  C3  UNL     1      33.973   6.904  44.407  1.00  0.00     0.187 C 
BRANCH  17  18
HETATM   18  O1  UNL     1      34.580   6.033  43.527  1.00  0.00    -0.390 OA
BRANCH  18  19
HETATM   19  C2  UNL     1      34.384   4.702  43.778  1.00  0.00     0.163 C 
HETATM   20  C1  UNL     1      35.203   4.144  44.905  1.00  0.00     0.033 C 
ENDBRANCH  18  19
ENDBRANCH  17  18
ENDBRANCH   1  17
BRANCH  12  21
HETATM   21  C15 UNL     1      32.389   4.545  46.985  1.00  0.00     0.053 C 
HETATM   22  C16 UNL     1      32.039   3.205  46.422  1.00  0.00     0.011 C 
ENDBRANCH  12  21
BRANCH  10  23
HETATM   23  O2  UNL     1      28.488   6.311  48.616  1.00  0.00    -0.372 OA
BRANCH  23  24
HETATM   24  C11 UNL     1      27.660   5.222  48.590  1.00  0.00     0.237 C 
BRANCH  24  25
HETATM   25  C12 UNL     1      26.283   5.742  48.930  1.00  0.00     0.257 C 
HETATM   26  O3  UNL     1      25.248   5.133  49.135  1.00  0.00    -0.305 OA
ENDBRANCH  24  25
ENDBRANCH  23  24
ENDBRANCH  10  23
TORSDOF 7
ENDMDL
MODEL 7
REMARK VINA RESULT:      -5.6      6.115      9.185
REMARK  7 active torsions:
REMARK  status: ('A' for Active; 'I' for Inactive)
REMARK    1  A    between atoms: C2_2  and  O1_3 
REMARK    2  A    between atoms: O1_3  and  C3_4 
REMARK    3  A    between atoms: C3_4  and  C4_5 
REMARK    4  A    between atoms: C10_14  and  O2_15 
REMARK    5  A    between atoms: O2_15  and  C11_16 
REMARK    6  A    between atoms: C11_16  and  C12_17 
REMARK    7  A    between atoms: C14_20  and  C15_21 
ROOT
HETATM    1  C4  UNL     1      26.273   8.219  50.387  1.00  0.00     0.154 C 
HETATM    2  N1  UNL     1      27.212   8.624  49.517  1.00  0.00    -0.357 N 
HETATM    3  C5  UNL     1      27.612  10.047  49.186  1.00  0.00     0.104 C 
HETATM    4  C6  UNL     1      28.886  10.160  48.655  1.00  0.00     0.031 C 
HETATM    5  C7  UNL     1      29.355  10.537  47.267  1.00  0.00     0.138 C 
HETATM    6  N2  UNL     1      30.011  11.629  47.098  1.00  0.00    -0.224 NA
HETATM    7  C8  UNL     1      31.228  11.718  47.986  1.00  0.00     0.229 C 
HETATM    8  N3  UNL     1      31.211  10.626  48.644  1.00  0.00    -0.270 NA
HETATM    9  C9  UNL     1      30.246   9.804  49.233  1.00  0.00     0.181 C 
HETATM   10  C10 UNL     1      30.417   8.288  49.087  1.00  0.00     0.186 C 
HETATM   11  C13 UNL     1      29.175   7.731  48.351  1.00  0.00    -0.003 C 
HETATM   12  C14 UNL     1      27.834   7.484  48.726  1.00  0.00     0.020 C 
HETATM   13  C17 UNL     1      28.838   7.375  46.867  1.00  0.00     0.029 C 
HETATM   14  C18 UNL     1      29.121   8.283  45.807  1.00  0.00     0.090 C 
HETATM   15  N4  UNL     1      29.293   9.796  45.925  1.00  0.00    -0.350 N 
HETATM   16  H24 UNL     1      29.354  10.283  45.119  1.00  0.00     0.166 HD
ENDROOT
BRANCH   1  17
HETATM   17  C3  UNL     1      24.819   8.504  50.074  1.00  0.00     0.187 C 
BRANCH  17  18
HETATM   18  O1  UNL     1      23.904   7.840  50.864  1.00  0.00    -0.390 OA
BRANCH  18  19
HETATM   19  C2  UNL     1      24.122   6.499  51.026  1.00  0.00     0.163 C 
HETATM   20  C1  UNL     1      23.586   5.635  49.922  1.00  0.00     0.033 C 
ENDBRANCH  18  19
ENDBRANCH  17  18
ENDBRANCH   1  17
BRANCH  12  21
HETATM   21  C15 UNL     1      27.315   6.293  48.176  1.00  0.00     0.053 C 
HETATM   22  C16 UNL     1      27.135   4.976  48.859  1.00  0.00     0.011 C 
ENDBRANCH  12  21
BRANCH  10  23
HETATM   23  O2  UNL     1      31.531   8.077  48.366  1.00  0.00    -0.372 OA
BRANCH  23  24
HETATM   24  C11 UNL     1      32.578   7.423  48.956  1.00  0.00     0.237 C 
BRANCH  24  25
HETATM   25  C12 UNL     1      32.005   6.138  49.506  1.00  0.00     0.257 C 
HETATM   26  O3  UNL     1      31.685   5.117  48.927  1.00  0.00    -0.305 OA
ENDBRANCH  24  25
ENDBRANCH  23  24
ENDBRANCH  10  23
TORSDOF 7
ENDMDL
MODEL 8
REMARK VINA RESULT:      -5.5      8.196     10.425
REMARK  7 active torsions:
REMARK  status: ('A' for Active; 'I' for Inactive)
REMARK    1  A    between atoms: C2_2  and  O1_3 
REMARK    2  A    between atoms: O1_3  and  C3_4 
REMARK    3  A    between atoms: C3_4  and  C4_5 
REMARK    4  A    between atoms: C10_14  and  O2_15 
REMARK    5  A    between atoms: O2_15  and  C11_16 
REMARK    6  A    between atoms: C11_16  and  C12_17 
REMARK    7  A    between atoms: C14_20  and  C15_21 
ROOT
HETATM    1  C4  UNL     1      33.907   7.575  48.771  1.00  0.00     0.154 C 
HETATM    2  N1  UNL     1      32.628   7.828  48.450  1.00  0.00    -0.357 N 
HETATM    3  C5  UNL     1      31.384   7.250  49.091  1.00  0.00     0.104 C 
HETATM    4  C6  UNL     1      30.251   8.024  48.909  1.00  0.00     0.031 C 
HETATM    5  C7  UNL     1      28.997   7.779  48.099  1.00  0.00     0.138 C 
HETATM    6  N2  UNL     1      27.873   7.631  48.705  1.00  0.00    -0.224 NA
HETATM    7  C8  UNL     1      27.554   8.783  49.624  1.00  0.00     0.229 C 
HETATM    8  N3  UNL     1      28.548   9.569  49.491  1.00  0.00    -0.270 NA
HETATM    9  C9  UNL     1      29.932   9.448  49.337  1.00  0.00     0.181 C 
HETATM   10  C10 UNL     1      30.623  10.384  48.340  1.00  0.00     0.186 C 
HETATM   11  C13 UNL     1      31.310   9.517  47.259  1.00  0.00    -0.003 C 
HETATM   12  C14 UNL     1      32.478   8.719  47.228  1.00  0.00     0.020 C 
HETATM   13  C17 UNL     1      30.922   9.024  45.827  1.00  0.00     0.029 C 
HETATM   14  C18 UNL     1      29.653   8.432  45.567  1.00  0.00     0.090 C 
HETATM   15  N4  UNL     1      28.738   7.756  46.587  1.00  0.00    -0.350 N 
HETATM   16  H24 UNL     1      27.986   7.299  46.247  1.00  0.00     0.166 HD
ENDROOT
BRANCH   1  17
HETATM   17  C3  UNL     1      34.467   6.194  48.498  1.00  0.00     0.187 C 
BRANCH  17  18
HETATM   18  O1  UNL     1      34.597   5.861  47.167  1.00  0.00    -0.390 OA
BRANCH  18  19
HETATM   19  C2  UNL     1      33.898   4.758  46.758  1.00  0.00     0.163 C 
HETATM   20  C1  UNL     1      32.545   5.048  46.175  1.00  0.00     0.033 C 
ENDBRANCH  18  19
ENDBRANCH  17  18
ENDBRANCH   1  17
BRANCH  12  21
HETATM   21  C15 UNL     1      33.187   8.822  46.012  1.00  0.00     0.053 C 
HETATM   22  C16 UNL     1      34.535   9.427  45.792  1.00  0.00     0.011 C 
ENDBRANCH  12  21
BRANCH  10  23
HETATM   23  O2  UNL     1      29.672  11.161  47.793  1.00  0.00    -0.372 OA
BRANCH  23  24
HETATM   24  C11 UNL     1      29.937  12.491  47.615  1.00  0.00     0.237 C 
BRANCH  24  25
HETATM   25  C12 UNL     1      28.852  13.232  48.360  1.00  0.00     0.257 C 
HETATM   26  O3  UNL     1      28.273  12.938  49.390  1.00  0.00    -0.305 OA
ENDBRANCH  24  25
ENDBRANCH  23  24
ENDBRANCH  10  23
TORSDOF 7
ENDMDL
MODEL 9
REMARK VINA RESULT:      -5.4      2.925      6.572
REMARK  7 active torsions:
REMARK  status: ('A' for Active; 'I' for Inactive)
REMARK    1  A    between atoms: C2_2  and  O1_3 
REMARK    2  A    between atoms: O1_3  and  C3_4 
REMARK    3  A    between atoms: C3_4  and  C4_5 
REMARK    4  A    between atoms: C10_14  and  O2_15 
REMARK    5  A    between atoms: O2_15  and  C11_16 
REMARK    6  A    between atoms: C11_16  and  C12_17 
REMARK    7  A    between atoms: C14_20  and  C15_21 
ROOT
HETATM    1  C4  UNL     1      22.683   2.382  47.403  1.00  0.00     0.154 C 
HETATM    2  N1  UNL     1      22.254   2.333  48.674  1.00  0.00    -0.357 N 
HETATM    3  C5  UNL     1      20.966   1.728  49.192  1.00  0.00     0.104 C 
HETATM    4  C6  UNL     1      21.008   1.388  50.533  1.00  0.00     0.031 C 
HETATM    5  C7  UNL     1      20.294   1.975  51.731  1.00  0.00     0.138 C 
HETATM    6  N2  UNL     1      19.428   1.264  52.360  1.00  0.00    -0.224 NA
HETATM    7  C8  UNL     1      19.986  -0.060  52.817  1.00  0.00     0.229 C 
HETATM    8  N3  UNL     1      21.196  -0.041  52.416  1.00  0.00    -0.270 NA
HETATM    9  C9  UNL     1      21.891   0.409  51.290  1.00  0.00     0.181 C 
HETATM   10  C10 UNL     1      23.240   1.100  51.515  1.00  0.00     0.186 C 
HETATM   11  C13 UNL     1      23.150   2.536  50.947  1.00  0.00    -0.003 C 
HETATM   12  C14 UNL     1      23.153   3.084  49.643  1.00  0.00     0.020 C 
HETATM   13  C17 UNL     1      22.846   3.945  51.551  1.00  0.00     0.029 C 
HETATM   14  C18 UNL     1      21.726   4.158  52.405  1.00  0.00     0.090 C 
HETATM   15  N4  UNL     1      20.458   3.307  52.474  1.00  0.00    -0.350 N 
HETATM   16  H24 UNL     1      19.749   3.641  52.999  1.00  0.00     0.166 HD
ENDROOT
BRANCH   1  17
HETATM   17  C3  UNL     1      21.933   3.250  46.413  1.00  0.00     0.187 C 
BRANCH  17  18
HETATM   18  O1  UNL     1      22.152   4.606  46.533  1.00  0.00    -0.390 OA
BRANCH  18  19
HETATM   19  C2  UNL     1      21.038   5.370  46.748  1.00  0.00     0.163 C 
HETATM   20  C1  UNL     1      20.617   5.483  48.185  1.00  0.00     0.033 C 
ENDBRANCH  18  19
ENDBRANCH  17  18
ENDBRANCH   1  17
BRANCH  12  21
HETATM   21  C15 UNL     1      23.886   4.286  49.550  1.00  0.00     0.053 C 
HETATM   22  C16 UNL     1      25.331   4.448  49.202  1.00  0.00     0.011 C 
ENDBRANCH  12  21
BRANCH  10  23
HETATM   23  O2  UNL     1      23.463   1.125  52.840  1.00  0.00    -0.372 OA
BRANCH  23  24
HETATM   24  C11 UNL     1      24.748   0.992  53.290  1.00  0.00     0.237 C 
BRANCH  24  25
HETATM   25  C12 UNL     1      24.911  -0.466  53.650  1.00  0.00     0.257 C 
HETATM   26  O3  UNL     1      25.509  -0.978  54.579  1.00  0.00    -0.305 OA
ENDBRANCH  24  25
ENDBRANCH  23  24
ENDBRANCH  10  23
TORSDOF 7
ENDMDL
