MODEL 1
REMARK VINA RESULT:      -8.2      0.000      0.000
REMARK  8 active torsions:
REMARK  status: ('A' for Active; 'I' for Inactive)
REMARK    1  A    between atoms: O1_2  and  C2_3 
REMARK    2  A    between atoms: C8_11  and  N3_12 
REMARK    3  A    between atoms: N3_12  and  C9_13 
REMARK    4  A    between atoms: C9_13  and  C10_14 
REMARK    5  A    between atoms: C14_20  and  C15_21 
REMARK    6  A    between atoms: C15_21  and  C16_23 
REMARK    7  A    between atoms: C17_24  and  C18_25 
REMARK    8  A    between atoms: C18_25  and  N4_26 
ROOT
HETATM    1  C2  UNL     1      22.468  -0.117  53.344  1.00  0.00     0.084 A 
HETATM    2  C3  UNL     1      21.397   0.691  53.050  1.00  0.00     0.070 A 
HETATM    3  C4  UNL     1      21.671   1.956  52.578  1.00  0.00     0.071 A 
HETATM    4  N1  UNL     1      20.574   2.706  52.305  1.00  0.00    -0.259 NA
HETATM    5  C5  UNL     1      20.723   3.945  51.845  1.00  0.00     0.142 A 
HETATM    6  C6  UNL     1      21.999   4.464  51.646  1.00  0.00     0.089 A 
HETATM    7  C7  UNL     1      22.134   5.784  51.154  1.00  0.00     0.103 C 
HETATM    8  N2  UNL     1      22.263   6.866  50.753  1.00  0.00    -0.191 NA
HETATM    9  C8  UNL     1      23.122   3.699  51.924  1.00  0.00     0.063 A 
HETATM   10  C12 UNL     1      22.954   2.421  52.399  1.00  0.00     0.022 A 
HETATM   11  C13 UNL     1      23.981   1.562  52.713  1.00  0.00     0.034 A 
HETATM   12  C14 UNL     1      23.777   0.271  53.193  1.00  0.00     0.048 A 
ENDROOT
BRANCH   9  13
HETATM   13  N3  UNL     1      24.443   4.188  51.736  1.00  0.00    -0.384 N 
HETATM   14  H6  UNL     1      24.723   4.701  52.624  1.00  0.00     0.160 HD
BRANCH  13  15
HETATM   15  C9  UNL     1      25.230   3.995  50.522  1.00  0.00     0.151 C 
BRANCH  15  16
HETATM   16  C10 UNL     1      25.634   5.273  49.889  1.00  0.00     0.047 C 
HETATM   17  C11 UNL     1      26.743   5.297  49.158  1.00  0.00     0.178 A 
HETATM   18  F1  UNL     1      27.385   4.083  49.090  1.00  0.00    -0.257 F 
HETATM   19 CL1  UNL     1      28.154   5.573  48.158  1.00  0.00     0.017 Cl
ENDBRANCH  15  16
ENDBRANCH  13  15
ENDBRANCH   9  13
BRANCH  12  20
HETATM   20  C15 UNL     1      24.996  -0.452  53.453  1.00  0.00     0.184 C 
HETATM   21  O2  UNL     1      25.316  -0.953  54.554  1.00  0.00    -0.287 OA
BRANCH  20  22
HETATM   22  C16 UNL     1      26.095  -0.766  52.557  1.00  0.00     0.053 C 
HETATM   23  C17 UNL     1      27.214  -0.072  52.489  1.00  0.00     0.007 C 
BRANCH  23  24
HETATM   24  C18 UNL     1      27.986   1.076  53.003  1.00  0.00     0.299 C 
BRANCH  24  25
HETATM   25  N4  UNL     1      29.037   0.719  53.929  1.00  0.00     0.083 N 
HETATM   26  C19 UNL     1      28.508   0.175  55.153  1.00  0.00     0.309 C 
HETATM   27  C20 UNL     1      29.998  -0.181  53.366  1.00  0.00     0.309 C 
ENDBRANCH  24  25
ENDBRANCH  23  24
ENDBRANCH  20  22
ENDBRANCH  12  20
BRANCH   1  28
HETATM   28  O1  UNL     1      22.294  -1.404  53.823  1.00  0.00    -0.355 OA
HETATM   29  C1  UNL     1      21.064  -1.730  54.436  1.00  0.00     0.210 C 
ENDBRANCH   1  28
TORSDOF 8
ENDMDL
MODEL 2
REMARK VINA RESULT:      -8.0      3.407      6.443
REMARK  8 active torsions:
REMARK  status: ('A' for Active; 'I' for Inactive)
REMARK    1  A    between atoms: O1_2  and  C2_3 
REMARK    2  A    between atoms: C8_11  and  N3_12 
REMARK    3  A    between atoms: N3_12  and  C9_13 
REMARK    4  A    between atoms: C9_13  and  C10_14 
REMARK    5  A    between atoms: C14_20  and  C15_21 
REMARK    6  A    between atoms: C15_21  and  C16_23 
REMARK    7  A    between atoms: C17_24  and  C18_25 
REMARK    8  A    between atoms: C18_25  and  N4_26 
ROOT
HETATM    1  C2  UNL     1      23.341   2.777  49.522  1.00  0.00     0.084 A 
HETATM    2  C3  UNL     1      22.310   1.974  49.947  1.00  0.00     0.070 A 
HETATM    3  C4  UNL     1      22.500   1.267  51.114  1.00  0.00     0.071 A 
HETATM    4  N1  UNL     1      21.449   0.494  51.482  1.00  0.00    -0.259 NA
HETATM    5  C5  UNL     1      21.523  -0.233  52.593  1.00  0.00     0.142 A 
HETATM    6  C6  UNL     1      22.677  -0.197  53.370  1.00  0.00     0.089 A 
HETATM    7  C7  UNL     1      22.736  -0.978  54.549  1.00  0.00     0.103 C 
HETATM    8  N2  UNL     1      22.802  -1.613  55.519  1.00  0.00    -0.191 NA
HETATM    9  C8  UNL     1      23.754   0.593  52.996  1.00  0.00     0.063 A 
HETATM   10  C12 UNL     1      23.663   1.339  51.846  1.00  0.00     0.022 A 
HETATM   11  C13 UNL     1      24.656   2.160  51.365  1.00  0.00     0.034 A 
HETATM   12  C14 UNL     1      24.532   2.904  50.195  1.00  0.00     0.048 A 
ENDROOT
BRANCH   9  13
HETATM   13  N3  UNL     1      24.952   0.660  53.759  1.00  0.00    -0.384 N 
HETATM   14  H6  UNL     1      24.883   1.515  54.386  1.00  0.00     0.160 HD
BRANCH  13  15
HETATM   15  C9  UNL     1      26.049  -0.297  53.659  1.00  0.00     0.151 C 
BRANCH  15  16
HETATM   16  C10 UNL     1      27.271   0.153  54.368  1.00  0.00     0.047 C 
HETATM   17  C11 UNL     1      28.447  -0.321  53.970  1.00  0.00     0.178 A 
HETATM   18  F1  UNL     1      28.360  -1.197  52.914  1.00  0.00    -0.257 F 
HETATM   19 CL1  UNL     1      30.096  -0.803  53.629  1.00  0.00     0.017 Cl
ENDBRANCH  15  16
ENDBRANCH  13  15
ENDBRANCH   9  13
BRANCH  12  20
HETATM   20  C15 UNL     1      25.695   3.696  49.883  1.00  0.00     0.184 C 
HETATM   21  O2  UNL     1      26.868   3.264  49.832  1.00  0.00    -0.287 OA
BRANCH  20  22
HETATM   22  C16 UNL     1      25.794   5.110  49.567  1.00  0.00     0.053 C 
HETATM   23  C17 UNL     1      25.120   6.056  50.193  1.00  0.00     0.007 C 
BRANCH  23  24
HETATM   24  C18 UNL     1      24.144   6.379  51.252  1.00  0.00     0.299 C 
BRANCH  24  25
HETATM   25  N4  UNL     1      22.779   6.025  50.929  1.00  0.00     0.083 N 
HETATM   26  C19 UNL     1      22.190   5.190  51.942  1.00  0.00     0.309 C 
HETATM   27  C20 UNL     1      21.948   7.165  50.686  1.00  0.00     0.309 C 
ENDBRANCH  24  25
ENDBRANCH  23  24
ENDBRANCH  20  22
ENDBRANCH  12  20
BRANCH   1  28
HETATM   28  O1  UNL     1      23.244   3.526  48.363  1.00  0.00    -0.355 OA
HETATM   29  C1  UNL     1      21.984   4.056  48.010  1.00  0.00     0.210 C 
ENDBRANCH   1  28
TORSDOF 8
ENDMDL
MODEL 3
REMARK VINA RESULT:      -7.6      2.312      5.593
REMARK  8 active torsions:
REMARK  status: ('A' for Active; 'I' for Inactive)
REMARK    1  A    between atoms: O1_2  and  C2_3 
REMARK    2  A    between atoms: C8_11  and  N3_12 
REMARK    3  A    between atoms: N3_12  and  C9_13 
REMARK    4  A    between atoms: C9_13  and  C10_14 
REMARK    5  A    between atoms: C14_20  and  C15_21 
REMARK    6  A    between atoms: C15_21  and  C16_23 
REMARK    7  A    between atoms: C17_24  and  C18_25 
REMARK    8  A    between atoms: C18_25  and  N4_26 
ROOT
HETATM    1  C2  UNL     1      22.770  -0.586  53.280  1.00  0.00     0.084 A 
HETATM    2  C3  UNL     1      23.909  -0.901  53.982  1.00  0.00     0.070 A 
HETATM    3  C4  UNL     1      24.994  -0.066  53.832  1.00  0.00     0.071 A 
HETATM    4  N1  UNL     1      26.087  -0.428  54.549  1.00  0.00    -0.259 NA
HETATM    5  C5  UNL     1      27.193   0.307  54.479  1.00  0.00     0.142 A 
HETATM    6  C6  UNL     1      27.223   1.441  53.672  1.00  0.00     0.089 A 
HETATM    7  C7  UNL     1      28.410   2.209  53.613  1.00  0.00     0.103 C 
HETATM    8  N2  UNL     1      29.376   2.851  53.551  1.00  0.00    -0.191 NA
HETATM    9  C8  UNL     1      26.107   1.814  52.938  1.00  0.00     0.063 A 
HETATM   10  C12 UNL     1      24.971   1.045  53.020  1.00  0.00     0.022 A 
HETATM   11  C13 UNL     1      23.801   1.303  52.345  1.00  0.00     0.034 A 
HETATM   12  C14 UNL     1      22.666   0.503  52.450  1.00  0.00     0.048 A 
ENDROOT
BRANCH   9  13
HETATM   13  N3  UNL     1      26.093   2.963  52.101  1.00  0.00    -0.384 N 
HETATM   14  H6  UNL     1      25.727   3.774  52.680  1.00  0.00     0.160 HD
BRANCH  13  15
HETATM   15  C9  UNL     1      26.516   2.972  50.704  1.00  0.00     0.151 C 
BRANCH  15  16
HETATM   16  C10 UNL     1      25.423   3.348  49.776  1.00  0.00     0.047 C 
HETATM   17  C11 UNL     1      25.388   4.589  49.305  1.00  0.00     0.178 A 
HETATM   18  F1  UNL     1      26.414   5.382  49.765  1.00  0.00    -0.257 F 
HETATM   19 CL1  UNL     1      25.136   6.154  48.559  1.00  0.00     0.017 Cl
ENDBRANCH  15  16
ENDBRANCH  13  15
ENDBRANCH   9  13
BRANCH  12  20
HETATM   20  C15 UNL     1      21.555   0.964  51.656  1.00  0.00     0.184 C 
HETATM   21  O2  UNL     1      20.789   1.903  51.966  1.00  0.00    -0.287 OA
BRANCH  20  22
HETATM   22  C16 UNL     1      21.073   0.485  50.373  1.00  0.00     0.053 C 
HETATM   23  C17 UNL     1      21.440   0.989  49.211  1.00  0.00     0.007 C 
BRANCH  23  24
HETATM   24  C18 UNL     1      22.262   1.992  48.507  1.00  0.00     0.299 C 
BRANCH  24  25
HETATM   25  N4  UNL     1      21.538   3.178  48.106  1.00  0.00     0.083 N 
HETATM   26  C19 UNL     1      20.186   2.872  47.718  1.00  0.00     0.309 C 
HETATM   27  C20 UNL     1      21.542   4.202  49.107  1.00  0.00     0.309 C 
ENDBRANCH  24  25
ENDBRANCH  23  24
ENDBRANCH  20  22
ENDBRANCH  12  20
BRANCH   1  28
HETATM   28  O1  UNL     1      21.629  -1.364  53.366  1.00  0.00    -0.355 OA
HETATM   29  C1  UNL     1      20.808  -1.226  54.507  1.00  0.00     0.210 C 
ENDBRANCH   1  28
TORSDOF 8
ENDMDL
MODEL 4
REMARK VINA RESULT:      -7.6      2.721      5.566
REMARK  8 active torsions:
REMARK  status: ('A' for Active; 'I' for Inactive)
REMARK    1  A    between atoms: O1_2  and  C2_3 
REMARK    2  A    between atoms: C8_11  and  N3_12 
REMARK    3  A    between atoms: N3_12  and  C9_13 
REMARK    4  A    between atoms: C9_13  and  C10_14 
REMARK    5  A    between atoms: C14_20  and  C15_21 
REMARK    6  A    between atoms: C15_21  and  C16_23 
REMARK    7  A    between atoms: C17_24  and  C18_25 
REMARK    8  A    between atoms: C18_25  and  N4_26 
ROOT
HETATM    1  C2  UNL     1      26.187   0.365  53.570  1.00  0.00     0.084 A 
HETATM    2  C3  UNL     1      25.369  -0.417  54.347  1.00  0.00     0.070 A 
HETATM    3  C4  UNL     1      24.024  -0.415  54.049  1.00  0.00     0.071 A 
HETATM    4  N1  UNL     1      23.267  -1.206  54.850  1.00  0.00    -0.259 NA
HETATM    5  C5  UNL     1      21.954  -1.278  54.652  1.00  0.00     0.142 A 
HETATM    6  C6  UNL     1      21.365  -0.544  53.627  1.00  0.00     0.089 A 
HETATM    7  C7  UNL     1      19.966  -0.636  53.434  1.00  0.00     0.103 C 
HETATM    8  N2  UNL     1      18.819  -0.698  53.261  1.00  0.00    -0.191 NA
HETATM    9  C8  UNL     1      22.135   0.266  52.807  1.00  0.00     0.063 A 
HETATM   10  C12 UNL     1      23.491   0.331  53.023  1.00  0.00     0.022 A 
HETATM   11  C13 UNL     1      24.365   1.093  52.283  1.00  0.00     0.034 A 
HETATM   12  C14 UNL     1      25.735   1.138  52.528  1.00  0.00     0.048 A 
ENDROOT
BRANCH   9  13
HETATM   13  N3  UNL     1      21.576   1.034  51.749  1.00  0.00    -0.384 N 
HETATM   14  H6  UNL     1      21.349   1.995  52.138  1.00  0.00     0.160 HD
BRANCH  13  15
HETATM   15  C9  UNL     1      21.371   0.540  50.391  1.00  0.00     0.151 C 
BRANCH  15  16
HETATM   16  C10 UNL     1      20.738   1.545  49.503  1.00  0.00     0.047 C 
HETATM   17  C11 UNL     1      21.512   2.242  48.679  1.00  0.00     0.178 A 
HETATM   18  F1  UNL     1      22.846   1.918  48.768  1.00  0.00    -0.257 F 
HETATM   19 CL1  UNL     1      22.320   3.273  47.516  1.00  0.00     0.017 Cl
ENDBRANCH  15  16
ENDBRANCH  13  15
ENDBRANCH   9  13
BRANCH  12  20
HETATM   20  C15 UNL     1      26.459   2.001  51.628  1.00  0.00     0.184 C 
HETATM   21  O2  UNL     1      27.545   2.564  51.889  1.00  0.00    -0.287 OA
BRANCH  20  22
HETATM   22  C16 UNL     1      26.131   2.410  50.274  1.00  0.00     0.053 C 
HETATM   23  C17 UNL     1      25.476   3.514  49.974  1.00  0.00     0.007 C 
BRANCH  23  24
HETATM   24  C18 UNL     1      24.813   4.731  50.482  1.00  0.00     0.299 C 
BRANCH  24  25
HETATM   25  N4  UNL     1      23.495   4.504  51.033  1.00  0.00     0.083 N 
HETATM   26  C19 UNL     1      23.489   4.627  52.467  1.00  0.00     0.309 C 
HETATM   27  C20 UNL     1      22.495   5.353  50.462  1.00  0.00     0.309 C 
ENDBRANCH  24  25
ENDBRANCH  23  24
ENDBRANCH  20  22
ENDBRANCH  12  20
BRANCH   1  28
HETATM   28  O1  UNL     1      27.552   0.428  53.791  1.00  0.00    -0.355 OA
HETATM   29  C1  UNL     1      28.344  -0.677  53.408  1.00  0.00     0.210 C 
ENDBRANCH   1  28
TORSDOF 8
ENDMDL
MODEL 5
REMARK VINA RESULT:      -7.6      3.193      6.130
REMARK  8 active torsions:
REMARK  status: ('A' for Active; 'I' for Inactive)
REMARK    1  A    between atoms: O1_2  and  C2_3 
REMARK    2  A    between atoms: C8_11  and  N3_12 
REMARK    3  A    between atoms: N3_12  and  C9_13 
REMARK    4  A    between atoms: C9_13  and  C10_14 
REMARK    5  A    between atoms: C14_20  and  C15_21 
REMARK    6  A    between atoms: C15_21  and  C16_23 
REMARK    7  A    between atoms: C17_24  and  C18_25 
REMARK    8  A    between atoms: C18_25  and  N4_26 
ROOT
HETATM    1  C2  UNL     1      20.484  -0.310  53.317  1.00  0.00     0.084 A 
HETATM    2  C3  UNL     1      21.203  -0.851  54.354  1.00  0.00     0.070 A 
HETATM    3  C4  UNL     1      22.572  -0.709  54.315  1.00  0.00     0.071 A 
HETATM    4  N1  UNL     1      23.227  -1.264  55.365  1.00  0.00    -0.259 NA
HETATM    5  C5  UNL     1      24.553  -1.187  55.429  1.00  0.00     0.142 A 
HETATM    6  C6  UNL     1      25.260  -0.539  54.421  1.00  0.00     0.089 A 
HETATM    7  C7  UNL     1      26.671  -0.468  54.509  1.00  0.00     0.103 C 
HETATM    8  N2  UNL     1      27.829  -0.401  54.564  1.00  0.00    -0.191 NA
HETATM    9  C8  UNL     1      24.594   0.029  53.345  1.00  0.00     0.063 A 
HETATM   10  C12 UNL     1      23.224  -0.058  53.292  1.00  0.00     0.022 A 
HETATM   11  C13 UNL     1      22.445   0.460  52.284  1.00  0.00     0.034 A 
HETATM   12  C14 UNL     1      21.057   0.355  52.260  1.00  0.00     0.048 A 
ENDROOT
BRANCH   9  13
HETATM   13  N3  UNL     1      25.276   0.699  52.293  1.00  0.00    -0.384 N 
HETATM   14  H6  UNL     1      25.359   0.018  51.482  1.00  0.00     0.160 HD
BRANCH  13  15
HETATM   15  C9  UNL     1      25.754   2.076  52.366  1.00  0.00     0.151 C 
BRANCH  15  16
HETATM   16  C10 UNL     1      24.984   2.999  51.498  1.00  0.00     0.047 C 
HETATM   17  C11 UNL     1      24.032   3.744  52.050  1.00  0.00     0.178 A 
HETATM   18  F1  UNL     1      23.892   3.545  53.403  1.00  0.00    -0.257 F 
HETATM   19 CL1  UNL     1      22.740   4.818  52.545  1.00  0.00     0.017 Cl
ENDBRANCH  15  16
ENDBRANCH  13  15
ENDBRANCH   9  13
BRANCH  12  20
HETATM   20  C15 UNL     1      20.447   0.973  51.109  1.00  0.00     0.184 C 
HETATM   21  O2  UNL     1      19.655   1.941  51.148  1.00  0.00    -0.287 OA
BRANCH  20  22
HETATM   22  C16 UNL     1      20.589   0.651  49.701  1.00  0.00     0.053 C 
HETATM   23  C17 UNL     1      21.431   1.257  48.886  1.00  0.00     0.007 C 
BRANCH  23  24
HETATM   24  C18 UNL     1      22.472   2.292  48.735  1.00  0.00     0.299 C 
BRANCH  24  25
HETATM   25  N4  UNL     1      21.996   3.535  48.171  1.00  0.00     0.083 N 
HETATM   26  C19 UNL     1      21.032   3.312  47.125  1.00  0.00     0.309 C 
HETATM   27  C20 UNL     1      21.457   4.427  49.153  1.00  0.00     0.309 C 
ENDBRANCH  24  25
ENDBRANCH  23  24
ENDBRANCH  20  22
ENDBRANCH  12  20
BRANCH   1  28
HETATM   28  O1  UNL     1      19.104  -0.400  53.267  1.00  0.00    -0.355 OA
HETATM   29  C1  UNL     1      18.508  -1.666  53.458  1.00  0.00     0.210 C 
ENDBRANCH   1  28
TORSDOF 8
ENDMDL
MODEL 6
REMARK VINA RESULT:      -7.5      3.178      4.718
REMARK  8 active torsions:
REMARK  status: ('A' for Active; 'I' for Inactive)
REMARK    1  A    between atoms: O1_2  and  C2_3 
REMARK    2  A    between atoms: C8_11  and  N3_12 
REMARK    3  A    between atoms: N3_12  and  C9_13 
REMARK    4  A    between atoms: C9_13  and  C10_14 
REMARK    5  A    between atoms: C14_20  and  C15_21 
REMARK    6  A    between atoms: C15_21  and  C16_23 
REMARK    7  A    between atoms: C17_24  and  C18_25 
REMARK    8  A    between atoms: C18_25  and  N4_26 
ROOT
HETATM    1  C2  UNL     1      23.265  -0.339  53.923  1.00  0.00     0.084 A 
HETATM    2  C3  UNL     1      22.212  -1.163  54.238  1.00  0.00     0.070 A 
HETATM    3  C4  UNL     1      20.997  -0.887  53.652  1.00  0.00     0.071 A 
HETATM    4  N1  UNL     1      19.997  -1.734  54.001  1.00  0.00    -0.259 NA
HETATM    5  C5  UNL     1      18.780  -1.560  53.495  1.00  0.00     0.142 A 
HETATM    6  C6  UNL     1      18.539  -0.512  52.611  1.00  0.00     0.089 A 
HETATM    7  C7  UNL     1      17.236  -0.345  52.083  1.00  0.00     0.103 C 
HETATM    8  N2  UNL     1      16.173  -0.192  51.641  1.00  0.00    -0.191 NA
HETATM    9  C8  UNL     1      19.559   0.356  52.252  1.00  0.00     0.063 A 
HETATM   10  C12 UNL     1      20.811   0.164  52.783  1.00  0.00     0.022 A 
HETATM   11  C13 UNL     1      21.906   0.951  52.510  1.00  0.00     0.034 A 
HETATM   12  C14 UNL     1      23.163   0.730  53.066  1.00  0.00     0.048 A 
ENDROOT
BRANCH   9  13
HETATM   13  N3  UNL     1      19.358   1.439  51.354  1.00  0.00    -0.384 N 
HETATM   14  H6  UNL     1      19.328   2.331  51.931  1.00  0.00     0.160 HD
BRANCH  13  15
HETATM   15  C9  UNL     1      19.223   1.298  49.908  1.00  0.00     0.151 C 
BRANCH  15  16
HETATM   16  C10 UNL     1      19.942   2.355  49.157  1.00  0.00     0.047 C 
HETATM   17  C11 UNL     1      21.072   2.036  48.535  1.00  0.00     0.178 A 
HETATM   18  F1  UNL     1      21.428   0.716  48.682  1.00  0.00    -0.257 F 
HETATM   19 CL1  UNL     1      22.568   1.857  47.642  1.00  0.00     0.017 Cl
ENDBRANCH  15  16
ENDBRANCH  13  15
ENDBRANCH   9  13
BRANCH  12  20
HETATM   20  C15 UNL     1      24.163   1.676  52.637  1.00  0.00     0.184 C 
HETATM   21  O2  UNL     1      24.365   2.795  53.158  1.00  0.00    -0.287 OA
BRANCH  20  22
HETATM   22  C16 UNL     1      25.131   1.574  51.560  1.00  0.00     0.053 C 
HETATM   23  C17 UNL     1      26.329   1.040  51.691  1.00  0.00     0.007 C 
BRANCH  23  24
HETATM   24  C18 UNL     1      27.295   0.385  52.595  1.00  0.00     0.299 C 
BRANCH  24  25
HETATM   25  N4  UNL     1      27.558   1.117  53.814  1.00  0.00     0.083 N 
HETATM   26  C19 UNL     1      28.181   0.287  54.811  1.00  0.00     0.309 C 
HETATM   27  C20 UNL     1      28.338   2.298  53.600  1.00  0.00     0.309 C 
ENDBRANCH  24  25
ENDBRANCH  23  24
ENDBRANCH  20  22
ENDBRANCH  12  20
BRANCH   1  28
HETATM   28  O1  UNL     1      24.525  -0.536  54.460  1.00  0.00    -0.355 OA
HETATM   29  C1  UNL     1      24.628  -1.206  55.699  1.00  0.00     0.210 C 
ENDBRANCH   1  28
TORSDOF 8
ENDMDL
MODEL 7
REMARK VINA RESULT:      -7.5      2.952      4.043
REMARK  8 active torsions:
REMARK  status: ('A' for Active; 'I' for Inactive)
REMARK    1  A    between atoms: O1_2  and  C2_3 
REMARK    2  A    between atoms: C8_11  and  N3_12 
REMARK    3  A    between atoms: N3_12  and  C9_13 
REMARK    4  A    between atoms: C9_13  and  C10_14 
REMARK    5  A    between atoms: C14_20  and  C15_21 
REMARK    6  A    between atoms: C15_21  and  C16_23 
REMARK    7  A    between atoms: C17_24  and  C18_25 
REMARK    8  A    between atoms: C18_25  and  N4_26 
ROOT
HETATM    1  C2  UNL     1      23.133  -0.466  53.921  1.00  0.00     0.084 A 
HETATM    2  C3  UNL     1      21.840  -0.879  54.128  1.00  0.00     0.070 A 
HETATM    3  C4  UNL     1      20.893  -0.468  53.216  1.00  0.00     0.071 A 
HETATM    4  N1  UNL     1      19.635  -0.908  53.472  1.00  0.00    -0.259 NA
HETATM    5  C5  UNL     1      18.641  -0.570  52.656  1.00  0.00     0.142 A 
HETATM    6  C6  UNL     1      18.895   0.231  51.546  1.00  0.00     0.089 A 
HETATM    7  C7  UNL     1      17.823   0.578  50.691  1.00  0.00     0.103 C 
HETATM    8  N2  UNL     1      16.955   0.874  49.978  1.00  0.00    -0.191 NA
HETATM    9  C8  UNL     1      20.180   0.682  51.282  1.00  0.00     0.063 A 
HETATM   10  C12 UNL     1      21.197   0.325  52.133  1.00  0.00     0.022 A 
HETATM   11  C13 UNL     1      22.511   0.704  51.985  1.00  0.00     0.034 A 
HETATM   12  C14 UNL     1      23.520   0.325  52.867  1.00  0.00     0.048 A 
ENDROOT
BRANCH   9  13
HETATM   13  N3  UNL     1      20.485   1.501  50.161  1.00  0.00    -0.384 N 
HETATM   14  H6  UNL     1      20.864   0.868  49.397  1.00  0.00     0.160 HD
BRANCH  13  15
HETATM   15  C9  UNL     1      20.294   2.947  50.120  1.00  0.00     0.151 C 
BRANCH  15  16
HETATM   16  C10 UNL     1      21.574   3.695  50.087  1.00  0.00     0.047 C 
HETATM   17  C11 UNL     1      22.083   4.134  51.233  1.00  0.00     0.178 A 
HETATM   18  F1  UNL     1      21.318   3.819  52.332  1.00  0.00    -0.257 F 
HETATM   19 CL1  UNL     1      22.941   4.805  52.605  1.00  0.00     0.017 Cl
ENDBRANCH  15  16
ENDBRANCH  13  15
ENDBRANCH   9  13
BRANCH  12  20
HETATM   20  C15 UNL     1      24.821   0.835  52.516  1.00  0.00     0.184 C 
HETATM   21  O2  UNL     1      25.134   2.046  52.476  1.00  0.00    -0.287 OA
BRANCH  20  22
HETATM   22  C16 UNL     1      26.027   0.117  52.144  1.00  0.00     0.053 C 
HETATM   23  C17 UNL     1      27.040  -0.100  52.960  1.00  0.00     0.007 C 
BRANCH  23  24
HETATM   24  C18 UNL     1      27.595   0.092  54.315  1.00  0.00     0.299 C 
BRANCH  24  25
HETATM   25  N4  UNL     1      28.894   0.727  54.339  1.00  0.00     0.083 N 
HETATM   26  C19 UNL     1      29.873  -0.033  53.606  1.00  0.00     0.309 C 
HETATM   27  C20 UNL     1      28.866   2.078  53.869  1.00  0.00     0.309 C 
ENDBRANCH  24  25
ENDBRANCH  23  24
ENDBRANCH  20  22
ENDBRANCH  12  20
BRANCH   1  28
HETATM   28  O1  UNL     1      24.155  -0.828  54.782  1.00  0.00    -0.355 OA
HETATM   29  C1  UNL     1      23.824  -1.554  55.947  1.00  0.00     0.210 C 
ENDBRANCH   1  28
TORSDOF 8
ENDMDL
MODEL 8
REMARK VINA RESULT:      -7.4      4.000      7.159
REMARK  8 active torsions:
REMARK  status: ('A' for Active; 'I' for Inactive)
REMARK    1  A    between atoms: O1_2  and  C2_3 
REMARK    2  A    between atoms: C8_11  and  N3_12 
REMARK    3  A    between atoms: N3_12  and  C9_13 
REMARK    4  A    between atoms: C9_13  and  C10_14 
REMARK    5  A    between atoms: C14_20  and  C15_21 
REMARK    6  A    between atoms: C15_21  and  C16_23 
REMARK    7  A    between atoms: C17_24  and  C18_25 
REMARK    8  A    between atoms: C18_25  and  N4_26 
ROOT
HETATM    1  C2  UNL     1      27.045   1.712  52.775  1.00  0.00     0.084 A 
HETATM    2  C3  UNL     1      26.822   0.852  53.822  1.00  0.00     0.070 A 
HETATM    3  C4  UNL     1      25.569   0.288  53.920  1.00  0.00     0.071 A 
HETATM    4  N1  UNL     1      25.410  -0.551  54.973  1.00  0.00    -0.259 NA
HETATM    5  C5  UNL     1      24.238  -1.151  55.164  1.00  0.00     0.142 A 
HETATM    6  C6  UNL     1      23.185  -0.916  54.285  1.00  0.00     0.089 A 
HETATM    7  C7  UNL     1      21.948  -1.565  54.507  1.00  0.00     0.103 C 
HETATM    8  N2  UNL     1      20.925  -2.089  54.674  1.00  0.00    -0.191 NA
HETATM    9  C8  UNL     1      23.346  -0.058  53.207  1.00  0.00     0.063 A 
HETATM   10  C12 UNL     1      24.561   0.555  53.022  1.00  0.00     0.022 A 
HETATM   11  C13 UNL     1      24.850   1.425  51.997  1.00  0.00     0.034 A 
HETATM   12  C14 UNL     1      26.094   2.031  51.837  1.00  0.00     0.048 A 
ENDROOT
BRANCH   9  13
HETATM   13  N3  UNL     1      22.298   0.212  52.285  1.00  0.00    -0.384 N 
HETATM   14  H6  UNL     1      22.406  -0.464  51.473  1.00  0.00     0.160 HD
BRANCH  13  15
HETATM   15  C9  UNL     1      21.283   1.245  52.468  1.00  0.00     0.151 C 
BRANCH  15  16
HETATM   16  C10 UNL     1      20.357   1.351  51.316  1.00  0.00     0.047 C 
HETATM   17  C11 UNL     1      19.276   0.578  51.296  1.00  0.00     0.178 A 
HETATM   18  F1  UNL     1      19.166  -0.244  52.393  1.00  0.00    -0.257 F 
HETATM   19 CL1  UNL     1      17.799  -0.330  51.050  1.00  0.00     0.017 Cl
ENDBRANCH  15  16
ENDBRANCH  13  15
ENDBRANCH   9  13
BRANCH  12  20
HETATM   20  C15 UNL     1      26.173   2.903  50.692  1.00  0.00     0.184 C 
HETATM   21  O2  UNL     1      26.966   2.765  49.734  1.00  0.00    -0.287 OA
BRANCH  20  22
HETATM   22  C16 UNL     1      25.397   4.090  50.378  1.00  0.00     0.053 C 
HETATM   23  C17 UNL     1      24.298   4.083  49.649  1.00  0.00     0.007 C 
BRANCH  23  24
HETATM   24  C18 UNL     1      23.336   3.273  48.876  1.00  0.00     0.299 C 
BRANCH  24  25
HETATM   25  N4  UNL     1      22.366   4.050  48.136  1.00  0.00     0.083 N 
HETATM   26  C19 UNL     1      21.105   4.125  48.827  1.00  0.00     0.309 C 
HETATM   27  C20 UNL     1      22.829   5.365  47.814  1.00  0.00     0.309 C 
ENDBRANCH  24  25
ENDBRANCH  23  24
ENDBRANCH  20  22
ENDBRANCH  12  20
BRANCH   1  28
HETATM   28  O1  UNL     1      28.271   2.328  52.592  1.00  0.00    -0.355 OA
HETATM   29  C1  UNL     1      29.111   2.496  53.715  1.00  0.00     0.210 C 
ENDBRANCH   1  28
TORSDOF 8
ENDMDL
MODEL 9
REMARK VINA RESULT:      -7.4      2.921      6.023
REMARK  8 active torsions:
REMARK  status: ('A' for Active; 'I' for Inactive)
REMARK    1  A    between atoms: O1_2  and  C2_3 
REMARK    2  A    between atoms: C8_11  and  N3_12 
REMARK    3  A    between atoms: N3_12  and  C9_13 
REMARK    4  A    between atoms: C9_13  and  C10_14 
REMARK    5  A    between atoms: C14_20  and  C15_21 
REMARK    6  A    between atoms: C15_21  and  C16_23 
REMARK    7  A    between atoms: C17_24  and  C18_25 
REMARK    8  A    between atoms: C18_25  and  N4_26 
ROOT
HETATM    1  C2  UNL     1      24.804   0.269  53.108  1.00  0.00     0.084 A 
HETATM    2  C3  UNL     1      24.075  -0.665  53.803  1.00  0.00     0.070 A 
HETATM    3  C4  UNL     1      22.708  -0.647  53.642  1.00  0.00     0.071 A 
HETATM    4  N1  UNL     1      22.043  -1.591  54.352  1.00  0.00    -0.259 NA
HETATM    5  C5  UNL     1      20.718  -1.664  54.272  1.00  0.00     0.142 A 
HETATM    6  C6  UNL     1      20.021  -0.773  53.460  1.00  0.00     0.089 A 
HETATM    7  C7  UNL     1      18.611  -0.868  53.388  1.00  0.00     0.103 C 
HETATM    8  N2  UNL     1      17.453  -0.931  53.318  1.00  0.00    -0.191 NA
HETATM    9  C8  UNL     1      20.698   0.194  52.732  1.00  0.00     0.063 A 
HETATM   10  C12 UNL     1      22.067   0.257  52.825  1.00  0.00     0.022 A 
HETATM   11  C13 UNL     1      22.855   1.166  52.158  1.00  0.00     0.034 A 
HETATM   12  C14 UNL     1      24.242   1.204  52.274  1.00  0.00     0.048 A 
ENDROOT
BRANCH   9  13
HETATM   13  N3  UNL     1      20.028   1.124  51.891  1.00  0.00    -0.384 N 
HETATM   14  H6  UNL     1      19.950   2.039  52.426  1.00  0.00     0.160 HD
BRANCH  13  15
HETATM   15  C9  UNL     1      19.552   0.825  50.545  1.00  0.00     0.151 C 
BRANCH  15  16
HETATM   16  C10 UNL     1      19.905   1.879  49.563  1.00  0.00     0.047 C 
HETATM   17  C11 UNL     1      20.977   1.702  48.799  1.00  0.00     0.178 A 
HETATM   18  F1  UNL     1      21.633   0.518  49.035  1.00  0.00    -0.257 F 
HETATM   19 CL1  UNL     1      22.332   1.693  47.689  1.00  0.00     0.017 Cl
ENDBRANCH  15  16
ENDBRANCH  13  15
ENDBRANCH   9  13
BRANCH  12  20
HETATM   20  C15 UNL     1      24.864   2.237  51.483  1.00  0.00     0.184 C 
HETATM   21  O2  UNL     1      25.927   2.827  51.776  1.00  0.00    -0.287 OA
BRANCH  20  22
HETATM   22  C16 UNL     1      24.440   2.816  50.221  1.00  0.00     0.053 C 
HETATM   23  C17 UNL     1      24.012   4.056  50.084  1.00  0.00     0.007 C 
BRANCH  23  24
HETATM   24  C18 UNL     1      23.720   5.341  50.750  1.00  0.00     0.299 C 
BRANCH  24  25
HETATM   25  N4  UNL     1      22.326   5.531  51.087  1.00  0.00     0.083 N 
HETATM   26  C19 UNL     1      21.475   5.388  49.935  1.00  0.00     0.309 C 
HETATM   27  C20 UNL     1      21.881   4.668  52.138  1.00  0.00     0.309 C 
ENDBRANCH  24  25
ENDBRANCH  23  24
ENDBRANCH  20  22
ENDBRANCH  12  20
BRANCH   1  28
HETATM   28  O1  UNL     1      26.183   0.329  53.205  1.00  0.00    -0.355 OA
HETATM   29  C1  UNL     1      26.943  -0.707  52.619  1.00  0.00     0.210 C 
ENDBRANCH   1  28
TORSDOF 8
ENDMDL
