MODEL 1
REMARK VINA RESULT:      -7.5      0.000      0.000
REMARK  8 active torsions:
REMARK  status: ('A' for Active; 'I' for Inactive)
REMARK    1  A    between atoms: C2_2  and  C3_3 
REMARK    2  A    between atoms: C4_4  and  N1_5 
REMARK    3  A    between atoms: C4_4  and  C5_6 
REMARK    4  A    between atoms: C6_7  and  C8_9 
REMARK    5  A    between atoms: C17_22  and  O3_23 
REMARK    6  A    between atoms: O3_23  and  C18_24 
REMARK    7  A    between atoms: C18_24  and  C19_25 
REMARK    8  A    between atoms: C19_25  and  O4_26 
ROOT
HETATM    1  C8  UNL     1      23.021   0.503  53.186  1.00  0.00     0.116 A 
HETATM    2  N2  UNL     1      22.672  -0.207  54.290  1.00  0.00    -0.264 NA
HETATM    3  C9  UNL     1      21.357  -0.153  54.524  1.00  0.00     0.223 A 
HETATM    4  N3  UNL     1      20.623   0.606  53.618  1.00  0.00    -0.265 NA
HETATM    5  C10 UNL     1      21.573   1.099  52.691  1.00  0.00     0.114 A 
HETATM    6  C11 UNL     1      22.979   1.260  52.107  1.00  0.00     0.023 A 
HETATM    7  C12 UNL     1      22.454   1.673  50.917  1.00  0.00     0.068 C 
HETATM    8  C13 UNL     1      21.193   0.939  50.363  1.00  0.00     0.173 C 
HETATM    9  O1  UNL     1      20.273   1.711  49.836  1.00  0.00    -0.389 OA
HETATM   10  C14 UNL     1      18.949   1.517  49.873  1.00  0.00     0.194 C 
HETATM   11  C15 UNL     1      18.245   1.550  51.202  1.00  0.00     0.200 C 
HETATM   12  O2  UNL     1      18.347   2.755  51.963  1.00  0.00    -0.358 OA
HETATM   13  C16 UNL     1      18.901   3.923  51.361  1.00  0.00     0.171 C 
HETATM   14  C17 UNL     1      20.175   3.426  51.496  1.00  0.00     0.089 C 
HETATM   15  C21 UNL     1      20.940   2.210  52.104  1.00  0.00     0.048 C 
ENDROOT
BRANCH   1  16
HETATM   16  C6  UNL     1      24.487   0.342  52.817  1.00  0.00    -0.048 C 
HETATM   17  C5  UNL     1      25.083  -0.584  53.630  1.00  0.00     0.034 C 
HETATM   18  C7  UNL     1      25.646   0.780  52.002  1.00  0.00     0.046 C 
BRANCH  17  19
HETATM   19  C4  UNL     1      26.456  -0.739  53.387  1.00  0.00     0.025 C 
HETATM   20  C3  UNL     1      27.718  -0.817  53.287  1.00  0.00     0.025 C 
BRANCH  20  21
HETATM   21  C2  UNL     1      29.102  -0.848  53.746  1.00  0.00    -0.024 C 
HETATM   22  C1  UNL     1      30.151   0.006  53.504  1.00  0.00     0.031 C 
ENDBRANCH  20  21
BRANCH  19  23
HETATM   23  N1  UNL     1      26.767  -0.597  54.833  1.00  0.00    -0.399 N 
HETATM   24  H5  UNL     1      26.250  -0.147  55.629  1.00  0.00     0.156 HD
HETATM   25  H6  UNL     1      26.888  -0.453  55.828  1.00  0.00     0.156 HD
ENDBRANCH  19  23
ENDBRANCH  17  19
ENDBRANCH   1  16
BRANCH  14  26
HETATM   26  O3  UNL     1      21.379   4.076  51.057  1.00  0.00    -0.347 OA
BRANCH  26  27
HETATM   27  C18 UNL     1      21.863   5.273  51.554  1.00  0.00     0.201 C 
BRANCH  27  28
HETATM   28  C19 UNL     1      23.362   5.182  51.893  1.00  0.00     0.193 C 
BRANCH  28  29
HETATM   29  O4  UNL     1      24.096   5.441  50.731  1.00  0.00    -0.394 OA
HETATM   30  C20 UNL     1      24.955   4.377  50.438  1.00  0.00     0.201 C 
ENDBRANCH  28  29
ENDBRANCH  27  28
ENDBRANCH  26  27
ENDBRANCH  14  26
TORSDOF 8
ENDMDL
MODEL 2
REMARK VINA RESULT:      -7.2      1.354      1.650
REMARK  8 active torsions:
REMARK  status: ('A' for Active; 'I' for Inactive)
REMARK    1  A    between atoms: C2_2  and  C3_3 
REMARK    2  A    between atoms: C4_4  and  N1_5 
REMARK    3  A    between atoms: C4_4  and  C5_6 
REMARK    4  A    between atoms: C6_7  and  C8_9 
REMARK    5  A    between atoms: C17_22  and  O3_23 
REMARK    6  A    between atoms: O3_23  and  C18_24 
REMARK    7  A    between atoms: C18_24  and  C19_25 
REMARK    8  A    between atoms: C19_25  and  O4_26 
ROOT
HETATM    1  C8  UNL     1      23.001   0.526  53.328  1.00  0.00     0.116 A 
HETATM    2  N2  UNL     1      22.153  -0.064  54.209  1.00  0.00    -0.264 NA
HETATM    3  C9  UNL     1      20.902   0.388  54.076  1.00  0.00     0.223 A 
HETATM    4  N3  UNL     1      20.719   1.354  53.091  1.00  0.00    -0.265 NA
HETATM    5  C10 UNL     1      22.001   1.549  52.521  1.00  0.00     0.114 A 
HETATM    6  C11 UNL     1      23.500   1.281  52.368  1.00  0.00     0.023 A 
HETATM    7  C12 UNL     1      23.493   1.859  51.131  1.00  0.00     0.068 C 
HETATM    8  C13 UNL     1      22.296   1.559  50.175  1.00  0.00     0.173 C 
HETATM    9  O1  UNL     1      21.836   2.587  49.503  1.00  0.00    -0.389 OA
HETATM   10  C14 UNL     1      20.563   2.809  49.153  1.00  0.00     0.194 C 
HETATM   11  C15 UNL     1      19.539   3.031  50.232  1.00  0.00     0.200 C 
HETATM   12  O2  UNL     1      19.755   4.131  51.118  1.00  0.00    -0.358 OA
HETATM   13  C16 UNL     1      20.774   5.083  50.822  1.00  0.00     0.171 C 
HETATM   14  C17 UNL     1      21.752   4.216  51.248  1.00  0.00     0.089 C 
HETATM   15  C21 UNL     1      21.918   2.812  51.907  1.00  0.00     0.048 C 
ENDROOT
BRANCH   1  16
HETATM   16  C6  UNL     1      24.400  -0.070  53.361  1.00  0.00    -0.048 C 
HETATM   17  C5  UNL     1      25.207   0.658  54.194  1.00  0.00     0.034 C 
HETATM   18  C7  UNL     1      25.366  -1.070  52.847  1.00  0.00     0.046 C 
BRANCH  17  19
HETATM   19  C4  UNL     1      26.533   0.201  54.226  1.00  0.00     0.025 C 
HETATM   20  C3  UNL     1      27.768  -0.088  54.208  1.00  0.00     0.025 C 
BRANCH  20  21
HETATM   21  C2  UNL     1      29.205   0.158  54.211  1.00  0.00    -0.024 C 
HETATM   22  C1  UNL     1      30.232  -0.494  53.571  1.00  0.00     0.031 C 
ENDBRANCH  20  21
BRANCH  19  23
HETATM   23  N1  UNL     1      27.052   1.594  54.259  1.00  0.00    -0.399 N 
HETATM   24  H5  UNL     1      26.944   2.407  53.604  1.00  0.00     0.156 HD
HETATM   25  H6  UNL     1      27.355   2.557  54.195  1.00  0.00     0.156 HD
ENDBRANCH  19  23
ENDBRANCH  17  19
ENDBRANCH   1  16
BRANCH  14  26
HETATM   26  O3  UNL     1      23.165   4.473  51.230  1.00  0.00    -0.347 OA
BRANCH  26  27
HETATM   27  C18 UNL     1      23.782   5.474  50.502  1.00  0.00     0.201 C 
BRANCH  27  28
HETATM   28  C19 UNL     1      24.718   4.898  49.423  1.00  0.00     0.193 C 
BRANCH  28  29
HETATM   29  O4  UNL     1      26.008   4.806  49.958  1.00  0.00    -0.394 OA
HETATM   30  C20 UNL     1      26.968   4.793  48.941  1.00  0.00     0.201 C 
ENDBRANCH  28  29
ENDBRANCH  27  28
ENDBRANCH  26  27
ENDBRANCH  14  26
TORSDOF 8
ENDMDL
MODEL 3
REMARK VINA RESULT:      -6.8      1.629      1.732
REMARK  8 active torsions:
REMARK  status: ('A' for Active; 'I' for Inactive)
REMARK    1  A    between atoms: C2_2  and  C3_3 
REMARK    2  A    between atoms: C4_4  and  N1_5 
REMARK    3  A    between atoms: C4_4  and  C5_6 
REMARK    4  A    between atoms: C6_7  and  C8_9 
REMARK    5  A    between atoms: C17_22  and  O3_23 
REMARK    6  A    between atoms: O3_23  and  C18_24 
REMARK    7  A    between atoms: C18_24  and  C19_25 
REMARK    8  A    between atoms: C19_25  and  O4_26 
ROOT
HETATM    1  C8  UNL     1      22.975   1.479  52.826  1.00  0.00     0.116 A 
HETATM    2  N2  UNL     1      22.326   0.663  53.696  1.00  0.00    -0.264 NA
HETATM    3  C9  UNL     1      21.018   0.586  53.427  1.00  0.00     0.223 A 
HETATM    4  N3  UNL     1      20.589   1.344  52.341  1.00  0.00    -0.265 NA
HETATM    5  C10 UNL     1      21.753   1.984  51.852  1.00  0.00     0.114 A 
HETATM    6  C11 UNL     1      23.249   2.308  51.837  1.00  0.00     0.023 A 
HETATM    7  C12 UNL     1      23.154   2.761  50.553  1.00  0.00     0.068 C 
HETATM    8  C13 UNL     1      22.269   1.964  49.545  1.00  0.00     0.173 C 
HETATM    9  O1  UNL     1      21.528   2.690  48.743  1.00  0.00    -0.389 OA
HETATM   10  C14 UNL     1      20.311   2.381  48.280  1.00  0.00     0.194 C 
HETATM   11  C15 UNL     1      19.171   2.255  49.253  1.00  0.00     0.200 C 
HETATM   12  O2  UNL     1      18.858   3.406  50.041  1.00  0.00    -0.358 OA
HETATM   13  C16 UNL     1      19.466   4.658  49.731  1.00  0.00     0.171 C 
HETATM   14  C17 UNL     1      20.648   4.264  50.310  1.00  0.00     0.089 C 
HETATM   15  C21 UNL     1      21.263   3.076  51.113  1.00  0.00     0.048 C 
ENDROOT
BRANCH   1  16
HETATM   16  C6  UNL     1      24.483   1.473  53.022  1.00  0.00    -0.048 C 
HETATM   17  C5  UNL     1      25.003   0.258  52.664  1.00  0.00     0.034 C 
HETATM   18  C7  UNL     1      25.704   2.166  53.499  1.00  0.00     0.046 C 
BRANCH  17  19
HETATM   19  C4  UNL     1      26.386   0.159  52.877  1.00  0.00     0.025 C 
HETATM   20  C3  UNL     1      27.614  -0.061  53.108  1.00  0.00     0.025 C 
BRANCH  20  21
HETATM   21  C2  UNL     1      28.825  -0.851  53.293  1.00  0.00    -0.024 C 
HETATM   22  C1  UNL     1      30.104  -0.476  53.630  1.00  0.00     0.031 C 
ENDBRANCH  20  21
BRANCH  19  23
HETATM   23  N1  UNL     1      26.334  -1.323  52.775  1.00  0.00    -0.399 N 
HETATM   24  H5  UNL     1      25.883  -2.060  53.372  1.00  0.00     0.156 HD
HETATM   25  H6  UNL     1      26.240  -2.331  52.790  1.00  0.00     0.156 HD
ENDBRANCH  19  23
ENDBRANCH  17  19
ENDBRANCH   1  16
BRANCH  14  26
HETATM   26  O3  UNL     1      21.852   5.045  50.372  1.00  0.00    -0.347 OA
BRANCH  26  27
HETATM   27  C18 UNL     1      21.978   6.260  51.022  1.00  0.00     0.201 C 
BRANCH  27  28
HETATM   28  C19 UNL     1      23.442   6.737  51.056  1.00  0.00     0.193 C 
BRANCH  28  29
HETATM   29  O4  UNL     1      23.476   8.087  50.689  1.00  0.00    -0.394 OA
HETATM   30  C20 UNL     1      24.675   8.396  50.040  1.00  0.00     0.201 C 
ENDBRANCH  28  29
ENDBRANCH  27  28
ENDBRANCH  26  27
ENDBRANCH  14  26
TORSDOF 8
ENDMDL
MODEL 4
REMARK VINA RESULT:      -6.8      3.145      4.692
REMARK  8 active torsions:
REMARK  status: ('A' for Active; 'I' for Inactive)
REMARK    1  A    between atoms: C2_2  and  C3_3 
REMARK    2  A    between atoms: C4_4  and  N1_5 
REMARK    3  A    between atoms: C4_4  and  C5_6 
REMARK    4  A    between atoms: C6_7  and  C8_9 
REMARK    5  A    between atoms: C17_22  and  O3_23 
REMARK    6  A    between atoms: O3_23  and  C18_24 
REMARK    7  A    between atoms: C18_24  and  C19_25 
REMARK    8  A    between atoms: C19_25  and  O4_26 
ROOT
HETATM    1  C8  UNL     1      23.777   3.365  51.905  1.00  0.00     0.116 A 
HETATM    2  N2  UNL     1      22.656   3.031  52.596  1.00  0.00    -0.264 NA
HETATM    3  C9  UNL     1      21.651   3.879  52.358  1.00  0.00     0.223 A 
HETATM    4  N3  UNL     1      21.943   4.916  51.476  1.00  0.00    -0.265 NA
HETATM    5  C10 UNL     1      23.294   4.713  51.100  1.00  0.00     0.114 A 
HETATM    6  C11 UNL     1      24.635   3.975  51.110  1.00  0.00     0.023 A 
HETATM    7  C12 UNL     1      25.007   4.605  49.958  1.00  0.00     0.068 C 
HETATM    8  C13 UNL     1      23.944   4.784  48.829  1.00  0.00     0.173 C 
HETATM    9  O1  UNL     1      23.948   5.949  48.226  1.00  0.00    -0.389 OA
HETATM   10  C14 UNL     1      22.884   6.603  47.745  1.00  0.00     0.194 C 
HETATM   11  C15 UNL     1      21.825   7.078  48.702  1.00  0.00     0.200 C 
HETATM   12  O2  UNL     1      22.236   7.982  49.730  1.00  0.00    -0.358 OA
HETATM   13  C16 UNL     1      23.538   8.560  49.679  1.00  0.00     0.171 C 
HETATM   14  C17 UNL     1      24.109   7.392  50.122  1.00  0.00     0.089 C 
HETATM   15  C21 UNL     1      23.714   5.971  50.630  1.00  0.00     0.048 C 
ENDROOT
BRANCH   1  16
HETATM   16  C6  UNL     1      24.889   2.339  52.047  1.00  0.00    -0.048 C 
HETATM   17  C5  UNL     1      25.495   2.462  53.269  1.00  0.00     0.034 C 
HETATM   18  C7  UNL     1      25.710   1.264  51.440  1.00  0.00     0.046 C 
BRANCH  17  19
HETATM   19  C4  UNL     1      26.575   1.585  53.447  1.00  0.00     0.025 C 
HETATM   20  C3  UNL     1      27.632   0.903  53.614  1.00  0.00     0.025 C 
BRANCH  20  21
HETATM   21  C2  UNL     1      29.005   0.633  54.025  1.00  0.00    -0.024 C 
HETATM   22  C1  UNL     1      29.888  -0.343  53.630  1.00  0.00     0.031 C 
ENDBRANCH  20  21
BRANCH  19  23
HETATM   23  N1  UNL     1      27.397   2.661  54.059  1.00  0.00    -0.399 N 
HETATM   24  H5  UNL     1      27.401   3.704  53.941  1.00  0.00     0.156 HD
HETATM   25  H6  UNL     1      27.901   3.461  54.421  1.00  0.00     0.156 HD
ENDBRANCH  19  23
ENDBRANCH  17  19
ENDBRANCH   1  16
BRANCH  14  26
HETATM   26  O3  UNL     1      25.515   7.167  50.315  1.00  0.00    -0.347 OA
BRANCH  26  27
HETATM   27  C18 UNL     1      26.525   7.783  49.598  1.00  0.00     0.201 C 
BRANCH  27  28
HETATM   28  C19 UNL     1      27.104   8.993  50.355  1.00  0.00     0.193 C 
BRANCH  28  29
HETATM   29  O4  UNL     1      26.646  10.162  49.738  1.00  0.00    -0.394 OA
HETATM   30  C20 UNL     1      26.647  10.022  48.346  1.00  0.00     0.201 C 
ENDBRANCH  28  29
ENDBRANCH  27  28
ENDBRANCH  26  27
ENDBRANCH  14  26
TORSDOF 8
ENDMDL
MODEL 5
REMARK VINA RESULT:      -6.7      2.876      4.782
REMARK  8 active torsions:
REMARK  status: ('A' for Active; 'I' for Inactive)
REMARK    1  A    between atoms: C2_2  and  C3_3 
REMARK    2  A    between atoms: C4_4  and  N1_5 
REMARK    3  A    between atoms: C4_4  and  C5_6 
REMARK    4  A    between atoms: C6_7  and  C8_9 
REMARK    5  A    between atoms: C17_22  and  O3_23 
REMARK    6  A    between atoms: O3_23  and  C18_24 
REMARK    7  A    between atoms: C18_24  and  C19_25 
REMARK    8  A    between atoms: C19_25  and  O4_26 
ROOT
HETATM    1  C8  UNL     1      25.738   3.353  50.452  1.00  0.00     0.116 A 
HETATM    2  N2  UNL     1      26.853   3.837  49.846  1.00  0.00    -0.264 NA
HETATM    3  C9  UNL     1      26.595   4.937  49.132  1.00  0.00     0.223 A 
HETATM    4  N3  UNL     1      25.267   5.356  49.143  1.00  0.00    -0.265 NA
HETATM    5  C10 UNL     1      24.589   4.418  49.959  1.00  0.00     0.114 A 
HETATM    6  C11 UNL     1      24.495   3.186  50.863  1.00  0.00     0.023 A 
HETATM    7  C12 UNL     1      23.296   3.617  51.351  1.00  0.00     0.068 C 
HETATM    8  C13 UNL     1      23.121   5.136  51.667  1.00  0.00     0.173 C 
HETATM    9  O1  UNL     1      21.974   5.661  51.312  1.00  0.00    -0.389 OA
HETATM   10  C14 UNL     1      21.767   6.908  50.872  1.00  0.00     0.194 C 
HETATM   11  C15 UNL     1      22.390   7.336  49.571  1.00  0.00     0.200 C 
HETATM   12  O2  UNL     1      22.033   6.593  48.404  1.00  0.00    -0.358 OA
HETATM   13  C16 UNL     1      20.965   5.651  48.469  1.00  0.00     0.171 C 
HETATM   14  C17 UNL     1      21.764   4.741  49.117  1.00  0.00     0.089 C 
HETATM   15  C21 UNL     1      23.239   4.545  49.583  1.00  0.00     0.048 C 
ENDROOT
BRANCH   1  16
HETATM   16  C6  UNL     1      26.028   2.186  51.383  1.00  0.00    -0.048 C 
HETATM   17  C5  UNL     1      27.242   2.358  51.994  1.00  0.00     0.034 C 
HETATM   18  C7  UNL     1      25.636   0.860  51.918  1.00  0.00     0.046 C 
BRANCH  17  19
HETATM   19  C4  UNL     1      27.605   1.286  52.823  1.00  0.00     0.025 C 
HETATM   20  C3  UNL     1      28.064   0.352  53.549  1.00  0.00     0.025 C 
BRANCH  20  21
HETATM   21  C2  UNL     1      29.036  -0.349  54.379  1.00  0.00    -0.024 C 
HETATM   22  C1  UNL     1      30.052  -1.211  54.043  1.00  0.00     0.031 C 
ENDBRANCH  20  21
BRANCH  19  23
HETATM   23  N1  UNL     1      28.942   1.884  53.075  1.00  0.00    -0.399 N 
HETATM   24  H5  UNL     1      29.394   2.273  53.939  1.00  0.00     0.156 HD
HETATM   25  H6  UNL     1      29.825   2.300  53.344  1.00  0.00     0.156 HD
ENDBRANCH  19  23
ENDBRANCH  17  19
ENDBRANCH   1  16
BRANCH  14  26
HETATM   26  O3  UNL     1      21.353   3.444  49.578  1.00  0.00    -0.347 OA
BRANCH  26  27
HETATM   27  C18 UNL     1      20.944   2.403  48.764  1.00  0.00     0.201 C 
BRANCH  27  28
HETATM   28  C19 UNL     1      21.455   1.044  49.278  1.00  0.00     0.193 C 
BRANCH  28  29
HETATM   29  O4  UNL     1      20.688   0.674  50.388  1.00  0.00    -0.394 OA
HETATM   30  C20 UNL     1      21.509   0.292  51.453  1.00  0.00     0.201 C 
ENDBRANCH  28  29
ENDBRANCH  27  28
ENDBRANCH  26  27
ENDBRANCH  14  26
TORSDOF 8
ENDMDL
MODEL 6
REMARK VINA RESULT:      -6.7      3.621      5.637
REMARK  8 active torsions:
REMARK  status: ('A' for Active; 'I' for Inactive)
REMARK    1  A    between atoms: C2_2  and  C3_3 
REMARK    2  A    between atoms: C4_4  and  N1_5 
REMARK    3  A    between atoms: C4_4  and  C5_6 
REMARK    4  A    between atoms: C6_7  and  C8_9 
REMARK    5  A    between atoms: C17_22  and  O3_23 
REMARK    6  A    between atoms: O3_23  and  C18_24 
REMARK    7  A    between atoms: C18_24  and  C19_25 
REMARK    8  A    between atoms: C19_25  and  O4_26 
ROOT
HETATM    1  C8  UNL     1      25.776   3.859  50.046  1.00  0.00     0.116 A 
HETATM    2  N2  UNL     1      26.746   3.144  50.672  1.00  0.00    -0.264 NA
HETATM    3  C9  UNL     1      26.246   2.093  51.329  1.00  0.00     0.223 A 
HETATM    4  N3  UNL     1      24.863   1.945  51.251  1.00  0.00    -0.265 NA
HETATM    5  C10 UNL     1      24.420   3.026  50.450  1.00  0.00     0.114 A 
HETATM    6  C11 UNL     1      24.610   4.282  49.596  1.00  0.00     0.023 A 
HETATM    7  C12 UNL     1      23.373   4.114  49.046  1.00  0.00     0.068 C 
HETATM    8  C13 UNL     1      22.918   2.671  48.659  1.00  0.00     0.173 C 
HETATM    9  O1  UNL     1      21.675   2.371  48.950  1.00  0.00    -0.389 OA
HETATM   10  C14 UNL     1      21.209   1.175  49.328  1.00  0.00     0.194 C 
HETATM   11  C15 UNL     1      21.677   0.589  50.632  1.00  0.00     0.200 C 
HETATM   12  O2  UNL     1      21.419   1.348  51.815  1.00  0.00    -0.358 OA
HETATM   13  C16 UNL     1      20.560   2.483  51.750  1.00  0.00     0.171 C 
HETATM   14  C17 UNL     1      21.551   3.240  51.171  1.00  0.00     0.089 C 
HETATM   15  C21 UNL     1      23.056   3.156  50.770  1.00  0.00     0.048 C 
ENDROOT
BRANCH   1  16
HETATM   16  C6  UNL     1      26.332   4.976  49.177  1.00  0.00    -0.048 C 
HETATM   17  C5  UNL     1      27.653   4.750  48.900  1.00  0.00     0.034 C 
HETATM   18  C7  UNL     1      26.132   6.286  48.511  1.00  0.00     0.046 C 
BRANCH  17  19
HETATM   19  C4  UNL     1      28.250   5.775  48.152  1.00  0.00     0.025 C 
HETATM   20  C3  UNL     1      28.880   6.714  47.577  1.00  0.00     0.025 C 
BRANCH  20  21
HETATM   21  C2  UNL     1      30.007   7.591  47.281  1.00  0.00    -0.024 C 
HETATM   22  C1  UNL     1      30.306   8.327  46.159  1.00  0.00     0.031 C 
ENDBRANCH  20  21
BRANCH  19  23
HETATM   23  N1  UNL     1      29.530   5.622  48.891  1.00  0.00    -0.399 N 
HETATM   24  H5  UNL     1      30.400   6.208  48.931  1.00  0.00     0.156 HD
HETATM   25  H6  UNL     1      30.431   5.607  49.353  1.00  0.00     0.156 HD
ENDBRANCH  19  23
ENDBRANCH  17  19
ENDBRANCH   1  16
BRANCH  14  26
HETATM   26  O3  UNL     1      21.423   4.607  50.750  1.00  0.00    -0.347 OA
BRANCH  26  27
HETATM   27  C18 UNL     1      21.723   5.710  51.529  1.00  0.00     0.201 C 
BRANCH  27  28
HETATM   28  C19 UNL     1      21.754   7.005  50.695  1.00  0.00     0.193 C 
BRANCH  28  29
HETATM   29  O4  UNL     1      23.059   7.510  50.710  1.00  0.00    -0.394 OA
HETATM   30  C20 UNL     1      23.233   8.466  49.704  1.00  0.00     0.201 C 
ENDBRANCH  28  29
ENDBRANCH  27  28
ENDBRANCH  26  27
ENDBRANCH  14  26
TORSDOF 8
ENDMDL
MODEL 7
REMARK VINA RESULT:      -6.7      2.190      2.961
REMARK  8 active torsions:
REMARK  status: ('A' for Active; 'I' for Inactive)
REMARK    1  A    between atoms: C2_2  and  C3_3 
REMARK    2  A    between atoms: C4_4  and  N1_5 
REMARK    3  A    between atoms: C4_4  and  C5_6 
REMARK    4  A    between atoms: C6_7  and  C8_9 
REMARK    5  A    between atoms: C17_22  and  O3_23 
REMARK    6  A    between atoms: O3_23  and  C18_24 
REMARK    7  A    between atoms: C18_24  and  C19_25 
REMARK    8  A    between atoms: C19_25  and  O4_26 
ROOT
HETATM    1  C8  UNL     1      23.653   2.755  52.511  1.00  0.00     0.116 A 
HETATM    2  N2  UNL     1      23.961   3.965  53.045  1.00  0.00    -0.264 NA
HETATM    3  C9  UNL     1      22.972   4.849  52.881  1.00  0.00     0.223 A 
HETATM    4  N3  UNL     1      21.852   4.370  52.208  1.00  0.00    -0.265 NA
HETATM    5  C10 UNL     1      22.152   3.021  51.901  1.00  0.00     0.114 A 
HETATM    6  C11 UNL     1      23.027   1.765  51.904  1.00  0.00     0.023 A 
HETATM    7  C12 UNL     1      21.941   0.989  51.624  1.00  0.00     0.068 C 
HETATM    8  C13 UNL     1      20.594   1.300  52.349  1.00  0.00     0.173 C 
HETATM    9  O1  UNL     1      19.519   1.235  51.602  1.00  0.00    -0.389 OA
HETATM   10  C14 UNL     1      18.423   1.995  51.709  1.00  0.00     0.194 C 
HETATM   11  C15 UNL     1      18.533   3.474  51.456  1.00  0.00     0.200 C 
HETATM   12  O2  UNL     1      18.999   3.880  50.168  1.00  0.00    -0.358 OA
HETATM   13  C16 UNL     1      19.123   2.914  49.127  1.00  0.00     0.171 C 
HETATM   14  C17 UNL     1      20.284   2.424  49.677  1.00  0.00     0.089 C 
HETATM   15  C21 UNL     1      21.280   2.704  50.844  1.00  0.00     0.048 C 
ENDROOT
BRANCH   1  16
HETATM   16  C6  UNL     1      24.701   1.693  52.807  1.00  0.00    -0.048 C 
HETATM   17  C5  UNL     1      25.937   2.268  52.935  1.00  0.00     0.034 C 
HETATM   18  C7  UNL     1      25.047   0.260  52.964  1.00  0.00     0.046 C 
BRANCH  17  19
HETATM   19  C4  UNL     1      26.966   1.338  53.148  1.00  0.00     0.025 C 
HETATM   20  C3  UNL     1      27.981   0.604  53.344  1.00  0.00     0.025 C 
BRANCH  20  21
HETATM   21  C2  UNL     1      29.334   0.271  53.773  1.00  0.00    -0.024 C 
HETATM   22  C1  UNL     1      30.011  -0.926  53.773  1.00  0.00     0.031 C 
ENDBRANCH  20  21
BRANCH  19  23
HETATM   23  N1  UNL     1      27.843   2.385  53.734  1.00  0.00    -0.399 N 
HETATM   24  H5  UNL     1      28.312   3.229  53.322  1.00  0.00     0.156 HD
HETATM   25  H6  UNL     1      28.442   3.141  54.041  1.00  0.00     0.156 HD
ENDBRANCH  19  23
ENDBRANCH  17  19
ENDBRANCH   1  16
BRANCH  14  26
HETATM   26  O3  UNL     1      21.054   1.325  49.164  1.00  0.00    -0.347 OA
BRANCH  26  27
HETATM   27  C18 UNL     1      21.778   1.343  47.986  1.00  0.00     0.201 C 
BRANCH  27  28
HETATM   28  C19 UNL     1      22.727   2.554  47.919  1.00  0.00     0.193 C 
BRANCH  28  29
HETATM   29  O4  UNL     1      22.160   3.514  47.072  1.00  0.00    -0.394 OA
HETATM   30  C20 UNL     1      22.355   4.802  47.581  1.00  0.00     0.201 C 
ENDBRANCH  28  29
ENDBRANCH  27  28
ENDBRANCH  26  27
ENDBRANCH  14  26
TORSDOF 8
ENDMDL
MODEL 8
REMARK VINA RESULT:      -6.6      2.461      4.381
REMARK  8 active torsions:
REMARK  status: ('A' for Active; 'I' for Inactive)
REMARK    1  A    between atoms: C2_2  and  C3_3 
REMARK    2  A    between atoms: C4_4  and  N1_5 
REMARK    3  A    between atoms: C4_4  and  C5_6 
REMARK    4  A    between atoms: C6_7  and  C8_9 
REMARK    5  A    between atoms: C17_22  and  O3_23 
REMARK    6  A    between atoms: O3_23  and  C18_24 
REMARK    7  A    between atoms: C18_24  and  C19_25 
REMARK    8  A    between atoms: C19_25  and  O4_26 
ROOT
HETATM    1  C8  UNL     1      23.599   2.703  50.819  1.00  0.00     0.116 A 
HETATM    2  N2  UNL     1      24.197   3.302  49.757  1.00  0.00    -0.264 NA
HETATM    3  C9  UNL     1      23.308   3.703  48.843  1.00  0.00     0.223 A 
HETATM    4  N3  UNL     1      21.977   3.429  49.148  1.00  0.00    -0.265 NA
HETATM    5  C10 UNL     1      22.011   2.776  50.405  1.00  0.00     0.114 A 
HETATM    6  C11 UNL     1      22.701   2.202  51.645  1.00  0.00     0.023 A 
HETATM    7  C12 UNL     1      21.518   2.213  52.326  1.00  0.00     0.068 C 
HETATM    8  C13 UNL     1      20.572   3.442  52.157  1.00  0.00     0.173 C 
HETATM    9  O1  UNL     1      19.296   3.164  52.044  1.00  0.00    -0.389 OA
HETATM   10  C14 UNL     1      18.395   3.827  51.307  1.00  0.00     0.194 C 
HETATM   11  C15 UNL     1      18.547   3.843  49.811  1.00  0.00     0.200 C 
HETATM   12  O2  UNL     1      18.540   2.579  49.143  1.00  0.00    -0.358 OA
HETATM   13  C16 UNL     1      18.177   1.405  49.864  1.00  0.00     0.171 C 
HETATM   14  C17 UNL     1      19.405   1.363  50.479  1.00  0.00     0.089 C 
HETATM   15  C21 UNL     1      20.784   2.092  50.472  1.00  0.00     0.048 C 
ENDROOT
BRANCH   1  16
HETATM   16  C6  UNL     1      24.575   2.365  51.935  1.00  0.00    -0.048 C 
HETATM   17  C5  UNL     1      25.564   1.541  51.468  1.00  0.00     0.034 C 
HETATM   18  C7  UNL     1      24.944   2.453  53.368  1.00  0.00     0.046 C 
BRANCH  17  19
HETATM   19  C4  UNL     1      26.468   1.136  52.462  1.00  0.00     0.025 C 
HETATM   20  C3  UNL     1      27.264   0.642  53.316  1.00  0.00     0.025 C 
BRANCH  20  21
HETATM   21  C2  UNL     1      28.168  -0.343  53.897  1.00  0.00    -0.024 C 
HETATM   22  C1  UNL     1      29.511  -0.561  53.700  1.00  0.00     0.031 C 
ENDBRANCH  20  21
BRANCH  19  23
HETATM   23  N1  UNL     1      26.730  -0.145  51.755  1.00  0.00    -0.399 N 
HETATM   24  H5  UNL     1      26.965  -0.369  50.757  1.00  0.00     0.156 HD
HETATM   25  H6  UNL     1      26.924  -0.961  51.189  1.00  0.00     0.156 HD
ENDBRANCH  19  23
ENDBRANCH  17  19
ENDBRANCH   1  16
BRANCH  14  26
HETATM   26  O3  UNL     1      19.822   0.393  51.453  1.00  0.00    -0.347 OA
BRANCH  26  27
HETATM   27  C18 UNL     1      18.972  -0.332  52.268  1.00  0.00     0.201 C 
BRANCH  27  28
HETATM   28  C19 UNL     1      19.674  -0.786  53.562  1.00  0.00     0.193 C 
BRANCH  28  29
HETATM   29  O4  UNL     1      19.143  -2.023  53.942  1.00  0.00    -0.394 OA
HETATM   30  C20 UNL     1      17.821  -2.152  53.506  1.00  0.00     0.201 C 
ENDBRANCH  28  29
ENDBRANCH  27  28
ENDBRANCH  26  27
ENDBRANCH  14  26
TORSDOF 8
ENDMDL
MODEL 9
REMARK VINA RESULT:      -6.6      2.966      6.688
REMARK  8 active torsions:
REMARK  status: ('A' for Active; 'I' for Inactive)
REMARK    1  A    between atoms: C2_2  and  C3_3 
REMARK    2  A    between atoms: C4_4  and  N1_5 
REMARK    3  A    between atoms: C4_4  and  C5_6 
REMARK    4  A    between atoms: C6_7  and  C8_9 
REMARK    5  A    between atoms: C17_22  and  O3_23 
REMARK    6  A    between atoms: O3_23  and  C18_24 
REMARK    7  A    between atoms: C18_24  and  C19_25 
REMARK    8  A    between atoms: C19_25  and  O4_26 
ROOT
HETATM    1  C8  UNL     1      20.210  -0.143  52.872  1.00  0.00     0.116 A 
HETATM    2  N2  UNL     1      20.529  -0.867  53.976  1.00  0.00    -0.264 NA
HETATM    3  C9  UNL     1      21.721  -0.520  54.473  1.00  0.00     0.223 A 
HETATM    4  N3  UNL     1      22.386   0.486  53.776  1.00  0.00    -0.265 NA
HETATM    5  C10 UNL     1      21.524   0.827  52.705  1.00  0.00     0.114 A 
HETATM    6  C11 UNL     1      20.244   0.719  51.874  1.00  0.00     0.023 A 
HETATM    7  C12 UNL     1      20.486   1.940  51.314  1.00  0.00     0.068 C 
HETATM    8  C13 UNL     1      21.020   3.087  52.229  1.00  0.00     0.173 C 
HETATM    9  O1  UNL     1      21.966   3.832  51.710  1.00  0.00    -0.389 OA
HETATM   10  C14 UNL     1      22.988   4.396  52.364  1.00  0.00     0.194 C 
HETATM   11  C15 UNL     1      24.014   3.510  53.017  1.00  0.00     0.200 C 
HETATM   12  O2  UNL     1      24.724   2.604  52.170  1.00  0.00    -0.358 OA
HETATM   13  C16 UNL     1      24.603   2.723  50.754  1.00  0.00     0.171 C 
HETATM   14  C17 UNL     1      23.362   2.133  50.778  1.00  0.00     0.089 C 
HETATM   15  C21 UNL     1      22.368   1.451  51.768  1.00  0.00     0.048 C 
ENDROOT
BRANCH   1  16
HETATM   16  C6  UNL     1      18.801  -0.419  52.370  1.00  0.00    -0.048 C 
HETATM   17  C5  UNL     1      18.174  -1.321  53.187  1.00  0.00     0.034 C 
HETATM   18  C7  UNL     1      17.760  -0.216  51.333  1.00  0.00     0.046 C 
BRANCH  17  19
HETATM   19  C4  UNL     1      16.889  -1.671  52.748  1.00  0.00     0.025 C 
HETATM   20  C3  UNL     1      15.757  -2.117  52.386  1.00  0.00     0.025 C 
BRANCH  20  21
HETATM   21  C2  UNL     1      14.630  -3.040  52.339  1.00  0.00    -0.024 C 
HETATM   22  C1  UNL     1      14.302  -4.016  51.428  1.00  0.00     0.031 C 
ENDBRANCH  20  21
BRANCH  19  23
HETATM   23  N1  UNL     1      16.912  -2.920  53.554  1.00  0.00    -0.399 N 
HETATM   24  H5  UNL     1      17.242  -3.129  54.528  1.00  0.00     0.156 HD
HETATM   25  H6  UNL     1      16.968  -3.715  54.178  1.00  0.00     0.156 HD
ENDBRANCH  19  23
ENDBRANCH  17  19
ENDBRANCH   1  16
BRANCH  14  26
HETATM   26  O3  UNL     1      22.519   1.907  49.637  1.00  0.00    -0.347 OA
BRANCH  26  27
HETATM   27  C18 UNL     1      22.720   2.450  48.381  1.00  0.00     0.201 C 
BRANCH  27  28
HETATM   28  C19 UNL     1      21.585   3.415  47.990  1.00  0.00     0.193 C 
BRANCH  28  29
HETATM   29  O4  UNL     1      21.832   4.655  48.590  1.00  0.00    -0.394 OA
HETATM   30  C20 UNL     1      23.104   5.127  48.250  1.00  0.00     0.201 C 
ENDBRANCH  28  29
ENDBRANCH  27  28
ENDBRANCH  26  27
ENDBRANCH  14  26
TORSDOF 8
ENDMDL
