MODEL 1
REMARK VINA RESULT:      -9.0      0.000      0.000
REMARK  6 active torsions:
REMARK  status: ('A' for Active; 'I' for Inactive)
REMARK    1  A    between atoms: N1_2  and  C3_4 
REMARK    2  A    between atoms: C3_4  and  C4_5 
REMARK    3  A    between atoms: C5_6  and  C6_7 
REMARK       I    between atoms: C6_7  and  N2_9 
REMARK    4  A    between atoms: N2_9  and  C7_10 
REMARK    5  A    between atoms: C14_19  and  O2_20 
REMARK    6  A    between atoms: O2_20  and  C15_21 
ROOT
HETATM    1  C7  UNL     1      24.537   2.081  51.285  1.00  0.00     0.069 A 
HETATM    2  C8  UNL     1      23.156   1.936  51.123  1.00  0.00     0.050 A 
HETATM    3  C9  UNL     1      22.598   1.015  51.963  1.00  0.00     0.041 A 
HETATM    4  C10 UNL     1      21.269   0.780  51.879  1.00  0.00     0.142 A 
HETATM    5  N3  UNL     1      20.835  -0.122  52.724  1.00  0.00    -0.215 NA
HETATM    6  C11 UNL     1      21.239  -0.878  53.620  1.00  0.00     0.135 A 
HETATM    7  N4  UNL     1      22.533  -0.646  53.695  1.00  0.00    -0.232 NA
HETATM    8  C12 UNL     1      23.218   0.229  52.940  1.00  0.00     0.075 A 
HETATM    9  C13 UNL     1      24.601   0.409  53.070  1.00  0.00     0.071 A 
HETATM   10  C14 UNL     1      25.213   1.319  52.245  1.00  0.00     0.098 A 
HETATM   11  C19 UNL     1      20.059  -1.593  54.059  1.00  0.00     0.150 A 
HETATM   12  C20 UNL     1      18.799  -1.445  53.344  1.00  0.00     0.097 A 
HETATM   13  F1  UNL     1      18.017  -2.381  54.028  1.00  0.00    -0.211 F 
HETATM   14  C21 UNL     1      17.747  -1.109  52.512  1.00  0.00     0.017 A 
HETATM   15  C22 UNL     1      18.246  -0.057  51.568  1.00  0.00     0.041 A 
HETATM   16  C23 UNL     1      19.304   0.656  51.268  1.00  0.00     0.098 A 
HETATM   17  N5  UNL     1      20.336   1.399  50.922  1.00  0.00    -0.353 N 
HETATM   18  H26 UNL     1      20.643   2.071  50.341  1.00  0.00     0.166 HD
ENDROOT
BRANCH   1  19
HETATM   19  N2  UNL     1      25.045   3.056  50.370  1.00  0.00    -0.321 N 
HETATM   20  C6  UNL     1      24.736   4.398  50.673  1.00  0.00     0.245 C 
HETATM   21  O1  UNL     1      24.078   4.802  51.660  1.00  0.00    -0.268 OA
HETATM   22  H11 UNL     1      25.613   3.002  49.502  1.00  0.00     0.169 HD
BRANCH  20  23
HETATM   23  C5  UNL     1      25.077   5.603  49.951  1.00  0.00     0.072 C 
HETATM   24  C4  UNL     1      26.114   5.567  49.158  1.00  0.00    -0.002 C 
BRANCH  24  25
HETATM   25  C3  UNL     1      26.790   6.536  48.267  1.00  0.00     0.143 C 
BRANCH  25  26
HETATM   26  N1  UNL     1      28.180   6.557  48.490  1.00  0.00    -0.418 N 
HETATM   27  C1  UNL     1      28.944   5.394  48.238  1.00  0.00     0.142 C 
HETATM   28  C2  UNL     1      28.839   7.814  48.414  1.00  0.00     0.142 C 
ENDBRANCH  25  26
ENDBRANCH  24  25
ENDBRANCH  20  23
ENDBRANCH   1  19
BRANCH  10  29
HETATM   29  O2  UNL     1      26.550   1.543  52.300  1.00  0.00    -0.341 OA
BRANCH  29  30
HETATM   30  C15 UNL     1      27.337   1.383  53.421  1.00  0.00     0.154 C 
HETATM   31  C16 UNL     1      28.534   2.353  53.509  1.00  0.00     0.061 C 
HETATM   32  C17 UNL     1      29.341   1.595  54.554  1.00  0.00     0.170 C 
HETATM   33  O3  UNL     1      28.998   0.262  54.459  1.00  0.00    -0.389 OA
HETATM   34  C18 UNL     1      28.138   0.084  53.389  1.00  0.00     0.200 C 
ENDBRANCH  29  30
ENDBRANCH  10  29
TORSDOF 6
ENDMDL
MODEL 2
REMARK VINA RESULT:      -8.9      3.652      6.650
REMARK  6 active torsions:
REMARK  status: ('A' for Active; 'I' for Inactive)
REMARK    1  A    between atoms: N1_2  and  C3_4 
REMARK    2  A    between atoms: C3_4  and  C4_5 
REMARK    3  A    between atoms: C5_6  and  C6_7 
REMARK       I    between atoms: C6_7  and  N2_9 
REMARK    4  A    between atoms: N2_9  and  C7_10 
REMARK    5  A    between atoms: C14_19  and  O2_20 
REMARK    6  A    between atoms: O2_20  and  C15_21 
ROOT
HETATM    1  C7  UNL     1      23.507   3.010  52.685  1.00  0.00     0.069 A 
HETATM    2  C8  UNL     1      24.894   2.882  52.811  1.00  0.00     0.050 A 
HETATM    3  C9  UNL     1      25.325   1.587  52.849  1.00  0.00     0.041 A 
HETATM    4  C10 UNL     1      26.648   1.346  52.988  1.00  0.00     0.142 A 
HETATM    5  N3  UNL     1      26.957   0.074  53.017  1.00  0.00    -0.215 NA
HETATM    6  C11 UNL     1      26.431  -1.048  52.961  1.00  0.00     0.135 A 
HETATM    7  N4  UNL     1      25.143  -0.807  52.828  1.00  0.00    -0.232 NA
HETATM    8  C12 UNL     1      24.574   0.409  52.772  1.00  0.00     0.075 A 
HETATM    9  C13 UNL     1      23.190   0.584  52.644  1.00  0.00     0.071 A 
HETATM   10  C14 UNL     1      22.704   1.866  52.606  1.00  0.00     0.098 A 
HETATM   11  C19 UNL     1      27.532  -1.979  53.090  1.00  0.00     0.150 A 
HETATM   12  C20 UNL     1      28.871  -1.497  53.399  1.00  0.00     0.097 A 
HETATM   13  F1  UNL     1      29.543  -2.715  53.542  1.00  0.00    -0.211 F 
HETATM   14  C21 UNL     1      30.023  -0.781  53.669  1.00  0.00     0.017 A 
HETATM   15  C22 UNL     1      29.665   0.674  53.606  1.00  0.00     0.041 A 
HETATM   16  C23 UNL     1      28.668   1.492  53.374  1.00  0.00     0.098 A 
HETATM   17  N5  UNL     1      27.703   2.361  53.150  1.00  0.00    -0.353 N 
HETATM   18  H26 UNL     1      27.484   3.273  53.094  1.00  0.00     0.166 HD
ENDROOT
BRANCH   1  19
HETATM   19  N2  UNL     1      23.135   4.390  52.657  1.00  0.00    -0.321 N 
HETATM   20  C6  UNL     1      23.123   4.994  51.383  1.00  0.00     0.245 C 
HETATM   21  O1  UNL     1      23.391   4.434  50.295  1.00  0.00    -0.268 OA
HETATM   22  H11 UNL     1      22.860   5.077  53.387  1.00  0.00     0.169 HD
BRANCH  20  23
HETATM   23  C5  UNL     1      22.816   6.359  51.018  1.00  0.00     0.072 C 
HETATM   24  C4  UNL     1      23.779   7.090  50.523  1.00  0.00    -0.002 C 
BRANCH  24  25
HETATM   25  C3  UNL     1      23.898   8.482  50.037  1.00  0.00     0.143 C 
BRANCH  25  26
HETATM   26  N1  UNL     1      25.223   8.790  49.675  1.00  0.00    -0.418 N 
HETATM   27  C1  UNL     1      26.258   7.876  49.977  1.00  0.00     0.142 C 
HETATM   28  C2  UNL     1      25.417   9.677  48.582  1.00  0.00     0.142 C 
ENDBRANCH  25  26
ENDBRANCH  24  25
ENDBRANCH  20  23
ENDBRANCH   1  19
BRANCH  10  29
HETATM   29  O2  UNL     1      21.376   2.120  52.495  1.00  0.00    -0.341 OA
BRANCH  29  30
HETATM   30  C15 UNL     1      20.608   1.864  51.378  1.00  0.00     0.154 C 
HETATM   31  C16 UNL     1      21.415   1.528  50.107  1.00  0.00     0.061 C 
HETATM   32  C17 UNL     1      20.308   1.760  49.088  1.00  0.00     0.170 C 
HETATM   33  O3  UNL     1      19.424   2.668  49.633  1.00  0.00    -0.389 OA
HETATM   34  C18 UNL     1      19.916   3.116  50.847  1.00  0.00     0.200 C 
ENDBRANCH  29  30
ENDBRANCH  10  29
TORSDOF 6
ENDMDL
MODEL 3
REMARK VINA RESULT:      -8.9      4.024      7.229
REMARK  6 active torsions:
REMARK  status: ('A' for Active; 'I' for Inactive)
REMARK    1  A    between atoms: N1_2  and  C3_4 
REMARK    2  A    between atoms: C3_4  and  C4_5 
REMARK    3  A    between atoms: C5_6  and  C6_7 
REMARK       I    between atoms: C6_7  and  N2_9 
REMARK    4  A    between atoms: N2_9  and  C7_10 
REMARK    5  A    between atoms: C14_19  and  O2_20 
REMARK    6  A    between atoms: O2_20  and  C15_21 
ROOT
HETATM    1  C7  UNL     1      23.584   3.273  52.663  1.00  0.00     0.069 A 
HETATM    2  C8  UNL     1      24.961   3.078  52.807  1.00  0.00     0.050 A 
HETATM    3  C9  UNL     1      25.331   1.763  52.812  1.00  0.00     0.041 A 
HETATM    4  C10 UNL     1      26.640   1.458  52.965  1.00  0.00     0.142 A 
HETATM    5  N3  UNL     1      26.889   0.171  52.960  1.00  0.00    -0.215 NA
HETATM    6  C11 UNL     1      26.312  -0.922  52.861  1.00  0.00     0.135 A 
HETATM    7  N4  UNL     1      25.040  -0.617  52.716  1.00  0.00    -0.232 NA
HETATM    8  C12 UNL     1      24.528   0.625  52.688  1.00  0.00     0.075 A 
HETATM    9  C13 UNL     1      23.156   0.867  52.543  1.00  0.00     0.071 A 
HETATM   10  C14 UNL     1      22.730   2.172  52.537  1.00  0.00     0.098 A 
HETATM   11  C19 UNL     1      27.367  -1.906  52.979  1.00  0.00     0.150 A 
HETATM   12  C20 UNL     1      28.722  -1.497  53.324  1.00  0.00     0.097 A 
HETATM   13  F1  UNL     1      29.334  -2.749  53.440  1.00  0.00    -0.211 F 
HETATM   14  C21 UNL     1      29.901  -0.843  53.633  1.00  0.00     0.017 A 
HETATM   15  C22 UNL     1      29.612   0.628  53.609  1.00  0.00     0.041 A 
HETATM   16  C23 UNL     1      28.657   1.498  53.386  1.00  0.00     0.098 A 
HETATM   17  N5  UNL     1      27.737   2.417  53.174  1.00  0.00    -0.353 N 
HETATM   18  H26 UNL     1      27.561   3.340  53.142  1.00  0.00     0.166 HD
ENDROOT
BRANCH   1  19
HETATM   19  N2  UNL     1      23.276   4.670  52.671  1.00  0.00    -0.321 N 
HETATM   20  C6  UNL     1      23.398   5.330  51.431  1.00  0.00     0.245 C 
HETATM   21  O1  UNL     1      23.733   4.807  50.343  1.00  0.00    -0.268 OA
HETATM   22  H11 UNL     1      22.970   5.336  53.408  1.00  0.00     0.169 HD
BRANCH  20  23
HETATM   23  C5  UNL     1      23.183   6.723  51.108  1.00  0.00     0.072 C 
HETATM   24  C4  UNL     1      22.164   7.023  50.348  1.00  0.00    -0.002 C 
BRANCH  24  25
HETATM   25  C3  UNL     1      21.599   8.272  49.792  1.00  0.00     0.143 C 
BRANCH  25  26
HETATM   26  N1  UNL     1      20.216   8.153  49.558  1.00  0.00    -0.418 N 
HETATM   27  C1  UNL     1      19.641   6.869  49.418  1.00  0.00     0.142 C 
HETATM   28  C2  UNL     1      19.380   9.211  50.007  1.00  0.00     0.142 C 
ENDBRANCH  25  26
ENDBRANCH  24  25
ENDBRANCH  20  23
ENDBRANCH   1  19
BRANCH  10  29
HETATM   29  O2  UNL     1      21.417   2.490  52.413  1.00  0.00    -0.341 OA
BRANCH  29  30
HETATM   30  C15 UNL     1      20.616   2.156  51.342  1.00  0.00     0.154 C 
HETATM   31  C16 UNL     1      20.558   3.221  50.226  1.00  0.00     0.061 C 
HETATM   32  C17 UNL     1      19.308   2.715  49.519  1.00  0.00     0.170 C 
HETATM   33  O3  UNL     1      18.545   2.042  50.450  1.00  0.00    -0.389 OA
HETATM   34  C18 UNL     1      19.132   2.163  51.698  1.00  0.00     0.200 C 
ENDBRANCH  29  30
ENDBRANCH  10  29
TORSDOF 6
ENDMDL
MODEL 4
REMARK VINA RESULT:      -8.8      4.135      8.657
REMARK  6 active torsions:
REMARK  status: ('A' for Active; 'I' for Inactive)
REMARK    1  A    between atoms: N1_2  and  C3_4 
REMARK    2  A    between atoms: C3_4  and  C4_5 
REMARK    3  A    between atoms: C5_6  and  C6_7 
REMARK       I    between atoms: C6_7  and  N2_9 
REMARK    4  A    between atoms: N2_9  and  C7_10 
REMARK    5  A    between atoms: C14_19  and  O2_20 
REMARK    6  A    between atoms: O2_20  and  C15_21 
ROOT
HETATM    1  C7  UNL     1      22.698   1.055  52.564  1.00  0.00     0.069 A 
HETATM    2  C8  UNL     1      23.705   0.091  52.670  1.00  0.00     0.050 A 
HETATM    3  C9  UNL     1      24.934   0.610  52.964  1.00  0.00     0.041 A 
HETATM    4  C10 UNL     1      25.986  -0.233  53.072  1.00  0.00     0.142 A 
HETATM    5  N3  UNL     1      27.118   0.364  53.352  1.00  0.00    -0.215 NA
HETATM    6  C11 UNL     1      27.587   1.492  53.561  1.00  0.00     0.135 A 
HETATM    7  N4  UNL     1      26.559   2.307  53.452  1.00  0.00    -0.232 NA
HETATM    8  C12 UNL     1      25.296   1.944  53.172  1.00  0.00     0.075 A 
HETATM    9  C13 UNL     1      24.256   2.876  53.058  1.00  0.00     0.071 A 
HETATM   10  C14 UNL     1      23.002   2.407  52.759  1.00  0.00     0.098 A 
HETATM   11  C19 UNL     1      28.999   1.268  53.789  1.00  0.00     0.150 A 
HETATM   12  C20 UNL     1      29.578  -0.053  53.585  1.00  0.00     0.097 A 
HETATM   13  F1  UNL     1      30.929   0.236  53.797  1.00  0.00    -0.211 F 
HETATM   14  C21 UNL     1      29.855  -1.387  53.344  1.00  0.00     0.017 A 
HETATM   15  C22 UNL     1      28.551  -2.066  53.053  1.00  0.00     0.041 A 
HETATM   16  C23 UNL     1      27.261  -1.849  52.963  1.00  0.00     0.098 A 
HETATM   17  N5  UNL     1      25.958  -1.690  52.859  1.00  0.00    -0.353 N 
HETATM   18  H26 UNL     1      25.138  -2.120  52.693  1.00  0.00     0.166 HD
ENDROOT
BRANCH   1  19
HETATM   19  N2  UNL     1      21.448   0.436  52.251  1.00  0.00    -0.321 N 
HETATM   20  C6  UNL     1      20.666   0.044  53.357  1.00  0.00     0.245 C 
HETATM   21  O1  UNL     1      20.962   0.200  54.565  1.00  0.00    -0.268 OA
HETATM   22  H11 UNL     1      20.962   0.201  51.363  1.00  0.00     0.169 HD
BRANCH  20  23
HETATM   23  C5  UNL     1      19.380  -0.615  53.384  1.00  0.00     0.072 C 
HETATM   24  C4  UNL     1      18.554  -0.383  52.400  1.00  0.00    -0.002 C 
BRANCH  24  25
HETATM   25  C3  UNL     1      17.189  -0.830  52.046  1.00  0.00     0.143 C 
BRANCH  25  26
HETATM   26  N1  UNL     1      16.569   0.066  51.153  1.00  0.00    -0.418 N 
HETATM   27  C1  UNL     1      16.229   1.365  51.594  1.00  0.00     0.142 C 
HETATM   28  C2  UNL     1      16.797  -0.127  49.764  1.00  0.00     0.142 C 
ENDBRANCH  25  26
ENDBRANCH  24  25
ENDBRANCH  20  23
ENDBRANCH   1  19
BRANCH  10  29
HETATM   29  O2  UNL     1      21.944   3.246  52.621  1.00  0.00    -0.341 OA
BRANCH  29  30
HETATM   30  C15 UNL     1      21.655   3.982  51.491  1.00  0.00     0.154 C 
HETATM   31  C16 UNL     1      21.959   5.490  51.612  1.00  0.00     0.061 C 
HETATM   32  C17 UNL     1      21.130   5.966  50.428  1.00  0.00     0.170 C 
HETATM   33  O3  UNL     1      20.116   5.052  50.234  1.00  0.00    -0.389 OA
HETATM   34  C18 UNL     1      20.155   4.103  51.241  1.00  0.00     0.200 C 
ENDBRANCH  29  30
ENDBRANCH  10  29
TORSDOF 6
ENDMDL
MODEL 5
REMARK VINA RESULT:      -8.8      3.529      6.824
REMARK  6 active torsions:
REMARK  status: ('A' for Active; 'I' for Inactive)
REMARK    1  A    between atoms: N1_2  and  C3_4 
REMARK    2  A    between atoms: C3_4  and  C4_5 
REMARK    3  A    between atoms: C5_6  and  C6_7 
REMARK       I    between atoms: C6_7  and  N2_9 
REMARK    4  A    between atoms: N2_9  and  C7_10 
REMARK    5  A    between atoms: C14_19  and  O2_20 
REMARK    6  A    between atoms: O2_20  and  C15_21 
ROOT
HETATM    1  C7  UNL     1      23.298   2.782  52.708  1.00  0.00     0.069 A 
HETATM    2  C8  UNL     1      24.689   2.759  52.845  1.00  0.00     0.050 A 
HETATM    3  C9  UNL     1      25.217   1.500  52.869  1.00  0.00     0.041 A 
HETATM    4  C10 UNL     1      26.554   1.359  53.017  1.00  0.00     0.142 A 
HETATM    5  N3  UNL     1      26.959   0.113  53.032  1.00  0.00    -0.215 NA
HETATM    6  C11 UNL     1      26.520  -1.045  52.956  1.00  0.00     0.135 A 
HETATM    7  N4  UNL     1      25.219  -0.900  52.815  1.00  0.00    -0.232 NA
HETATM    8  C12 UNL     1      24.559   0.270  52.770  1.00  0.00     0.075 A 
HETATM    9  C13 UNL     1      23.167   0.340  52.631  1.00  0.00     0.071 A 
HETATM   10  C14 UNL     1      22.585   1.582  52.606  1.00  0.00     0.098 A 
HETATM   11  C19 UNL     1      27.688  -1.890  53.082  1.00  0.00     0.150 A 
HETATM   12  C20 UNL     1      28.984  -1.313  53.410  1.00  0.00     0.097 A 
HETATM   13  F1  UNL     1      29.746  -2.478  53.542  1.00  0.00    -0.211 F 
HETATM   14  C21 UNL     1      30.076  -0.514  53.700  1.00  0.00     0.017 A 
HETATM   15  C22 UNL     1      29.609   0.910  53.653  1.00  0.00     0.041 A 
HETATM   16  C23 UNL     1      28.554   1.653  53.423  1.00  0.00     0.098 A 
HETATM   17  N5  UNL     1      27.527   2.449  53.202  1.00  0.00    -0.353 N 
HETATM   18  H26 UNL     1      27.239   3.342  53.157  1.00  0.00     0.166 HD
ENDROOT
BRANCH   1  19
HETATM   19  N2  UNL     1      22.822   4.130  52.695  1.00  0.00    -0.321 N 
HETATM   20  C6  UNL     1      22.651   4.706  51.420  1.00  0.00     0.245 C 
HETATM   21  O1  UNL     1      22.864   4.146  50.319  1.00  0.00    -0.268 OA
HETATM   22  H11 UNL     1      22.561   4.810  53.437  1.00  0.00     0.169 HD
BRANCH  20  23
HETATM   23  C5  UNL     1      22.210   6.037  51.065  1.00  0.00     0.072 C 
HETATM   24  C4  UNL     1      23.090   6.855  50.551  1.00  0.00    -0.002 C 
BRANCH  24  25
HETATM   25  C3  UNL     1      23.069   8.252  50.067  1.00  0.00     0.143 C 
BRANCH  25  26
HETATM   26  N1  UNL     1      24.284   8.602  49.448  1.00  0.00    -0.418 N 
HETATM   27  C1  UNL     1      25.506   8.222  50.048  1.00  0.00     0.142 C 
HETATM   28  C2  UNL     1      24.270   8.810  48.042  1.00  0.00     0.142 C 
ENDBRANCH  25  26
ENDBRANCH  24  25
ENDBRANCH  20  23
ENDBRANCH   1  19
BRANCH  10  29
HETATM   29  O2  UNL     1      21.242   1.735  52.487  1.00  0.00    -0.341 OA
BRANCH  29  30
HETATM   30  C15 UNL     1      20.365   0.760  52.061  1.00  0.00     0.154 C 
HETATM   31  C16 UNL     1      19.103   1.296  51.353  1.00  0.00     0.061 C 
HETATM   32  C17 UNL     1      18.254   0.037  51.457  1.00  0.00     0.170 C 
HETATM   33  O3  UNL     1      18.693  -0.672  52.556  1.00  0.00    -0.389 OA
HETATM   34  C18 UNL     1      19.660   0.063  53.220  1.00  0.00     0.200 C 
ENDBRANCH  29  30
ENDBRANCH  10  29
TORSDOF 6
ENDMDL
MODEL 6
REMARK VINA RESULT:      -8.8      3.273      8.066
REMARK  6 active torsions:
REMARK  status: ('A' for Active; 'I' for Inactive)
REMARK    1  A    between atoms: N1_2  and  C3_4 
REMARK    2  A    between atoms: C3_4  and  C4_5 
REMARK    3  A    between atoms: C5_6  and  C6_7 
REMARK       I    between atoms: C6_7  and  N2_9 
REMARK    4  A    between atoms: N2_9  and  C7_10 
REMARK    5  A    between atoms: C14_19  and  O2_20 
REMARK    6  A    between atoms: O2_20  and  C15_21 
ROOT
HETATM    1  C7  UNL     1      24.416   1.790  52.500  1.00  0.00     0.069 A 
HETATM    2  C8  UNL     1      24.111   3.071  52.031  1.00  0.00     0.050 A 
HETATM    3  C9  UNL     1      25.013   3.554  51.127  1.00  0.00     0.041 A 
HETATM    4  C10 UNL     1      24.825   4.795  50.621  1.00  0.00     0.142 A 
HETATM    5  N3  UNL     1      25.746   5.165  49.766  1.00  0.00    -0.215 NA
HETATM    6  C11 UNL     1      26.787   4.754  49.232  1.00  0.00     0.135 A 
HETATM    7  N4  UNL     1      26.965   3.548  49.730  1.00  0.00    -0.232 NA
HETATM    8  C12 UNL     1      26.164   2.941  50.622  1.00  0.00     0.075 A 
HETATM    9  C13 UNL     1      26.430   1.658  51.117  1.00  0.00     0.071 A 
HETATM   10  C14 UNL     1      25.557   1.128  52.033  1.00  0.00     0.098 A 
HETATM   11  C19 UNL     1      27.218   5.842  48.379  1.00  0.00     0.150 A 
HETATM   12  C20 UNL     1      26.537   7.128  48.426  1.00  0.00     0.097 A 
HETATM   13  F1  UNL     1      27.349   7.867  47.559  1.00  0.00    -0.211 F 
HETATM   14  C21 UNL     1      25.713   8.216  48.652  1.00  0.00     0.017 A 
HETATM   15  C22 UNL     1      24.647   7.775  49.609  1.00  0.00     0.041 A 
HETATM   16  C23 UNL     1      24.218   6.736  50.283  1.00  0.00     0.098 A 
HETATM   17  N5  UNL     1      23.743   5.726  50.983  1.00  0.00    -0.353 N 
HETATM   18  H26 UNL     1      23.064   5.445  51.570  1.00  0.00     0.166 HD
ENDROOT
BRANCH   1  19
HETATM   19  N2  UNL     1      23.432   1.358  53.443  1.00  0.00    -0.321 N 
HETATM   20  C6  UNL     1      22.369   0.598  52.912  1.00  0.00     0.245 C 
HETATM   21  O1  UNL     1      22.223   0.266  51.713  1.00  0.00    -0.268 OA
HETATM   22  H11 UNL     1      23.315   1.477  54.469  1.00  0.00     0.169 HD
BRANCH  20  23
HETATM   23  C5  UNL     1      21.219   0.035  53.583  1.00  0.00     0.072 C 
HETATM   24  C4  UNL     1      20.142  -0.176  52.875  1.00  0.00    -0.002 C 
BRANCH  24  25
HETATM   25  C3  UNL     1      18.792  -0.714  53.151  1.00  0.00     0.143 C 
BRANCH  25  26
HETATM   26  N1  UNL     1      17.969  -0.652  52.010  1.00  0.00    -0.418 N 
HETATM   27  C1  UNL     1      16.589  -0.932  52.131  1.00  0.00     0.142 C 
HETATM   28  C2  UNL     1      18.386   0.191  50.944  1.00  0.00     0.142 C 
ENDBRANCH  25  26
ENDBRANCH  24  25
ENDBRANCH  20  23
ENDBRANCH   1  19
BRANCH  10  29
HETATM   29  O2  UNL     1      25.750  -0.104  52.569  1.00  0.00    -0.341 OA
BRANCH  29  30
HETATM   30  C15 UNL     1      26.646  -0.403  53.573  1.00  0.00     0.154 C 
HETATM   31  C16 UNL     1      27.285   0.827  54.251  1.00  0.00     0.061 C 
HETATM   32  C17 UNL     1      28.457   0.116  54.914  1.00  0.00     0.170 C 
HETATM   33  O3  UNL     1      28.737  -1.010  54.168  1.00  0.00    -0.389 OA
HETATM   34  C18 UNL     1      27.933  -1.025  53.041  1.00  0.00     0.200 C 
ENDBRANCH  29  30
ENDBRANCH  10  29
TORSDOF 6
ENDMDL
MODEL 7
REMARK VINA RESULT:      -8.5      4.036      9.133
REMARK  6 active torsions:
REMARK  status: ('A' for Active; 'I' for Inactive)
REMARK    1  A    between atoms: N1_2  and  C3_4 
REMARK    2  A    between atoms: C3_4  and  C4_5 
REMARK    3  A    between atoms: C5_6  and  C6_7 
REMARK       I    between atoms: C6_7  and  N2_9 
REMARK    4  A    between atoms: N2_9  and  C7_10 
REMARK    5  A    between atoms: C14_19  and  O2_20 
REMARK    6  A    between atoms: O2_20  and  C15_21 
ROOT
HETATM    1  C7  UNL     1      24.773   3.175  50.192  1.00  0.00     0.069 A 
HETATM    2  C8  UNL     1      25.935   3.878  49.859  1.00  0.00     0.050 A 
HETATM    3  C9  UNL     1      25.702   5.019  49.147  1.00  0.00     0.041 A 
HETATM    4  C10 UNL     1      26.758   5.767  48.755  1.00  0.00     0.142 A 
HETATM    5  N3  UNL     1      26.428   6.838  48.076  1.00  0.00    -0.215 NA
HETATM    6  C11 UNL     1      25.432   7.435  47.641  1.00  0.00     0.135 A 
HETATM    7  N4  UNL     1      24.408   6.700  48.024  1.00  0.00    -0.232 NA
HETATM    8  C12 UNL     1      24.482   5.559  48.730  1.00  0.00     0.075 A 
HETATM    9  C13 UNL     1      23.343   4.825  49.087  1.00  0.00     0.071 A 
HETATM   10  C14 UNL     1      23.523   3.666  49.799  1.00  0.00     0.098 A 
HETATM   11  C19 UNL     1      25.967   8.589  46.950  1.00  0.00     0.150 A 
HETATM   12  C20 UNL     1      27.403   8.733  46.759  1.00  0.00     0.097 A 
HETATM   13  F1  UNL     1      27.431   9.884  45.965  1.00  0.00    -0.211 F 
HETATM   14  C21 UNL     1      28.783   8.633  46.739  1.00  0.00     0.017 A 
HETATM   15  C22 UNL     1      29.151   7.422  47.542  1.00  0.00     0.041 A 
HETATM   16  C23 UNL     1      28.638   6.450  48.256  1.00  0.00     0.098 A 
HETATM   17  N5  UNL     1      28.179   5.453  48.985  1.00  0.00    -0.353 N 
HETATM   18  H26 UNL     1      28.412   4.704  49.502  1.00  0.00     0.166 HD
ENDROOT
BRANCH   1  19
HETATM   19  N2  UNL     1      25.099   1.995  50.930  1.00  0.00    -0.321 N 
HETATM   20  C6  UNL     1      25.076   2.125  52.334  1.00  0.00     0.245 C 
HETATM   21  O1  UNL     1      24.787   3.161  52.977  1.00  0.00    -0.268 OA
HETATM   22  H11 UNL     1      25.358   1.025  50.661  1.00  0.00     0.169 HD
BRANCH  20  23
HETATM   23  C5  UNL     1      25.371   1.142  53.352  1.00  0.00     0.072 C 
HETATM   24  C4  UNL     1      26.605   1.050  53.772  1.00  0.00    -0.002 C 
BRANCH  24  25
HETATM   25  C3  UNL     1      27.318   0.212  54.761  1.00  0.00     0.143 C 
BRANCH  25  26
HETATM   26  N1  UNL     1      28.708   0.223  54.539  1.00  0.00    -0.418 N 
HETATM   27  C1  UNL     1      29.320  -0.879  53.900  1.00  0.00     0.142 C 
HETATM   28  C2  UNL     1      29.348   1.489  54.439  1.00  0.00     0.142 C 
ENDBRANCH  25  26
ENDBRANCH  24  25
ENDBRANCH  20  23
ENDBRANCH   1  19
BRANCH  10  29
HETATM   29  O2  UNL     1      22.473   2.892  50.174  1.00  0.00    -0.341 OA
BRANCH  29  30
HETATM   30  C15 UNL     1      21.737   3.054  51.329  1.00  0.00     0.154 C 
HETATM   31  C16 UNL     1      21.354   1.737  52.036  1.00  0.00     0.061 C 
HETATM   32  C17 UNL     1      20.247   2.291  52.923  1.00  0.00     0.170 C 
HETATM   33  O3  UNL     1      19.729   3.405  52.297  1.00  0.00    -0.389 OA
HETATM   34  C18 UNL     1      20.321   3.550  51.053  1.00  0.00     0.200 C 
ENDBRANCH  29  30
ENDBRANCH  10  29
TORSDOF 6
ENDMDL
MODEL 8
REMARK VINA RESULT:      -8.2      4.113      8.800
REMARK  6 active torsions:
REMARK  status: ('A' for Active; 'I' for Inactive)
REMARK    1  A    between atoms: N1_2  and  C3_4 
REMARK    2  A    between atoms: C3_4  and  C4_5 
REMARK    3  A    between atoms: C5_6  and  C6_7 
REMARK       I    between atoms: C6_7  and  N2_9 
REMARK    4  A    between atoms: N2_9  and  C7_10 
REMARK    5  A    between atoms: C14_19  and  O2_20 
REMARK    6  A    between atoms: O2_20  and  C15_21 
ROOT
HETATM    1  C7  UNL     1      20.051   0.797  52.043  1.00  0.00     0.069 A 
HETATM    2  C8  UNL     1      21.337   1.202  51.670  1.00  0.00     0.050 A 
HETATM    3  C9  UNL     1      22.329   0.644  52.425  1.00  0.00     0.041 A 
HETATM    4  C10 UNL     1      23.612   0.981  52.162  1.00  0.00     0.142 A 
HETATM    5  N3  UNL     1      24.485   0.396  52.943  1.00  0.00    -0.215 NA
HETATM    6  C11 UNL     1      24.550  -0.400  53.892  1.00  0.00     0.135 A 
HETATM    7  N4  UNL     1      23.298  -0.722  54.144  1.00  0.00    -0.232 NA
HETATM    8  C12 UNL     1      22.221  -0.259  53.487  1.00  0.00     0.075 A 
HETATM    9  C13 UNL     1      20.916  -0.639  53.825  1.00  0.00     0.071 A 
HETATM   10  C14 UNL     1      19.881  -0.103  53.101  1.00  0.00     0.098 A 
HETATM   11  C19 UNL     1      25.963  -0.507  54.188  1.00  0.00     0.150 A 
HETATM   12  C20 UNL     1      26.923   0.361  53.522  1.00  0.00     0.097 A 
HETATM   13  F1  UNL     1      28.094  -0.006  54.193  1.00  0.00    -0.211 F 
HETATM   14  C21 UNL     1      27.606   1.276  52.740  1.00  0.00     0.017 A 
HETATM   15  C22 UNL     1      26.603   1.920  51.831  1.00  0.00     0.041 A 
HETATM   16  C23 UNL     1      25.332   1.911  51.510  1.00  0.00     0.098 A 
HETATM   17  N5  UNL     1      24.067   1.945  51.146  1.00  0.00    -0.353 N 
HETATM   18  H26 UNL     1      23.441   2.338  50.564  1.00  0.00     0.166 HD
ENDROOT
BRANCH   1  19
HETATM   19  N2  UNL     1      19.071   1.425  51.212  1.00  0.00    -0.321 N 
HETATM   20  C6  UNL     1      18.764   2.763  51.534  1.00  0.00     0.245 C 
HETATM   21  O1  UNL     1      19.274   3.439  52.459  1.00  0.00    -0.268 OA
HETATM   22  H11 UNL     1      18.513   1.112  50.394  1.00  0.00     0.169 HD
BRANCH  20  23
HETATM   23  C5  UNL     1      17.818   3.662  50.913  1.00  0.00     0.072 C 
HETATM   24  C4  UNL     1      16.555   3.525  51.217  1.00  0.00    -0.002 C 
BRANCH  24  25
HETATM   25  C3  UNL     1      15.300   4.204  50.827  1.00  0.00     0.143 C 
BRANCH  25  26
HETATM   26  N1  UNL     1      14.184   3.636  51.472  1.00  0.00    -0.418 N 
HETATM   27  C1  UNL     1      13.778   2.325  51.136  1.00  0.00     0.142 C 
HETATM   28  C2  UNL     1      13.854   4.124  52.765  1.00  0.00     0.142 C 
ENDBRANCH  25  26
ENDBRANCH  24  25
ENDBRANCH  20  23
ENDBRANCH   1  19
BRANCH  10  29
HETATM   29  O2  UNL     1      18.588  -0.411  53.374  1.00  0.00    -0.341 OA
BRANCH  29  30
HETATM   30  C15 UNL     1      17.888  -1.462  52.820  1.00  0.00     0.154 C 
HETATM   31  C16 UNL     1      16.375  -1.206  52.648  1.00  0.00     0.061 C 
HETATM   32  C17 UNL     1      15.938  -2.653  52.464  1.00  0.00     0.170 C 
HETATM   33  O3  UNL     1      16.862  -3.452  53.105  1.00  0.00    -0.389 OA
HETATM   34  C18 UNL     1      17.779  -2.654  53.766  1.00  0.00     0.200 C 
ENDBRANCH  29  30
ENDBRANCH  10  29
TORSDOF 6
ENDMDL
MODEL 9
REMARK VINA RESULT:      -8.1      2.235      5.373
REMARK  6 active torsions:
REMARK  status: ('A' for Active; 'I' for Inactive)
REMARK    1  A    between atoms: N1_2  and  C3_4 
REMARK    2  A    between atoms: C3_4  and  C4_5 
REMARK    3  A    between atoms: C5_6  and  C6_7 
REMARK       I    between atoms: C6_7  and  N2_9 
REMARK    4  A    between atoms: N2_9  and  C7_10 
REMARK    5  A    between atoms: C14_19  and  O2_20 
REMARK    6  A    between atoms: O2_20  and  C15_21 
ROOT
HETATM    1  C7  UNL     1      23.530   3.084  52.638  1.00  0.00     0.069 A 
HETATM    2  C8  UNL     1      22.697   2.004  52.947  1.00  0.00     0.050 A 
HETATM    3  C9  UNL     1      21.530   1.991  52.238  1.00  0.00     0.041 A 
HETATM    4  C10 UNL     1      20.641   0.999  52.470  1.00  0.00     0.142 A 
HETATM    5  N3  UNL     1      19.554   1.079  51.743  1.00  0.00    -0.215 NA
HETATM    6  C11 UNL     1      19.027   1.785  50.871  1.00  0.00     0.135 A 
HETATM    7  N4  UNL     1      19.897   2.750  50.651  1.00  0.00    -0.232 NA
HETATM    8  C12 UNL     1      21.083   2.892  51.267  1.00  0.00     0.075 A 
HETATM    9  C13 UNL     1      21.949   3.957  50.987  1.00  0.00     0.071 A 
HETATM   10  C14 UNL     1      23.134   4.020  51.676  1.00  0.00     0.098 A 
HETATM   11  C19 UNL     1      17.752   1.154  50.606  1.00  0.00     0.150 A 
HETATM   12  C20 UNL     1      17.294   0.043  51.429  1.00  0.00     0.097 A 
HETATM   13  F1  UNL     1      16.014  -0.145  50.899  1.00  0.00    -0.211 F 
HETATM   14  C21 UNL     1      17.118  -0.988  52.334  1.00  0.00     0.017 A 
HETATM   15  C22 UNL     1      18.377  -1.090  53.142  1.00  0.00     0.041 A 
HETATM   16  C23 UNL     1      19.570  -0.566  53.281  1.00  0.00     0.098 A 
HETATM   17  N5  UNL     1      20.780  -0.078  53.465  1.00  0.00    -0.353 N 
HETATM   18  H26 UNL     1      21.575  -0.153  53.961  1.00  0.00     0.166 HD
ENDROOT
BRANCH   1  19
HETATM   19  N2  UNL     1      24.725   3.031  53.422  1.00  0.00    -0.321 N 
HETATM   20  C6  UNL     1      25.765   2.237  52.897  1.00  0.00     0.245 C 
HETATM   21  O1  UNL     1      25.737   1.597  51.819  1.00  0.00    -0.268 OA
HETATM   22  H11 UNL     1      25.016   3.460  54.323  1.00  0.00     0.169 HD
BRANCH  20  23
HETATM   23  C5  UNL     1      27.074   1.961  53.444  1.00  0.00     0.072 C 
HETATM   24  C4  UNL     1      27.287   0.775  53.950  1.00  0.00    -0.002 C 
BRANCH  24  25
HETATM   25  C3  UNL     1      28.435   0.097  54.591  1.00  0.00     0.143 C 
BRANCH  25  26
HETATM   26  N1  UNL     1      29.012  -0.860  53.734  1.00  0.00    -0.418 N 
HETATM   27  C1  UNL     1      30.328  -1.314  53.983  1.00  0.00     0.142 C 
HETATM   28  C2  UNL     1      28.133  -1.724  53.026  1.00  0.00     0.142 C 
ENDBRANCH  25  26
ENDBRANCH  24  25
ENDBRANCH  20  23
ENDBRANCH   1  19
BRANCH  10  29
HETATM   29  O2  UNL     1      24.022   5.026  51.472  1.00  0.00    -0.341 OA
BRANCH  29  30
HETATM   30  C15 UNL     1      24.622   5.324  50.267  1.00  0.00     0.154 C 
HETATM   31  C16 UNL     1      25.880   4.488  49.952  1.00  0.00     0.061 C 
HETATM   32  C17 UNL     1      26.454   5.379  48.858  1.00  0.00     0.170 C 
HETATM   33  O3  UNL     1      26.003   6.662  49.086  1.00  0.00    -0.389 OA
HETATM   34  C18 UNL     1      25.292   6.695  50.273  1.00  0.00     0.200 C 
ENDBRANCH  29  30
ENDBRANCH  10  29
TORSDOF 6
ENDMDL
