MODEL 1
REMARK VINA RESULT:      -7.2      0.000      0.000
REMARK  6 active torsions:
REMARK  status: ('A' for Active; 'I' for Inactive)
REMARK    1  A    between atoms: O1_2  and  C2_3 
REMARK    2  A    between atoms: C4_5  and  N1_6 
REMARK       I    between atoms: N2_9  and  C7_10 
REMARK    3  A    between atoms: C13_17  and  N3_18 
REMARK    4  A    between atoms: N3_18  and  C14_19 
REMARK    5  A    between atoms: N4_20  and  C15_21 
REMARK    6  A    between atoms: C16_22  and  C17_23 
ROOT
HETATM    1  C2  UNL     1      24.942   2.544  51.565  1.00  0.00     0.097 A 
HETATM    2  C3  UNL     1      23.715   1.921  51.483  1.00  0.00     0.068 A 
HETATM    3  C4  UNL     1      23.396   0.880  52.326  1.00  0.00     0.033 A 
HETATM    4  C11 UNL     1      24.261   0.401  53.285  1.00  0.00     0.032 A 
HETATM    5  C12 UNL     1      25.486   1.037  53.354  1.00  0.00     0.035 A 
HETATM    6  C13 UNL     1      25.849   2.082  52.531  1.00  0.00     0.067 A 
ENDROOT
BRANCH   3   7
HETATM    7  N1  UNL     1      22.105   0.315  52.164  1.00  0.00    -0.378 N 
HETATM    8  C5  UNL     1      21.202   0.576  51.081  1.00  0.00     0.143 C 
HETATM    9  C6  UNL     1      19.803   0.895  51.563  1.00  0.00     0.145 C 
HETATM   10  N2  UNL     1      19.278  -0.051  52.496  1.00  0.00    -0.349 N 
HETATM   11  C7  UNL     1      18.076  -0.792  52.347  1.00  0.00     0.215 C 
HETATM   12  C9  UNL     1      20.192  -0.115  53.617  1.00  0.00     0.145 C 
HETATM   13  C8  UNL     1      17.712  -1.725  53.437  1.00  0.00     0.117 C 
HETATM   14  O2  UNL     1      17.491  -0.526  51.274  1.00  0.00    -0.274 OA
HETATM   15  C10 UNL     1      21.492  -0.636  53.070  1.00  0.00     0.143 C 
ENDBRANCH   3   7
BRANCH   1  16
HETATM   16  O1  UNL     1      25.479   3.592  50.839  1.00  0.00    -0.354 OA
HETATM   17  C1  UNL     1      24.586   4.501  50.229  1.00  0.00     0.210 C 
ENDBRANCH   1  16
BRANCH   6  18
HETATM   18  N3  UNL     1      27.169   2.641  52.716  1.00  0.00    -0.349 N 
HETATM   19  H18 UNL     1      27.308   3.510  52.118  1.00  0.00     0.167 HD
BRANCH  18  20
HETATM   20  C14 UNL     1      28.140   2.053  53.607  1.00  0.00     0.207 C 
HETATM   21  N4  UNL     1      28.788   1.106  52.980  1.00  0.00    -0.256 NA
BRANCH  21  22
HETATM   22  C15 UNL     1      29.786   0.414  53.705  1.00  0.00     0.116 C 
HETATM   23  C16 UNL     1      29.815  -0.899  53.702  1.00  0.00     0.023 C 
BRANCH  23  24
HETATM   24  C17 UNL     1      28.988  -1.953  53.072  1.00  0.00     0.251 C 
HETATM   25  F1  UNL     1      27.643  -1.654  53.128  1.00  0.00    -0.251 F 
ENDBRANCH  23  24
ENDBRANCH  21  22
ENDBRANCH  18  20
ENDBRANCH   6  18
TORSDOF 6
ENDMDL
MODEL 2
REMARK VINA RESULT:      -7.2      3.200      8.640
REMARK  6 active torsions:
REMARK  status: ('A' for Active; 'I' for Inactive)
REMARK    1  A    between atoms: O1_2  and  C2_3 
REMARK    2  A    between atoms: C4_5  and  N1_6 
REMARK       I    between atoms: N2_9  and  C7_10 
REMARK    3  A    between atoms: C13_17  and  N3_18 
REMARK    4  A    between atoms: N3_18  and  C14_19 
REMARK    5  A    between atoms: N4_20  and  C15_21 
REMARK    6  A    between atoms: C16_22  and  C17_23 
ROOT
HETATM    1  C2  UNL     1      20.808   0.910  53.069  1.00  0.00     0.097 A 
HETATM    2  C3  UNL     1      22.185   0.975  53.085  1.00  0.00     0.068 A 
HETATM    3  C4  UNL     1      22.932  -0.045  53.631  1.00  0.00     0.033 A 
HETATM    4  C11 UNL     1      22.367  -1.172  54.187  1.00  0.00     0.032 A 
HETATM    5  C12 UNL     1      20.986  -1.220  54.162  1.00  0.00     0.035 A 
HETATM    6  C13 UNL     1      20.198  -0.223  53.626  1.00  0.00     0.067 A 
ENDROOT
BRANCH   3   7
HETATM    7  N1  UNL     1      24.340   0.116  53.589  1.00  0.00    -0.378 N 
HETATM    8  C5  UNL     1      25.307  -0.774  54.161  1.00  0.00     0.143 C 
HETATM    9  C6  UNL     1      26.347  -0.042  54.983  1.00  0.00     0.145 C 
HETATM   10  N2  UNL     1      26.953   1.061  54.307  1.00  0.00    -0.349 N 
HETATM   11  C7  UNL     1      28.342   1.233  54.068  1.00  0.00     0.215 C 
HETATM   12  C9  UNL     1      25.896   1.969  53.913  1.00  0.00     0.145 C 
HETATM   13  C8  UNL     1      28.762   2.455  53.345  1.00  0.00     0.117 C 
HETATM   14  O2  UNL     1      29.018   0.286  54.527  1.00  0.00    -0.274 OA
HETATM   15  C10 UNL     1      25.033   1.212  52.940  1.00  0.00     0.143 C 
ENDBRANCH   3   7
BRANCH   1  16
HETATM   16  O1  UNL     1      19.863   1.797  52.583  1.00  0.00    -0.354 OA
HETATM   17  C1  UNL     1      20.291   3.099  52.242  1.00  0.00     0.210 C 
ENDBRANCH   1  16
BRANCH   6  18
HETATM   18  N3  UNL     1      18.766  -0.412  53.681  1.00  0.00    -0.349 N 
HETATM   19  H18 UNL     1      18.335   0.138  54.485  1.00  0.00     0.167 HD
BRANCH  18  20
HETATM   20  C14 UNL     1      18.059  -1.252  52.745  1.00  0.00     0.207 C 
HETATM   21  N4  UNL     1      16.824  -1.407  53.146  1.00  0.00    -0.256 NA
BRANCH  21  22
HETATM   22  C15 UNL     1      15.977  -2.207  52.346  1.00  0.00     0.116 C 
HETATM   23  C16 UNL     1      15.834  -3.486  52.608  1.00  0.00     0.023 C 
BRANCH  23  24
HETATM   24  C17 UNL     1      16.387  -4.404  53.630  1.00  0.00     0.251 C 
HETATM   25  F1  UNL     1      17.564  -4.989  53.214  1.00  0.00    -0.251 F 
ENDBRANCH  23  24
ENDBRANCH  21  22
ENDBRANCH  18  20
ENDBRANCH   6  18
TORSDOF 6
ENDMDL
MODEL 3
REMARK VINA RESULT:      -7.2      2.659      8.098
REMARK  6 active torsions:
REMARK  status: ('A' for Active; 'I' for Inactive)
REMARK    1  A    between atoms: O1_2  and  C2_3 
REMARK    2  A    between atoms: C4_5  and  N1_6 
REMARK       I    between atoms: N2_9  and  C7_10 
REMARK    3  A    between atoms: C13_17  and  N3_18 
REMARK    4  A    between atoms: N3_18  and  C14_19 
REMARK    5  A    between atoms: N4_20  and  C15_21 
REMARK    6  A    between atoms: C16_22  and  C17_23 
ROOT
HETATM    1  C2  UNL     1      22.345   1.522  50.931  1.00  0.00     0.097 A 
HETATM    2  C3  UNL     1      23.573   1.475  51.556  1.00  0.00     0.068 A 
HETATM    3  C4  UNL     1      23.777   0.658  52.647  1.00  0.00     0.033 A 
HETATM    4  C11 UNL     1      22.791  -0.148  53.173  1.00  0.00     0.032 A 
HETATM    5  C12 UNL     1      21.567  -0.088  52.534  1.00  0.00     0.035 A 
HETATM    6  C13 UNL     1      21.317   0.715  51.440  1.00  0.00     0.067 A 
ENDROOT
BRANCH   3   7
HETATM    7  N1  UNL     1      25.077   0.678  53.210  1.00  0.00    -0.378 N 
HETATM    8  C5  UNL     1      25.704   1.802  53.843  1.00  0.00     0.143 C 
HETATM    9  C6  UNL     1      27.111   2.038  53.333  1.00  0.00     0.145 C 
HETATM   10  N2  UNL     1      27.938   0.873  53.346  1.00  0.00    -0.349 N 
HETATM   11  C7  UNL     1      29.181   0.739  54.019  1.00  0.00     0.215 C 
HETATM   12  C9  UNL     1      27.280  -0.141  52.549  1.00  0.00     0.145 C 
HETATM   13  C8  UNL     1      29.881  -0.560  53.903  1.00  0.00     0.117 C 
HETATM   14  O2  UNL     1      29.500   1.785  54.627  1.00  0.00    -0.274 OA
HETATM   15  C10 UNL     1      25.986  -0.451  53.250  1.00  0.00     0.143 C 
ENDBRANCH   3   7
BRANCH   1  16
HETATM   16  O1  UNL     1      21.910   2.252  49.839  1.00  0.00    -0.354 OA
HETATM   17  C1  UNL     1      21.832   3.657  49.971  1.00  0.00     0.210 C 
ENDBRANCH   1  16
BRANCH   6  18
HETATM   18  N3  UNL     1      19.983   0.677  50.884  1.00  0.00    -0.349 N 
HETATM   19  H18 UNL     1      20.008   0.721  49.821  1.00  0.00     0.167 HD
BRANCH  18  20
HETATM   20  C14 UNL     1      18.803   0.594  51.709  1.00  0.00     0.207 C 
HETATM   21  N4  UNL     1      18.086  -0.436  51.341  1.00  0.00    -0.256 NA
BRANCH  21  22
HETATM   22  C15 UNL     1      16.883  -0.674  52.044  1.00  0.00     0.116 C 
HETATM   23  C16 UNL     1      16.824  -1.620  52.953  1.00  0.00     0.023 C 
BRANCH  23  24
HETATM   24  C17 UNL     1      17.790  -2.606  53.488  1.00  0.00     0.251 C 
HETATM   25  F1  UNL     1      18.980  -2.014  53.856  1.00  0.00    -0.251 F 
ENDBRANCH  23  24
ENDBRANCH  21  22
ENDBRANCH  18  20
ENDBRANCH   6  18
TORSDOF 6
ENDMDL
MODEL 4
REMARK VINA RESULT:      -7.1      3.185      5.017
REMARK  6 active torsions:
REMARK  status: ('A' for Active; 'I' for Inactive)
REMARK    1  A    between atoms: O1_2  and  C2_3 
REMARK    2  A    between atoms: C4_5  and  N1_6 
REMARK       I    between atoms: N2_9  and  C7_10 
REMARK    3  A    between atoms: C13_17  and  N3_18 
REMARK    4  A    between atoms: N3_18  and  C14_19 
REMARK    5  A    between atoms: N4_20  and  C15_21 
REMARK    6  A    between atoms: C16_22  and  C17_23 
ROOT
HETATM    1  C2  UNL     1      23.158  -0.138  53.009  1.00  0.00     0.097 A 
HETATM    2  C3  UNL     1      22.608   0.582  51.970  1.00  0.00     0.068 A 
HETATM    3  C4  UNL     1      23.349   1.532  51.301  1.00  0.00     0.033 A 
HETATM    4  C11 UNL     1      24.658   1.820  51.619  1.00  0.00     0.032 A 
HETATM    5  C12 UNL     1      25.193   1.089  52.663  1.00  0.00     0.035 A 
HETATM    6  C13 UNL     1      24.490   0.130  53.361  1.00  0.00     0.067 A 
ENDROOT
BRANCH   3   7
HETATM    7  N1  UNL     1      22.691   2.208  50.243  1.00  0.00    -0.378 N 
HETATM    8  C5  UNL     1      21.932   1.593  49.193  1.00  0.00     0.143 C 
HETATM    9  C6  UNL     1      22.317   2.113  47.824  1.00  0.00     0.145 C 
HETATM   10  N2  UNL     1      22.331   3.538  47.725  1.00  0.00    -0.349 N 
HETATM   11  C7  UNL     1      21.579   4.318  46.807  1.00  0.00     0.215 C 
HETATM   12  C9  UNL     1      23.247   4.039  48.727  1.00  0.00     0.145 C 
HETATM   13  C8  UNL     1      21.739   5.788  46.872  1.00  0.00     0.117 C 
HETATM   14  O2  UNL     1      20.873   3.609  46.057  1.00  0.00    -0.274 OA
HETATM   15  C10 UNL     1      22.669   3.646  50.060  1.00  0.00     0.143 C 
ENDBRANCH   3   7
BRANCH   1  16
HETATM   16  O1  UNL     1      22.619  -1.125  53.816  1.00  0.00    -0.354 OA
HETATM   17  C1  UNL     1      21.565  -0.767  54.685  1.00  0.00     0.210 C 
ENDBRANCH   1  16
BRANCH   6  18
HETATM   18  N3  UNL     1      25.182  -0.546  54.435  1.00  0.00    -0.349 N 
HETATM   19  H18 UNL     1      24.696  -1.456  54.695  1.00  0.00     0.167 HD
BRANCH  18  20
HETATM   20  C14 UNL     1      26.374  -0.010  55.045  1.00  0.00     0.207 C 
HETATM   21  N4  UNL     1      27.423  -0.397  54.366  1.00  0.00    -0.256 NA
BRANCH  21  22
HETATM   22  C15 UNL     1      28.688   0.036  54.823  1.00  0.00     0.116 C 
HETATM   23  C16 UNL     1      29.186   1.179  54.410  1.00  0.00     0.023 C 
BRANCH  23  24
HETATM   24  C17 UNL     1      28.717   2.242  53.492  1.00  0.00     0.251 C 
HETATM   25  F1  UNL     1      27.614   2.903  53.990  1.00  0.00    -0.251 F 
ENDBRANCH  23  24
ENDBRANCH  21  22
ENDBRANCH  18  20
ENDBRANCH   6  18
TORSDOF 6
ENDMDL
MODEL 5
REMARK VINA RESULT:      -6.9      3.364      4.956
REMARK  6 active torsions:
REMARK  status: ('A' for Active; 'I' for Inactive)
REMARK    1  A    between atoms: O1_2  and  C2_3 
REMARK    2  A    between atoms: C4_5  and  N1_6 
REMARK       I    between atoms: N2_9  and  C7_10 
REMARK    3  A    between atoms: C13_17  and  N3_18 
REMARK    4  A    between atoms: N3_18  and  C14_19 
REMARK    5  A    between atoms: N4_20  and  C15_21 
REMARK    6  A    between atoms: C16_22  and  C17_23 
ROOT
HETATM    1  C2  UNL     1      22.824   0.233  53.144  1.00  0.00     0.097 A 
HETATM    2  C3  UNL     1      22.095   1.286  52.633  1.00  0.00     0.068 A 
HETATM    3  C4  UNL     1      22.708   2.477  52.312  1.00  0.00     0.033 A 
HETATM    4  C11 UNL     1      24.058   2.693  52.479  1.00  0.00     0.032 A 
HETATM    5  C12 UNL     1      24.773   1.628  52.992  1.00  0.00     0.035 A 
HETATM    6  C13 UNL     1      24.203   0.418  53.327  1.00  0.00     0.067 A 
ENDROOT
BRANCH   3   7
HETATM    7  N1  UNL     1      21.869   3.491  51.785  1.00  0.00    -0.378 N 
HETATM    8  C5  UNL     1      20.709   3.283  50.967  1.00  0.00     0.143 C 
HETATM    9  C6  UNL     1      20.706   4.168  49.738  1.00  0.00     0.145 C 
HETATM   10  N2  UNL     1      20.939   5.550  50.014  1.00  0.00    -0.349 N 
HETATM   11  C7  UNL     1      20.078   6.626  49.674  1.00  0.00     0.215 C 
HETATM   12  C9  UNL     1      22.208   5.652  50.702  1.00  0.00     0.145 C 
HETATM   13  C8  UNL     1      20.509   7.990  50.054  1.00  0.00     0.117 C 
HETATM   14  O2  UNL     1      19.049   6.234  49.079  1.00  0.00    -0.274 OA
HETATM   15  C10 UNL     1      22.043   4.913  52.002  1.00  0.00     0.143 C 
ENDBRANCH   3   7
BRANCH   1  16
HETATM   16  O1  UNL     1      22.436  -1.036  53.534  1.00  0.00    -0.354 OA
HETATM   17  C1  UNL     1      21.534  -1.150  54.615  1.00  0.00     0.210 C 
ENDBRANCH   1  16
BRANCH   6  18
HETATM   18  N3  UNL     1      25.080  -0.599  53.863  1.00  0.00    -0.349 N 
HETATM   19  H18 UNL     1      24.544  -1.285  54.476  1.00  0.00     0.167 HD
BRANCH  18  20
HETATM   20  C14 UNL     1      26.493  -0.633  53.575  1.00  0.00     0.207 C 
HETATM   21  N4  UNL     1      27.158  -0.194  54.612  1.00  0.00    -0.256 NA
BRANCH  21  22
HETATM   22  C15 UNL     1      28.568  -0.156  54.509  1.00  0.00     0.116 C 
HETATM   23  C16 UNL     1      29.175   0.953  54.151  1.00  0.00     0.023 C 
BRANCH  23  24
HETATM   24  C17 UNL     1      28.719   2.313  53.788  1.00  0.00     0.251 C 
HETATM   25  F1  UNL     1      27.968   2.314  52.632  1.00  0.00    -0.251 F 
ENDBRANCH  23  24
ENDBRANCH  21  22
ENDBRANCH  18  20
ENDBRANCH   6  18
TORSDOF 6
ENDMDL
MODEL 6
REMARK VINA RESULT:      -6.8      4.314      5.725
REMARK  6 active torsions:
REMARK  status: ('A' for Active; 'I' for Inactive)
REMARK    1  A    between atoms: O1_2  and  C2_3 
REMARK    2  A    between atoms: C4_5  and  N1_6 
REMARK       I    between atoms: N2_9  and  C7_10 
REMARK    3  A    between atoms: C13_17  and  N3_18 
REMARK    4  A    between atoms: N3_18  and  C14_19 
REMARK    5  A    between atoms: N4_20  and  C15_21 
REMARK    6  A    between atoms: C16_22  and  C17_23 
ROOT
HETATM    1  C2  UNL     1      24.850   4.802  50.455  1.00  0.00     0.097 A 
HETATM    2  C3  UNL     1      24.315   3.910  51.360  1.00  0.00     0.068 A 
HETATM    3  C4  UNL     1      24.924   2.697  51.597  1.00  0.00     0.033 A 
HETATM    4  C11 UNL     1      26.080   2.303  50.960  1.00  0.00     0.032 A 
HETATM    5  C12 UNL     1      26.602   3.210  50.057  1.00  0.00     0.035 A 
HETATM    6  C13 UNL     1      26.027   4.434  49.787  1.00  0.00     0.067 A 
ENDROOT
BRANCH   3   7
HETATM    7  N1  UNL     1      24.298   1.858  52.552  1.00  0.00    -0.378 N 
HETATM    8  C5  UNL     1      24.957   1.147  53.609  1.00  0.00     0.143 C 
HETATM    9  C6  UNL     1      24.534  -0.305  53.676  1.00  0.00     0.145 C 
HETATM   10  N2  UNL     1      23.119  -0.501  53.686  1.00  0.00    -0.349 N 
HETATM   11  C7  UNL     1      22.378  -1.185  54.685  1.00  0.00     0.215 C 
HETATM   12  C9  UNL     1      22.581   0.123  52.495  1.00  0.00     0.145 C 
HETATM   13  C8  UNL     1      20.911  -1.274  54.504  1.00  0.00     0.117 C 
HETATM   14  O2  UNL     1      23.113  -1.623  55.597  1.00  0.00    -0.274 OA
HETATM   15  C10 UNL     1      22.874   1.593  52.623  1.00  0.00     0.143 C 
ENDBRANCH   3   7
BRANCH   1  16
HETATM   16  O1  UNL     1      24.423   6.057  50.057  1.00  0.00    -0.354 OA
HETATM   17  C1  UNL     1      23.967   6.948  51.054  1.00  0.00     0.210 C 
ENDBRANCH   1  16
BRANCH   6  18
HETATM   18  N3  UNL     1      26.685   5.271  48.810  1.00  0.00    -0.349 N 
HETATM   19  H18 UNL     1      26.007   5.973  48.384  1.00  0.00     0.167 HD
BRANCH  18  20
HETATM   20  C14 UNL     1      28.083   5.130  48.485  1.00  0.00     0.207 C 
HETATM   21  N4  UNL     1      28.569   6.293  48.136  1.00  0.00    -0.256 NA
BRANCH  21  22
HETATM   22  C15 UNL     1      29.936   6.345  47.780  1.00  0.00     0.116 C 
HETATM   23  C16 UNL     1      30.700   7.314  48.230  1.00  0.00     0.023 C 
BRANCH  23  24
HETATM   24  C17 UNL     1      30.479   8.489  49.103  1.00  0.00     0.251 C 
HETATM   25  F1  UNL     1      31.577   8.760  49.891  1.00  0.00    -0.251 F 
ENDBRANCH  23  24
ENDBRANCH  21  22
ENDBRANCH  18  20
ENDBRANCH   6  18
TORSDOF 6
ENDMDL
MODEL 7
REMARK VINA RESULT:      -6.7      3.617      8.788
REMARK  6 active torsions:
REMARK  status: ('A' for Active; 'I' for Inactive)
REMARK    1  A    between atoms: O1_2  and  C2_3 
REMARK    2  A    between atoms: C4_5  and  N1_6 
REMARK       I    between atoms: N2_9  and  C7_10 
REMARK    3  A    between atoms: C13_17  and  N3_18 
REMARK    4  A    between atoms: N3_18  and  C14_19 
REMARK    5  A    between atoms: N4_20  and  C15_21 
REMARK    6  A    between atoms: C16_22  and  C17_23 
ROOT
HETATM    1  C2  UNL     1      21.842   1.776  51.948  1.00  0.00     0.097 A 
HETATM    2  C3  UNL     1      23.130   1.718  52.435  1.00  0.00     0.068 A 
HETATM    3  C4  UNL     1      23.598   0.581  53.057  1.00  0.00     0.033 A 
HETATM    4  C11 UNL     1      22.827  -0.548  53.229  1.00  0.00     0.032 A 
HETATM    5  C12 UNL     1      21.539  -0.472  52.735  1.00  0.00     0.035 A 
HETATM    6  C13 UNL     1      21.028   0.644  52.107  1.00  0.00     0.067 A 
ENDROOT
BRANCH   3   7
HETATM    7  N1  UNL     1      24.939   0.623  53.513  1.00  0.00    -0.378 N 
HETATM    8  C5  UNL     1      25.601   1.763  54.078  1.00  0.00     0.143 C 
HETATM    9  C6  UNL     1      26.959   2.006  53.454  1.00  0.00     0.145 C 
HETATM   10  N2  UNL     1      27.799   0.851  53.416  1.00  0.00    -0.349 N 
HETATM   11  C7  UNL     1      29.093   0.740  53.988  1.00  0.00     0.215 C 
HETATM   12  C9  UNL     1      27.091  -0.182  52.688  1.00  0.00     0.145 C 
HETATM   13  C8  UNL     1      29.797  -0.553  53.835  1.00  0.00     0.117 C 
HETATM   14  O2  UNL     1      29.448   1.797  54.554  1.00  0.00    -0.274 OA
HETATM   15  C10 UNL     1      25.861  -0.496  53.495  1.00  0.00     0.143 C 
ENDBRANCH   3   7
BRANCH   1  16
HETATM   16  O1  UNL     1      21.161   2.791  51.299  1.00  0.00    -0.354 OA
HETATM   17  C1  UNL     1      21.487   4.125  51.632  1.00  0.00     0.210 C 
ENDBRANCH   1  16
BRANCH   6  18
HETATM   18  N3  UNL     1      19.658   0.576  51.650  1.00  0.00    -0.349 N 
HETATM   19  H18 UNL     1      19.512   1.171  50.779  1.00  0.00     0.167 HD
BRANCH  18  20
HETATM   20  C14 UNL     1      18.655  -0.208  52.327  1.00  0.00     0.207 C 
HETATM   21  N4  UNL     1      17.468   0.152  51.913  1.00  0.00    -0.256 NA
BRANCH  21  22
HETATM   22  C15 UNL     1      16.355  -0.515  52.474  1.00  0.00     0.116 C 
HETATM   23  C16 UNL     1      15.210   0.113  52.617  1.00  0.00     0.023 C 
BRANCH  23  24
HETATM   24  C17 UNL     1      14.733   1.481  52.313  1.00  0.00     0.251 C 
HETATM   25  F1  UNL     1      14.421   2.184  53.457  1.00  0.00    -0.251 F 
ENDBRANCH  23  24
ENDBRANCH  21  22
ENDBRANCH  18  20
ENDBRANCH   6  18
TORSDOF 6
ENDMDL
MODEL 8
REMARK VINA RESULT:      -6.7      3.006      8.238
REMARK  6 active torsions:
REMARK  status: ('A' for Active; 'I' for Inactive)
REMARK    1  A    between atoms: O1_2  and  C2_3 
REMARK    2  A    between atoms: C4_5  and  N1_6 
REMARK       I    between atoms: N2_9  and  C7_10 
REMARK    3  A    between atoms: C13_17  and  N3_18 
REMARK    4  A    between atoms: N3_18  and  C14_19 
REMARK    5  A    between atoms: N4_20  and  C15_21 
REMARK    6  A    between atoms: C16_22  and  C17_23 
ROOT
HETATM    1  C2  UNL     1      21.410   0.072  52.850  1.00  0.00     0.097 A 
HETATM    2  C3  UNL     1      22.708   0.124  53.311  1.00  0.00     0.068 A 
HETATM    3  C4  UNL     1      23.690   0.755  52.580  1.00  0.00     0.033 A 
HETATM    4  C11 UNL     1      23.448   1.362  51.368  1.00  0.00     0.032 A 
HETATM    5  C12 UNL     1      22.142   1.300  50.921  1.00  0.00     0.035 A 
HETATM    6  C13 UNL     1      21.126   0.679  51.617  1.00  0.00     0.067 A 
ENDROOT
BRANCH   3   7
HETATM    7  N1  UNL     1      24.989   0.760  53.149  1.00  0.00    -0.378 N 
HETATM    8  C5  UNL     1      25.621   1.872  53.796  1.00  0.00     0.143 C 
HETATM    9  C6  UNL     1      27.031   2.104  53.295  1.00  0.00     0.145 C 
HETATM   10  N2  UNL     1      27.850   0.933  53.298  1.00  0.00    -0.349 N 
HETATM   11  C7  UNL     1      29.089   0.783  53.974  1.00  0.00     0.215 C 
HETATM   12  C9  UNL     1      27.189  -0.067  52.487  1.00  0.00     0.145 C 
HETATM   13  C8  UNL     1      29.781  -0.520  53.846  1.00  0.00     0.117 C 
HETATM   14  O2  UNL     1      29.414   1.819  54.595  1.00  0.00    -0.274 OA
HETATM   15  C10 UNL     1      25.889  -0.376  53.179  1.00  0.00     0.143 C 
ENDBRANCH   3   7
BRANCH   1  16
HETATM   16  O1  UNL     1      20.274  -0.496  53.398  1.00  0.00    -0.354 OA
HETATM   17  C1  UNL     1      20.432  -1.637  54.216  1.00  0.00     0.210 C 
ENDBRANCH   1  16
BRANCH   6  18
HETATM   18  N3  UNL     1      19.811   0.689  51.017  1.00  0.00    -0.349 N 
HETATM   19  H18 UNL     1      19.339  -0.261  51.107  1.00  0.00     0.167 HD
BRANCH  18  20
HETATM   20  C14 UNL     1      19.258   1.861  50.385  1.00  0.00     0.207 C 
HETATM   21  N4  UNL     1      19.110   2.807  51.276  1.00  0.00    -0.256 NA
BRANCH  21  22
HETATM   22  C15 UNL     1      18.575   4.039  50.832  1.00  0.00     0.116 C 
HETATM   23  C16 UNL     1      19.374   5.005  50.440  1.00  0.00     0.023 C 
BRANCH  23  24
HETATM   24  C17 UNL     1      20.842   5.155  50.331  1.00  0.00     0.251 C 
HETATM   25  F1  UNL     1      21.470   4.977  51.545  1.00  0.00    -0.251 F 
ENDBRANCH  23  24
ENDBRANCH  21  22
ENDBRANCH  18  20
ENDBRANCH   6  18
TORSDOF 6
ENDMDL
MODEL 9
REMARK VINA RESULT:      -6.5      5.288      7.525
REMARK  6 active torsions:
REMARK  status: ('A' for Active; 'I' for Inactive)
REMARK    1  A    between atoms: O1_2  and  C2_3 
REMARK    2  A    between atoms: C4_5  and  N1_6 
REMARK       I    between atoms: N2_9  and  C7_10 
REMARK    3  A    between atoms: C13_17  and  N3_18 
REMARK    4  A    between atoms: N3_18  and  C14_19 
REMARK    5  A    between atoms: N4_20  and  C15_21 
REMARK    6  A    between atoms: C16_22  and  C17_23 
ROOT
HETATM    1  C2  UNL     1      25.670   6.545  49.505  1.00  0.00     0.097 A 
HETATM    2  C3  UNL     1      25.272   5.373  50.113  1.00  0.00     0.068 A 
HETATM    3  C4  UNL     1      25.986   4.209  49.931  1.00  0.00     0.033 A 
HETATM    4  C11 UNL     1      27.117   4.138  49.148  1.00  0.00     0.032 A 
HETATM    5  C12 UNL     1      27.501   5.322  48.548  1.00  0.00     0.035 A 
HETATM    6  C13 UNL     1      26.819   6.511  48.700  1.00  0.00     0.067 A 
ENDROOT
BRANCH   3   7
HETATM    7  N1  UNL     1      25.497   3.063  50.607  1.00  0.00    -0.378 N 
HETATM    8  C5  UNL     1      24.126   2.646  50.674  1.00  0.00     0.143 C 
HETATM    9  C6  UNL     1      23.695   2.313  52.087  1.00  0.00     0.145 C 
HETATM   10  N2  UNL     1      24.573   1.415  52.768  1.00  0.00    -0.349 N 
HETATM   11  C7  UNL     1      24.213   0.164  53.336  1.00  0.00     0.215 C 
HETATM   12  C9  UNL     1      25.892   2.011  52.774  1.00  0.00     0.145 C 
HETATM   13  C8  UNL     1      25.281  -0.616  54.000  1.00  0.00     0.117 C 
HETATM   14  O2  UNL     1      22.998  -0.089  53.179  1.00  0.00    -0.274 OA
HETATM   15  C10 UNL     1      26.314   2.111  51.333  1.00  0.00     0.143 C 
ENDBRANCH   3   7
BRANCH   1  16
HETATM   16  O1  UNL     1      25.124   7.816  49.539  1.00  0.00    -0.354 OA
HETATM   17  C1  UNL     1      24.159   8.096  50.533  1.00  0.00     0.210 C 
ENDBRANCH   1  16
BRANCH   6  18
HETATM   18  N3  UNL     1      27.337   7.665  48.001  1.00  0.00    -0.349 N 
HETATM   19  H18 UNL     1      26.581   8.133  47.416  1.00  0.00     0.167 HD
BRANCH  18  20
HETATM   20  C14 UNL     1      28.713   8.083  48.113  1.00  0.00     0.207 C 
HETATM   21  N4  UNL     1      28.838   8.901  49.125  1.00  0.00    -0.256 NA
BRANCH  21  22
HETATM   22  C15 UNL     1      30.129   9.417  49.387  1.00  0.00     0.116 C 
HETATM   23  C16 UNL     1      30.408  10.670  49.112  1.00  0.00     0.023 C 
BRANCH  23  24
HETATM   24  C17 UNL     1      29.644  11.801  48.539  1.00  0.00     0.251 C 
HETATM   25  F1  UNL     1      28.502  12.071  49.262  1.00  0.00    -0.251 F 
ENDBRANCH  23  24
ENDBRANCH  21  22
ENDBRANCH  18  20
ENDBRANCH   6  18
TORSDOF 6
ENDMDL
