MODEL 1
REMARK VINA RESULT:      -7.4      0.000      0.000
REMARK  4 active torsions:
REMARK  status: ('A' for Active; 'I' for Inactive)
REMARK    1  A    between atoms: N1_2  and  C2_3 
REMARK    2  A    between atoms: C2_3  and  N2_4 
REMARK    3  A    between atoms: N2_4  and  C3_5 
REMARK    4  A    between atoms: C6_8  and  C7_9 
ROOT
HETATM    1  C3  UNL     1      19.963  -0.585  53.469  1.00  0.00     0.029 A 
HETATM    2  C4  UNL     1      20.376   0.551  52.765  1.00  0.00     0.030 A 
HETATM    3  C5  UNL     1      21.731   0.872  52.693  1.00  0.00     0.016 A 
HETATM    4  C6  UNL     1      22.615   0.033  53.335  1.00  0.00    -0.000 A 
HETATM    5  C14 UNL     1      22.225  -1.090  54.033  1.00  0.00     0.016 A 
HETATM    6  C15 UNL     1      20.868  -1.431  54.119  1.00  0.00     0.030 A 
ENDROOT
BRANCH   4   7
HETATM    7  C7  UNL     1      24.039   0.218  53.360  1.00  0.00     0.109 A 
HETATM    8  N3  UNL     1      25.091  -0.495  53.447  1.00  0.00    -0.240 NA
HETATM    9  C8  UNL     1      26.279   0.096  53.431  1.00  0.00     0.076 A 
HETATM   10  C9  UNL     1      27.469  -0.597  53.521  1.00  0.00     0.057 A 
HETATM   11  C13 UNL     1      26.455   1.551  53.318  1.00  0.00     0.036 A 
HETATM   12  C10 UNL     1      28.665   0.060  53.500  1.00  0.00     0.036 A 
HETATM   13 CL1  UNL     1      30.212  -0.801  53.613  1.00  0.00    -0.084 Cl
HETATM   14  C11 UNL     1      28.798   1.429  53.393  1.00  0.00     0.025 A 
HETATM   15  C12 UNL     1      27.645   2.155  53.302  1.00  0.00     0.023 A 
HETATM   16  S1  UNL     1      24.658   2.009  53.231  1.00  0.00    -0.068 SA
ENDBRANCH   4   7
BRANCH   1  17
HETATM   17  N2  UNL     1      18.575  -0.953  53.569  1.00  0.00    -0.372 N 
HETATM   18  H5  UNL     1      18.289  -1.436  54.470  1.00  0.00     0.161 HD
BRANCH  17  19
HETATM   19  C2  UNL     1      17.615  -0.692  52.521  1.00  0.00     0.269 C 
BRANCH  19  20
HETATM   20  N1  UNL     1      16.317  -0.600  53.104  1.00  0.00    -0.293 NA
HETATM   21  C1  UNL     1      15.358   0.083  52.623  1.00  0.00     0.144 C 
ENDBRANCH  19  20
ENDBRANCH  17  19
ENDBRANCH   1  17
TORSDOF 4
ENDMDL
MODEL 2
REMARK VINA RESULT:      -7.4      3.818      8.552
REMARK  4 active torsions:
REMARK  status: ('A' for Active; 'I' for Inactive)
REMARK    1  A    between atoms: N1_2  and  C2_3 
REMARK    2  A    between atoms: C2_3  and  N2_4 
REMARK    3  A    between atoms: N2_4  and  C3_5 
REMARK    4  A    between atoms: C6_8  and  C7_9 
ROOT
HETATM    1  C3  UNL     1      26.409   1.098  53.959  1.00  0.00     0.029 A 
HETATM    2  C4  UNL     1      25.932  -0.173  54.297  1.00  0.00     0.030 A 
HETATM    3  C5  UNL     1      24.613  -0.524  54.009  1.00  0.00     0.016 A 
HETATM    4  C6  UNL     1      23.828   0.425  53.390  1.00  0.00    -0.000 A 
HETATM    5  C14 UNL     1      24.281   1.681  53.050  1.00  0.00     0.016 A 
HETATM    6  C15 UNL     1      25.603   2.054  53.330  1.00  0.00     0.030 A 
ENDROOT
BRANCH   4   7
HETATM    7  C7  UNL     1      22.453   0.227  53.024  1.00  0.00     0.109 A 
HETATM    8  N3  UNL     1      21.674   0.513  52.058  1.00  0.00    -0.240 NA
HETATM    9  C8  UNL     1      20.405   0.126  52.111  1.00  0.00     0.076 A 
HETATM   10  C9  UNL     1      19.493   0.392  51.110  1.00  0.00     0.057 A 
HETATM   11  C13 UNL     1      19.837  -0.625  53.239  1.00  0.00     0.036 A 
HETATM   12  C10 UNL     1      18.199  -0.029  51.215  1.00  0.00     0.036 A 
HETATM   13 CL1  UNL     1      17.001   0.296  49.947  1.00  0.00    -0.084 Cl
HETATM   14  C11 UNL     1      17.694  -0.733  52.288  1.00  0.00     0.025 A 
HETATM   15  C12 UNL     1      18.564  -1.018  53.302  1.00  0.00     0.023 A 
HETATM   16  S1  UNL     1      21.380  -0.727  54.268  1.00  0.00    -0.068 SA
ENDBRANCH   4   7
BRANCH   1  17
HETATM   17  N2  UNL     1      27.761   1.501  54.238  1.00  0.00    -0.372 N 
HETATM   18  H5  UNL     1      28.015   2.493  53.959  1.00  0.00     0.161 HD
BRANCH  17  19
HETATM   19  C2  UNL     1      28.730   0.627  54.857  1.00  0.00     0.269 C 
BRANCH  19  20
HETATM   20  N1  UNL     1      29.604   0.125  53.848  1.00  0.00    -0.293 NA
HETATM   21  C1  UNL     1      29.639  -1.087  53.462  1.00  0.00     0.144 C 
ENDBRANCH  19  20
ENDBRANCH  17  19
ENDBRANCH   1  17
TORSDOF 4
ENDMDL
MODEL 3
REMARK VINA RESULT:      -7.3      3.704      8.354
REMARK  4 active torsions:
REMARK  status: ('A' for Active; 'I' for Inactive)
REMARK    1  A    between atoms: N1_2  and  C2_3 
REMARK    2  A    between atoms: C2_3  and  N2_4 
REMARK    3  A    between atoms: N2_4  and  C3_5 
REMARK    4  A    between atoms: C6_8  and  C7_9 
ROOT
HETATM    1  C3  UNL     1      26.634   0.955  54.197  1.00  0.00     0.029 A 
HETATM    2  C4  UNL     1      26.033   2.082  53.628  1.00  0.00     0.030 A 
HETATM    3  C5  UNL     1      24.712   2.021  53.186  1.00  0.00     0.016 A 
HETATM    4  C6  UNL     1      24.050   0.821  53.335  1.00  0.00    -0.000 A 
HETATM    5  C14 UNL     1      24.627  -0.300  53.892  1.00  0.00     0.016 A 
HETATM    6  C15 UNL     1      25.953  -0.260  54.344  1.00  0.00     0.030 A 
ENDROOT
BRANCH   4   7
HETATM    7  C7  UNL     1      22.691   0.588  52.933  1.00  0.00     0.109 A 
HETATM    8  N3  UNL     1      21.645   0.024  53.392  1.00  0.00    -0.240 NA
HETATM    9  C8  UNL     1      20.533   0.031  52.668  1.00  0.00     0.076 A 
HETATM   10  C9  UNL     1      19.356  -0.554  53.088  1.00  0.00     0.057 A 
HETATM   11  C13 UNL     1      20.436   0.661  51.344  1.00  0.00     0.036 A 
HETATM   12  C10 UNL     1      18.239  -0.518  52.304  1.00  0.00     0.036 A 
HETATM   13 CL1  UNL     1      16.711  -1.261  52.813  1.00  0.00    -0.084 Cl
HETATM   14  C11 UNL     1      18.179   0.082  51.063  1.00  0.00     0.025 A 
HETATM   15  C12 UNL     1      19.323   0.674  50.608  1.00  0.00     0.023 A 
HETATM   16  S1  UNL     1      22.185   1.274  51.235  1.00  0.00    -0.068 SA
ENDBRANCH   4   7
BRANCH   1  17
HETATM   17  N2  UNL     1      27.993   0.974  54.666  1.00  0.00    -0.372 N 
HETATM   18  H5  UNL     1      28.124   1.192  55.698  1.00  0.00     0.161 HD
BRANCH  17  19
HETATM   19  C2  UNL     1      29.126   0.717  53.807  1.00  0.00     0.269 C 
BRANCH  19  20
HETATM   20  N1  UNL     1      29.624  -0.590  54.086  1.00  0.00    -0.293 NA
HETATM   21  C1  UNL     1      29.417  -1.611  53.356  1.00  0.00     0.144 C 
ENDBRANCH  19  20
ENDBRANCH  17  19
ENDBRANCH   1  17
TORSDOF 4
ENDMDL
MODEL 4
REMARK VINA RESULT:      -7.3      3.822      8.461
REMARK  4 active torsions:
REMARK  status: ('A' for Active; 'I' for Inactive)
REMARK    1  A    between atoms: N1_2  and  C2_3 
REMARK    2  A    between atoms: C2_3  and  N2_4 
REMARK    3  A    between atoms: N2_4  and  C3_5 
REMARK    4  A    between atoms: C6_8  and  C7_9 
ROOT
HETATM    1  C3  UNL     1      25.914  -0.125  54.388  1.00  0.00     0.029 A 
HETATM    2  C4  UNL     1      25.662   0.621  53.233  1.00  0.00     0.030 A 
HETATM    3  C5  UNL     1      24.375   0.664  52.696  1.00  0.00     0.016 A 
HETATM    4  C6  UNL     1      23.394  -0.051  53.349  1.00  0.00    -0.000 A 
HETATM    5  C14 UNL     1      23.625  -0.792  54.488  1.00  0.00     0.016 A 
HETATM    6  C15 UNL     1      24.911  -0.848  55.044  1.00  0.00     0.030 A 
ENDROOT
BRANCH   4   7
HETATM    7  C7  UNL     1      22.021  -0.114  52.931  1.00  0.00     0.109 A 
HETATM    8  N3  UNL     1      21.305   0.280  51.954  1.00  0.00    -0.240 NA
HETATM    9  C8  UNL     1      20.007   0.000  51.948  1.00  0.00     0.076 A 
HETATM   10  C9  UNL     1      19.156   0.386  50.932  1.00  0.00     0.057 A 
HETATM   11  C13 UNL     1      19.337  -0.748  53.022  1.00  0.00     0.036 A 
HETATM   12  C10 UNL     1      17.829   0.073  50.975  1.00  0.00     0.036 A 
HETATM   13 CL1  UNL     1      16.709   0.554  49.685  1.00  0.00    -0.084 Cl
HETATM   14  C11 UNL     1      17.228  -0.631  51.998  1.00  0.00     0.025 A 
HETATM   15  C12 UNL     1      18.034  -1.033  53.025  1.00  0.00     0.023 A 
HETATM   16  S1  UNL     1      20.828  -1.026  54.093  1.00  0.00    -0.068 SA
ENDBRANCH   4   7
BRANCH   1  17
HETATM   17  N2  UNL     1      27.226  -0.196  54.975  1.00  0.00    -0.372 N 
HETATM   18  H5  UNL     1      27.257  -0.427  56.011  1.00  0.00     0.161 HD
BRANCH  17  19
HETATM   19  C2  UNL     1      28.437   0.028  54.221  1.00  0.00     0.269 C 
BRANCH  19  20
HETATM   20  N1  UNL     1      28.967   1.304  54.576  1.00  0.00    -0.293 NA
HETATM   21  C1  UNL     1      28.874   2.349  53.857  1.00  0.00     0.144 C 
ENDBRANCH  19  20
ENDBRANCH  17  19
ENDBRANCH   1  17
TORSDOF 4
ENDMDL
MODEL 5
REMARK VINA RESULT:      -7.2      3.827      8.511
REMARK  4 active torsions:
REMARK  status: ('A' for Active; 'I' for Inactive)
REMARK    1  A    between atoms: N1_2  and  C2_3 
REMARK    2  A    between atoms: C2_3  and  N2_4 
REMARK    3  A    between atoms: N2_4  and  C3_5 
REMARK    4  A    between atoms: C6_8  and  C7_9 
ROOT
HETATM    1  C3  UNL     1      25.355  -0.412  54.638  1.00  0.00     0.029 A 
HETATM    2  C4  UNL     1      24.430  -1.121  55.410  1.00  0.00     0.030 A 
HETATM    3  C5  UNL     1      23.091  -1.176  55.020  1.00  0.00     0.016 A 
HETATM    4  C6  UNL     1      22.743  -0.512  53.864  1.00  0.00    -0.000 A 
HETATM    5  C14 UNL     1      23.642   0.192  53.092  1.00  0.00     0.016 A 
HETATM    6  C15 UNL     1      24.991   0.260  53.466  1.00  0.00     0.030 A 
ENDROOT
BRANCH   4   7
HETATM    7  C7  UNL     1      21.413  -0.467  53.323  1.00  0.00     0.109 A 
HETATM    8  N3  UNL     1      20.245  -0.873  53.631  1.00  0.00    -0.240 NA
HETATM    9  C8  UNL     1      19.231  -0.611  52.817  1.00  0.00     0.076 A 
HETATM   10  C9  UNL     1      17.935  -1.011  53.071  1.00  0.00     0.057 A 
HETATM   11  C13 UNL     1      19.379   0.132  51.557  1.00  0.00     0.036 A 
HETATM   12  C10 UNL     1      16.928  -0.715  52.199  1.00  0.00     0.036 A 
HETATM   13 CL1  UNL     1      15.252  -1.215  52.497  1.00  0.00    -0.084 Cl
HETATM   14  C11 UNL     1      17.098  -0.015  51.023  1.00  0.00     0.025 A 
HETATM   15  C12 UNL     1      18.366   0.401  50.731  1.00  0.00     0.023 A 
HETATM   16  S1  UNL     1      21.208   0.433  51.663  1.00  0.00    -0.068 SA
ENDBRANCH   4   7
BRANCH   1  17
HETATM   17  N2  UNL     1      26.744  -0.330  55.004  1.00  0.00    -0.372 N 
HETATM   18  H5  UNL     1      26.966  -0.527  56.024  1.00  0.00     0.161 HD
BRANCH  17  19
HETATM   19  C2  UNL     1      27.788  -0.002  54.061  1.00  0.00     0.269 C 
BRANCH  19  20
HETATM   20  N1  UNL     1      28.398   1.223  54.463  1.00  0.00    -0.293 NA
HETATM   21  C1  UNL     1      28.473   2.264  53.736  1.00  0.00     0.144 C 
ENDBRANCH  19  20
ENDBRANCH  17  19
ENDBRANCH   1  17
TORSDOF 4
ENDMDL
MODEL 6
REMARK VINA RESULT:      -7.1      3.967      8.566
REMARK  4 active torsions:
REMARK  status: ('A' for Active; 'I' for Inactive)
REMARK    1  A    between atoms: N1_2  and  C2_3 
REMARK    2  A    between atoms: C2_3  and  N2_4 
REMARK    3  A    between atoms: N2_4  and  C3_5 
REMARK    4  A    between atoms: C6_8  and  C7_9 
ROOT
HETATM    1  C3  UNL     1      24.750  -0.525  54.599  1.00  0.00     0.029 A 
HETATM    2  C4  UNL     1      24.571   0.232  53.437  1.00  0.00     0.030 A 
HETATM    3  C5  UNL     1      23.308   0.323  52.851  1.00  0.00     0.016 A 
HETATM    4  C6  UNL     1      22.277  -0.355  53.464  1.00  0.00    -0.000 A 
HETATM    5  C14 UNL     1      22.436  -1.106  54.609  1.00  0.00     0.016 A 
HETATM    6  C15 UNL     1      23.696  -1.211  55.214  1.00  0.00     0.030 A 
ENDROOT
BRANCH   4   7
HETATM    7  C7  UNL     1      20.920  -0.367  52.993  1.00  0.00     0.109 A 
HETATM    8  N3  UNL     1      19.780  -0.780  53.383  1.00  0.00    -0.240 NA
HETATM    9  C8  UNL     1      18.719  -0.581  52.611  1.00  0.00     0.076 A 
HETATM   10  C9  UNL     1      17.448  -0.995  52.953  1.00  0.00     0.057 A 
HETATM   11  C13 UNL     1      18.784   0.098  51.309  1.00  0.00     0.036 A 
HETATM   12  C10 UNL     1      16.390  -0.765  52.122  1.00  0.00     0.036 A 
HETATM   13 CL1  UNL     1      14.743  -1.284  52.534  1.00  0.00    -0.084 Cl
HETATM   14  C11 UNL     1      16.482  -0.124  50.905  1.00  0.00     0.025 A 
HETATM   15  C12 UNL     1      17.723   0.303  50.525  1.00  0.00     0.023 A 
HETATM   16  S1  UNL     1      20.608   0.442  51.302  1.00  0.00    -0.068 SA
ENDBRANCH   4   7
BRANCH   1  17
HETATM   17  N2  UNL     1      26.035  -0.646  55.236  1.00  0.00    -0.372 N 
HETATM   18  H5  UNL     1      26.121  -1.418  55.959  1.00  0.00     0.161 HD
BRANCH  17  19
HETATM   19  C2  UNL     1      27.150   0.217  54.925  1.00  0.00     0.269 C 
BRANCH  19  20
HETATM   20  N1  UNL     1      28.186  -0.567  54.338  1.00  0.00    -0.293 NA
HETATM   21  C1  UNL     1      28.138  -1.067  53.169  1.00  0.00     0.144 C 
ENDBRANCH  19  20
ENDBRANCH  17  19
ENDBRANCH   1  17
TORSDOF 4
ENDMDL
MODEL 7
REMARK VINA RESULT:      -6.7      5.702      9.132
REMARK  4 active torsions:
REMARK  status: ('A' for Active; 'I' for Inactive)
REMARK    1  A    between atoms: N1_2  and  C2_3 
REMARK    2  A    between atoms: C2_3  and  N2_4 
REMARK    3  A    between atoms: N2_4  and  C3_5 
REMARK    4  A    between atoms: C6_8  and  C7_9 
ROOT
HETATM    1  C3  UNL     1      26.850   6.275  48.585  1.00  0.00     0.029 A 
HETATM    2  C4  UNL     1      27.541   5.059  48.582  1.00  0.00     0.030 A 
HETATM    3  C5  UNL     1      27.067   3.985  49.336  1.00  0.00     0.016 A 
HETATM    4  C6  UNL     1      25.913   4.183  50.063  1.00  0.00    -0.000 A 
HETATM    5  C14 UNL     1      25.220   5.375  50.077  1.00  0.00     0.016 A 
HETATM    6  C15 UNL     1      25.678   6.466  49.327  1.00  0.00     0.030 A 
ENDROOT
BRANCH   4   7
HETATM    7  C7  UNL     1      25.293   3.186  50.889  1.00  0.00     0.109 A 
HETATM    8  N3  UNL     1      24.138   2.921  51.358  1.00  0.00    -0.240 NA
HETATM    9  C8  UNL     1      23.978   1.846  52.119  1.00  0.00     0.076 A 
HETATM   10  C9  UNL     1      22.765   1.484  52.669  1.00  0.00     0.057 A 
HETATM   11  C13 UNL     1      25.074   0.928  52.460  1.00  0.00     0.036 A 
HETATM   12  C10 UNL     1      22.655   0.367  53.445  1.00  0.00     0.036 A 
HETATM   13 CL1  UNL     1      21.111  -0.126  54.167  1.00  0.00    -0.084 Cl
HETATM   14  C11 UNL     1      23.704  -0.477  53.748  1.00  0.00     0.025 A 
HETATM   15  C12 UNL     1      24.924  -0.156  53.224  1.00  0.00     0.023 A 
HETATM   16  S1  UNL     1      26.424   1.802  51.532  1.00  0.00    -0.068 SA
ENDBRANCH   4   7
BRANCH   1  17
HETATM   17  N2  UNL     1      27.303   7.407  47.822  1.00  0.00    -0.372 N 
HETATM   18  H5  UNL     1      26.570   7.881  47.218  1.00  0.00     0.161 HD
BRANCH  17  19
HETATM   19  C2  UNL     1      28.665   7.887  47.861  1.00  0.00     0.269 C 
BRANCH  19  20
HETATM   20  N1  UNL     1      28.899   8.496  49.129  1.00  0.00    -0.293 NA
HETATM   21  C1  UNL     1      29.495   9.608  49.296  1.00  0.00     0.144 C 
ENDBRANCH  19  20
ENDBRANCH  17  19
ENDBRANCH   1  17
TORSDOF 4
ENDMDL
MODEL 8
REMARK VINA RESULT:      -6.6      4.063      8.391
REMARK  4 active torsions:
REMARK  status: ('A' for Active; 'I' for Inactive)
REMARK    1  A    between atoms: N1_2  and  C2_3 
REMARK    2  A    between atoms: C2_3  and  N2_4 
REMARK    3  A    between atoms: N2_4  and  C3_5 
REMARK    4  A    between atoms: C6_8  and  C7_9 
ROOT
HETATM    1  C3  UNL     1      26.385   0.198  54.174  1.00  0.00     0.029 A 
HETATM    2  C4  UNL     1      26.256   1.487  53.647  1.00  0.00     0.030 A 
HETATM    3  C5  UNL     1      25.020   1.927  53.173  1.00  0.00     0.016 A 
HETATM    4  C6  UNL     1      23.964   1.046  53.249  1.00  0.00    -0.000 A 
HETATM    5  C14 UNL     1      24.074  -0.228  53.765  1.00  0.00     0.016 A 
HETATM    6  C15 UNL     1      25.306  -0.690  54.247  1.00  0.00     0.030 A 
ENDROOT
BRANCH   4   7
HETATM    7  C7  UNL     1      22.629   1.338  52.807  1.00  0.00     0.109 A 
HETATM    8  N3  UNL     1      21.930   2.357  52.498  1.00  0.00    -0.240 NA
HETATM    9  C8  UNL     1      20.669   2.188  52.119  1.00  0.00     0.076 A 
HETATM   10  C9  UNL     1      19.840   3.234  51.767  1.00  0.00     0.057 A 
HETATM   11  C13 UNL     1      20.021   0.872  52.036  1.00  0.00     0.036 A 
HETATM   12  C10 UNL     1      18.550   3.005  51.385  1.00  0.00     0.036 A 
HETATM   13 CL1  UNL     1      17.459   4.327  50.926  1.00  0.00    -0.084 Cl
HETATM   14  C11 UNL     1      17.969   1.756  51.317  1.00  0.00     0.025 A 
HETATM   15  C12 UNL     1      18.754   0.692  51.657  1.00  0.00     0.023 A 
HETATM   16  S1  UNL     1      21.471  -0.151  52.581  1.00  0.00    -0.068 SA
ENDBRANCH   4   7
BRANCH   1  17
HETATM   17  N2  UNL     1      27.641  -0.296  54.673  1.00  0.00    -0.372 N 
HETATM   18  H5  UNL     1      27.598  -0.814  55.599  1.00  0.00     0.161 HD
BRANCH  17  19
HETATM   19  C2  UNL     1      28.892  -0.110  53.976  1.00  0.00     0.269 C 
BRANCH  19  20
HETATM   20  N1  UNL     1      29.486  -1.387  53.755  1.00  0.00    -0.293 NA
HETATM   21  C1  UNL     1      28.917  -2.353  53.153  1.00  0.00     0.144 C 
ENDBRANCH  19  20
ENDBRANCH  17  19
ENDBRANCH   1  17
TORSDOF 4
ENDMDL
MODEL 9
REMARK VINA RESULT:      -6.6      4.889      6.516
REMARK  4 active torsions:
REMARK  status: ('A' for Active; 'I' for Inactive)
REMARK    1  A    between atoms: N1_2  and  C2_3 
REMARK    2  A    between atoms: C2_3  and  N2_4 
REMARK    3  A    between atoms: N2_4  and  C3_5 
REMARK    4  A    between atoms: C6_8  and  C7_9 
ROOT
HETATM    1  C3  UNL     1      24.819   0.129  52.636  1.00  0.00     0.029 A 
HETATM    2  C4  UNL     1      26.173   0.181  52.291  1.00  0.00     0.030 A 
HETATM    3  C5  UNL     1      26.656   1.238  51.520  1.00  0.00     0.016 A 
HETATM    4  C6  UNL     1      25.751   2.200  51.127  1.00  0.00    -0.000 A 
HETATM    5  C14 UNL     1      24.413   2.163  51.457  1.00  0.00     0.016 A 
HETATM    6  C15 UNL     1      23.906   1.111  52.232  1.00  0.00     0.030 A 
ENDROOT
BRANCH   4   7
HETATM    7  C7  UNL     1      26.081   3.350  50.332  1.00  0.00     0.109 A 
HETATM    8  N3  UNL     1      27.092   3.826  49.720  1.00  0.00    -0.240 NA
HETATM    9  C8  UNL     1      26.974   4.977  49.070  1.00  0.00     0.076 A 
HETATM   10  C9  UNL     1      28.015   5.565  48.381  1.00  0.00     0.057 A 
HETATM   11  C13 UNL     1      25.724   5.748  49.015  1.00  0.00     0.036 A 
HETATM   12  C10 UNL     1      27.840   6.751  47.728  1.00  0.00     0.036 A 
HETATM   13 CL1  UNL     1      29.158   7.533  46.834  1.00  0.00    -0.084 Cl
HETATM   14  C11 UNL     1      26.653   7.452  47.694  1.00  0.00     0.025 A 
HETATM   15  C12 UNL     1      25.595   6.906  48.364  1.00  0.00     0.023 A 
HETATM   16  S1  UNL     1      24.683   4.601  50.038  1.00  0.00    -0.068 SA
ENDBRANCH   4   7
BRANCH   1  17
HETATM   17  N2  UNL     1      24.278  -0.943  53.429  1.00  0.00    -0.372 N 
HETATM   18  H5  UNL     1      24.196  -1.883  52.943  1.00  0.00     0.161 HD
BRANCH  17  19
HETATM   19  C2  UNL     1      23.867  -0.773  54.804  1.00  0.00     0.269 C 
BRANCH  19  20
HETATM   20  N1  UNL     1      22.446  -0.873  54.871  1.00  0.00    -0.293 NA
HETATM   21  C1  UNL     1      21.728  -1.517  54.042  1.00  0.00     0.144 C 
ENDBRANCH  19  20
ENDBRANCH  17  19
ENDBRANCH   1  17
TORSDOF 4
ENDMDL
