MODEL 1
REMARK VINA RESULT:      -6.8      0.000      0.000
REMARK  1 active torsions:
REMARK  status: ('A' for Active; 'I' for Inactive)
REMARK    1  A    between atoms: O1_2  and  C2_3 
ROOT
HETATM    1  C2  UNL     1      28.094  -0.556  53.482  1.00  0.00     0.082 A 
HETATM    2  C3  UNL     1      28.255   0.176  54.528  1.00  0.00     0.043 A 
HETATM    3  C4  UNL     1      26.940   0.761  54.444  1.00  0.00     0.092 A 
HETATM    4  C5  UNL     1      26.149   0.328  55.667  1.00  0.00     0.066 C 
HETATM    5  C6  UNL     1      24.952  -0.434  55.519  1.00  0.00    -0.024 C 
HETATM    6  C7  UNL     1      23.942  -1.281  55.499  1.00  0.00    -0.004 C 
HETATM    7  C8  UNL     1      22.630  -1.793  55.169  1.00  0.00    -0.003 C 
HETATM    8  C9  UNL     1      21.629  -1.270  54.440  1.00  0.00    -0.007 C 
HETATM    9  C10 UNL     1      22.246   0.015  54.062  1.00  0.00     0.148 C 
HETATM   10  N1  UNL     1      22.554   0.075  52.660  1.00  0.00    -0.370 N 
HETATM   11  C11 UNL     1      23.724   0.880  52.645  1.00  0.00     0.147 C 
HETATM   12  C12 UNL     1      24.449  -0.265  52.353  1.00  0.00     0.186 C 
HETATM   13  O2  UNL     1      25.611  -0.770  53.096  1.00  0.00    -0.339 OA
HETATM   14  C13 UNL     1      26.793  -0.048  53.205  1.00  0.00     0.140 A 
HETATM   15  C14 UNL     1      26.949   0.874  51.921  1.00  0.00     0.057 C 
HETATM   16  N2  UNL     1      24.337   2.183  52.829  1.00  0.00    -0.225 NA
HETATM   17  C15 UNL     1      25.320   2.448  53.714  1.00  0.00     0.206 C 
HETATM   18  N3  UNL     1      26.706   2.167  54.167  1.00  0.00    -0.368 N 
HETATM   19  H13 UNL     1      21.995  -0.375  51.924  1.00  0.00     0.161 HD
HETATM   20  H19 UNL     1      27.010   3.175  54.110  1.00  0.00     0.161 HD
ENDROOT
BRANCH   1  21
HETATM   21  O1  UNL     1      29.017  -1.467  52.941  1.00  0.00    -0.357 OA
HETATM   22  C1  UNL     1      28.817  -2.862  53.083  1.00  0.00     0.209 C 
ENDBRANCH   1  21
TORSDOF 1
ENDMDL
MODEL 2
REMARK VINA RESULT:      -6.8      4.646      7.646
REMARK  1 active torsions:
REMARK  status: ('A' for Active; 'I' for Inactive)
REMARK    1  A    between atoms: O1_2  and  C2_3 
ROOT
HETATM    1  C2  UNL     1      17.930   3.020  51.560  1.00  0.00     0.082 A 
HETATM    2  C3  UNL     1      17.468   2.069  50.829  1.00  0.00     0.043 A 
HETATM    3  C4  UNL     1      18.746   1.413  50.698  1.00  0.00     0.092 A 
HETATM    4  C5  UNL     1      18.656   0.057  51.380  1.00  0.00     0.066 C 
HETATM    5  C6  UNL     1      19.502  -0.252  52.485  1.00  0.00    -0.024 C 
HETATM    6  C7  UNL     1      20.108  -0.568  53.613  1.00  0.00    -0.004 C 
HETATM    7  C8  UNL     1      21.209  -0.819  54.516  1.00  0.00    -0.003 C 
HETATM    8  C9  UNL     1      22.540  -0.758  54.335  1.00  0.00    -0.007 C 
HETATM    9  C10 UNL     1      22.577  -0.362  52.915  1.00  0.00     0.148 C 
HETATM   10  N1  UNL     1      23.051   0.983  52.741  1.00  0.00    -0.370 N 
HETATM   11  C11 UNL     1      22.321   1.412  51.601  1.00  0.00     0.147 C 
HETATM   12  C12 UNL     1      21.564   2.208  52.446  1.00  0.00     0.186 C 
HETATM   13  O2  UNL     1      20.100   2.209  52.559  1.00  0.00    -0.339 OA
HETATM   14  C13 UNL     1      19.274   2.552  51.496  1.00  0.00     0.140 A 
HETATM   15  C14 UNL     1      20.047   3.572  50.557  1.00  0.00     0.057 C 
HETATM   16  N2  UNL     1      22.081   1.318  50.172  1.00  0.00    -0.225 NA
HETATM   17  C15 UNL     1      20.900   0.977  49.615  1.00  0.00     0.206 C 
HETATM   18  N3  UNL     1      19.460   1.295  49.439  1.00  0.00    -0.368 N 
HETATM   19  H13 UNL     1      23.759   1.429  53.338  1.00  0.00     0.161 HD
HETATM   20  H19 UNL     1      19.515   1.314  48.387  1.00  0.00     0.161 HD
ENDROOT
BRANCH   1  21
HETATM   21  O1  UNL     1      17.202   4.085  52.117  1.00  0.00    -0.357 OA
HETATM   22  C1  UNL     1      15.809   3.961  52.343  1.00  0.00     0.209 C 
ENDBRANCH   1  21
TORSDOF 1
ENDMDL
MODEL 3
REMARK VINA RESULT:      -6.6      3.968      5.748
REMARK  1 active torsions:
REMARK  status: ('A' for Active; 'I' for Inactive)
REMARK    1  A    between atoms: O1_2  and  C2_3 
ROOT
HETATM    1  C2  UNL     1      22.571   2.559  48.828  1.00  0.00     0.082 A 
HETATM    2  C3  UNL     1      23.317   3.430  49.410  1.00  0.00     0.043 A 
HETATM    3  C4  UNL     1      22.676   3.271  50.691  1.00  0.00     0.092 A 
HETATM    4  C5  UNL     1      23.696   2.705  51.666  1.00  0.00     0.066 C 
HETATM    5  C6  UNL     1      23.475   1.441  52.287  1.00  0.00    -0.024 C 
HETATM    6  C7  UNL     1      23.450   0.215  52.774  1.00  0.00    -0.004 C 
HETATM    7  C8  UNL     1      22.950  -0.920  53.517  1.00  0.00    -0.003 C 
HETATM    8  C9  UNL     1      21.838  -1.081  54.254  1.00  0.00    -0.007 C 
HETATM    9  C10 UNL     1      21.248   0.263  54.104  1.00  0.00     0.148 C 
HETATM   10  N1  UNL     1      20.053   0.243  53.307  1.00  0.00    -0.370 N 
HETATM   11  C11 UNL     1      20.106   1.505  52.659  1.00  0.00     0.147 C 
HETATM   12  C12 UNL     1      20.425   0.836  51.487  1.00  0.00     0.186 C 
HETATM   13  O2  UNL     1      21.590   1.093  50.631  1.00  0.00    -0.339 OA
HETATM   14  C13 UNL     1      21.785   2.310  49.989  1.00  0.00     0.140 A 
HETATM   15  C14 UNL     1      20.369   2.972  49.708  1.00  0.00     0.057 C 
HETATM   16  N2  UNL     1      20.015   2.952  52.747  1.00  0.00    -0.225 NA
HETATM   17  C15 UNL     1      21.004   3.803  52.401  1.00  0.00     0.206 C 
HETATM   18  N3  UNL     1      21.897   4.316  51.332  1.00  0.00    -0.368 N 
HETATM   19  H13 UNL     1      19.380  -0.534  53.291  1.00  0.00     0.161 HD
HETATM   20  H19 UNL     1      21.599   5.319  51.459  1.00  0.00     0.161 HD
ENDROOT
BRANCH   1  21
HETATM   21  O1  UNL     1      22.645   2.148  47.486  1.00  0.00    -0.357 OA
HETATM   22  C1  UNL     1      22.190   2.997  46.449  1.00  0.00     0.209 C 
ENDBRANCH   1  21
TORSDOF 1
ENDMDL
MODEL 4
REMARK VINA RESULT:      -6.5      3.985      6.795
REMARK  1 active torsions:
REMARK  status: ('A' for Active; 'I' for Inactive)
REMARK    1  A    between atoms: O1_2  and  C2_3 
ROOT
HETATM    1  C2  UNL     1      21.905   0.588  51.770  1.00  0.00     0.082 A 
HETATM    2  C3  UNL     1      21.400   0.453  50.595  1.00  0.00     0.043 A 
HETATM    3  C4  UNL     1      21.389   1.869  50.326  1.00  0.00     0.092 A 
HETATM    4  C5  UNL     1      22.344   2.141  49.174  1.00  0.00     0.066 C 
HETATM    5  C6  UNL     1      23.474   2.989  49.360  1.00  0.00    -0.024 C 
HETATM    6  C7  UNL     1      24.633   3.608  49.475  1.00  0.00    -0.004 C 
HETATM    7  C8  UNL     1      25.551   4.693  49.747  1.00  0.00    -0.003 C 
HETATM    8  C9  UNL     1      25.338   5.956  50.153  1.00  0.00    -0.007 C 
HETATM    9  C10 UNL     1      23.866   5.943  50.240  1.00  0.00     0.148 C 
HETATM   10  N1  UNL     1      23.403   6.018  51.598  1.00  0.00    -0.370 N 
HETATM   11  C11 UNL     1      22.211   5.249  51.550  1.00  0.00     0.147 C 
HETATM   12  C12 UNL     1      22.881   4.257  52.250  1.00  0.00     0.186 C 
HETATM   13  O2  UNL     1      23.016   2.851  51.848  1.00  0.00    -0.339 OA
HETATM   14  C13 UNL     1      21.919   2.011  51.709  1.00  0.00     0.140 A 
HETATM   15  C14 UNL     1      20.772   2.501  52.692  1.00  0.00     0.057 C 
HETATM   16  N2  UNL     1      20.838   5.111  51.097  1.00  0.00    -0.225 NA
HETATM   17  C15 UNL     1      20.386   4.105  50.320  1.00  0.00     0.206 C 
HETATM   18  N3  UNL     1      20.172   2.644  50.163  1.00  0.00    -0.368 N 
HETATM   19  H13 UNL     1      23.880   6.541  52.344  1.00  0.00     0.161 HD
HETATM   20  H19 UNL     1      19.139   2.739  49.978  1.00  0.00     0.161 HD
ENDROOT
BRANCH   1  21
HETATM   21  O1  UNL     1      22.236  -0.440  52.668  1.00  0.00    -0.357 OA
HETATM   22  C1  UNL     1      23.395  -0.342  53.476  1.00  0.00     0.209 C 
ENDBRANCH   1  21
TORSDOF 1
ENDMDL
MODEL 5
REMARK VINA RESULT:      -6.4      9.627     12.200
REMARK  1 active torsions:
REMARK  status: ('A' for Active; 'I' for Inactive)
REMARK    1  A    between atoms: O1_2  and  C2_3 
ROOT
HETATM    1  C2  UNL     1      29.738   7.520  47.801  1.00  0.00     0.082 A 
HETATM    2  C3  UNL     1      30.044   8.167  46.733  1.00  0.00     0.043 A 
HETATM    3  C4  UNL     1      31.458   7.919  46.866  1.00  0.00     0.092 A 
HETATM    4  C5  UNL     1      31.902   7.060  45.693  1.00  0.00     0.066 C 
HETATM    5  C6  UNL     1      32.460   5.767  45.916  1.00  0.00    -0.024 C 
HETATM    6  C7  UNL     1      32.819   4.501  46.004  1.00  0.00    -0.004 C 
HETATM    7  C8  UNL     1      33.608   3.359  46.408  1.00  0.00    -0.003 C 
HETATM    8  C9  UNL     1      34.710   3.264  47.173  1.00  0.00    -0.007 C 
HETATM    9  C10 UNL     1      34.911   4.690  47.491  1.00  0.00     0.148 C 
HETATM   10  N1  UNL     1      34.652   4.977  48.875  1.00  0.00    -0.370 N 
HETATM   11  C11 UNL     1      34.137   6.298  48.814  1.00  0.00     0.147 C 
HETATM   12  C12 UNL     1      32.886   5.772  49.098  1.00  0.00     0.186 C 
HETATM   13  O2  UNL     1      31.662   5.970  48.312  1.00  0.00    -0.339 OA
HETATM   14  C13 UNL     1      31.092   7.224  48.129  1.00  0.00     0.140 A 
HETATM   15  C14 UNL     1      31.446   8.133  49.382  1.00  0.00     0.057 C 
HETATM   16  N2  UNL     1      34.367   7.712  48.571  1.00  0.00    -0.225 NA
HETATM   17  C15 UNL     1      33.726   8.441  47.633  1.00  0.00     0.206 C 
HETATM   18  N3  UNL     1      32.434   8.964  47.121  1.00  0.00    -0.368 N 
HETATM   19  H13 UNL     1      34.843   4.326  49.647  1.00  0.00     0.161 HD
HETATM   20  H19 UNL     1      32.747   9.970  47.140  1.00  0.00     0.161 HD
ENDROOT
BRANCH   1  21
HETATM   21  O1  UNL     1      28.449   7.309  48.318  1.00  0.00    -0.357 OA
HETATM   22  C1  UNL     1      27.900   6.004  48.368  1.00  0.00     0.209 C 
ENDBRANCH   1  21
TORSDOF 1
ENDMDL
MODEL 6
REMARK VINA RESULT:      -6.3      3.981      6.160
REMARK  1 active torsions:
REMARK  status: ('A' for Active; 'I' for Inactive)
REMARK    1  A    between atoms: O1_2  and  C2_3 
ROOT
HETATM    1  C2  UNL     1      25.312   2.109  52.836  1.00  0.00     0.082 A 
HETATM    2  C3  UNL     1      25.582   1.645  51.668  1.00  0.00     0.043 A 
HETATM    3  C4  UNL     1      24.538   2.397  51.017  1.00  0.00     0.092 A 
HETATM    4  C5  UNL     1      25.190   3.383  50.061  1.00  0.00     0.066 C 
HETATM    5  C6  UNL     1      25.001   4.786  50.234  1.00  0.00    -0.024 C 
HETATM    6  C7  UNL     1      25.033   6.093  50.410  1.00  0.00    -0.004 C 
HETATM    7  C8  UNL     1      24.521   7.437  50.552  1.00  0.00    -0.003 C 
HETATM    8  C9  UNL     1      23.265   7.917  50.534  1.00  0.00    -0.007 C 
HETATM    9  C10 UNL     1      22.525   6.661  50.311  1.00  0.00     0.148 C 
HETATM   10  N1  UNL     1      21.765   6.269  51.466  1.00  0.00    -0.370 N 
HETATM   11  C11 UNL     1      21.814   4.852  51.388  1.00  0.00     0.147 C 
HETATM   12  C12 UNL     1      22.691   4.872  52.461  1.00  0.00     0.186 C 
HETATM   13  O2  UNL     1      24.020   4.251  52.508  1.00  0.00    -0.339 OA
HETATM   14  C13 UNL     1      24.203   2.879  52.383  1.00  0.00     0.140 A 
HETATM   15  C14 UNL     1      22.907   2.139  52.927  1.00  0.00     0.057 C 
HETATM   16  N2  UNL     1      21.409   3.631  50.715  1.00  0.00    -0.225 NA
HETATM   17  C15 UNL     1      22.263   2.736  50.175  1.00  0.00     0.206 C 
HETATM   18  N3  UNL     1      23.380   1.783  50.392  1.00  0.00    -0.368 N 
HETATM   19  H13 UNL     1      21.321   6.928  52.118  1.00  0.00     0.161 HD
HETATM   20  H19 UNL     1      22.863   0.964  49.976  1.00  0.00     0.161 HD
ENDROOT
BRANCH   1  21
HETATM   21  O1  UNL     1      25.983   1.816  54.035  1.00  0.00    -0.357 OA
HETATM   22  C1  UNL     1      26.306   0.478  54.369  1.00  0.00     0.209 C 
ENDBRANCH   1  21
TORSDOF 1
ENDMDL
MODEL 7
REMARK VINA RESULT:      -6.3      3.816      5.854
REMARK  1 active torsions:
REMARK  status: ('A' for Active; 'I' for Inactive)
REMARK    1  A    between atoms: O1_2  and  C2_3 
ROOT
HETATM    1  C2  UNL     1      24.306   0.926  52.324  1.00  0.00     0.082 A 
HETATM    2  C3  UNL     1      23.200   0.319  52.575  1.00  0.00     0.043 A 
HETATM    3  C4  UNL     1      22.381   1.371  52.027  1.00  0.00     0.092 A 
HETATM    4  C5  UNL     1      21.652   0.821  50.812  1.00  0.00     0.066 C 
HETATM    5  C6  UNL     1      21.862   1.397  49.524  1.00  0.00    -0.024 C 
HETATM    6  C7  UNL     1      22.118   1.739  48.276  1.00  0.00    -0.004 C 
HETATM    7  C8  UNL     1      22.224   2.599  47.119  1.00  0.00    -0.003 C 
HETATM    8  C9  UNL     1      21.958   3.906  46.955  1.00  0.00    -0.007 C 
HETATM    9  C10 UNL     1      21.503   4.237  48.319  1.00  0.00     0.148 C 
HETATM   10  N1  UNL     1      22.436   5.083  49.010  1.00  0.00    -0.370 N 
HETATM   11  C11 UNL     1      22.287   4.656  50.355  1.00  0.00     0.147 C 
HETATM   12  C12 UNL     1      23.527   4.044  50.248  1.00  0.00     0.186 C 
HETATM   13  O2  UNL     1      23.828   2.636  50.533  1.00  0.00    -0.339 OA
HETATM   14  C13 UNL     1      23.666   2.084  51.797  1.00  0.00     0.140 A 
HETATM   15  C14 UNL     1      23.866   3.225  52.883  1.00  0.00     0.057 C 
HETATM   16  N2  UNL     1      21.470   4.589  51.554  1.00  0.00    -0.225 NA
HETATM   17  C15 UNL     1      21.080   3.443  52.151  1.00  0.00     0.206 C 
HETATM   18  N3  UNL     1      21.481   2.183  52.827  1.00  0.00    -0.368 N 
HETATM   19  H13 UNL     1      23.013   5.803  48.555  1.00  0.00     0.161 HD
HETATM   20  H19 UNL     1      20.914   2.378  53.693  1.00  0.00     0.161 HD
ENDROOT
BRANCH   1  21
HETATM   21  O1  UNL     1      25.604   0.453  52.581  1.00  0.00    -0.357 OA
HETATM   22  C1  UNL     1      25.890  -0.242  53.781  1.00  0.00     0.209 C 
ENDBRANCH   1  21
TORSDOF 1
ENDMDL
MODEL 8
REMARK VINA RESULT:      -6.0     10.232     11.794
REMARK  1 active torsions:
REMARK  status: ('A' for Active; 'I' for Inactive)
REMARK    1  A    between atoms: O1_2  and  C2_3 
ROOT
HETATM    1  C2  UNL     1      33.116   4.977  44.962  1.00  0.00     0.082 A 
HETATM    2  C3  UNL     1      33.433   4.158  45.901  1.00  0.00     0.043 A 
HETATM    3  C4  UNL     1      33.137   5.095  46.956  1.00  0.00     0.092 A 
HETATM    4  C5  UNL     1      31.969   4.548  47.762  1.00  0.00     0.066 C 
HETATM    5  C6  UNL     1      30.748   5.279  47.849  1.00  0.00    -0.024 C 
HETATM    6  C7  UNL     1      29.530   5.786  47.847  1.00  0.00    -0.004 C 
HETATM    7  C8  UNL     1      28.487   6.764  48.063  1.00  0.00    -0.003 C 
HETATM    8  C9  UNL     1      28.527   8.011  48.562  1.00  0.00    -0.007 C 
HETATM    9  C10 UNL     1      29.969   8.115  48.850  1.00  0.00     0.148 C 
HETATM   10  N1  UNL     1      30.631   9.042  47.974  1.00  0.00    -0.370 N 
HETATM   11  C11 UNL     1      31.920   8.461  47.843  1.00  0.00     0.147 C 
HETATM   12  C12 UNL     1      31.572   8.097  46.551  1.00  0.00     0.186 C 
HETATM   13  O2  UNL     1      31.634   6.745  45.982  1.00  0.00    -0.339 OA
HETATM   14  C13 UNL     1      32.829   6.048  45.856  1.00  0.00     0.140 A 
HETATM   15  C14 UNL     1      34.014   7.091  45.683  1.00  0.00     0.057 C 
HETATM   16  N2  UNL     1      33.199   8.126  48.445  1.00  0.00    -0.225 NA
HETATM   17  C15 UNL     1      33.692   6.874  48.546  1.00  0.00     0.206 C 
HETATM   18  N3  UNL     1      34.144   5.646  47.844  1.00  0.00    -0.368 N 
HETATM   19  H13 UNL     1      30.197   9.896  47.600  1.00  0.00     0.161 HD
HETATM   20  H19 UNL     1      35.096   5.647  48.296  1.00  0.00     0.161 HD
ENDROOT
BRANCH   1  21
HETATM   21  O1  UNL     1      33.136   4.724  43.580  1.00  0.00    -0.357 OA
HETATM   22  C1  UNL     1      32.740   5.726  42.660  1.00  0.00     0.209 C 
ENDBRANCH   1  21
TORSDOF 1
ENDMDL
MODEL 9
REMARK VINA RESULT:      -6.0      9.925     12.324
REMARK  1 active torsions:
REMARK  status: ('A' for Active; 'I' for Inactive)
REMARK    1  A    between atoms: O1_2  and  C2_3 
ROOT
HETATM    1  C2  UNL     1      30.838   5.621  48.165  1.00  0.00     0.082 A 
HETATM    2  C3  UNL     1      29.555   5.642  48.251  1.00  0.00     0.043 A 
HETATM    3  C4  UNL     1      29.473   7.080  48.178  1.00  0.00     0.092 A 
HETATM    4  C5  UNL     1      28.742   7.449  46.897  1.00  0.00     0.066 C 
HETATM    5  C6  UNL     1      29.393   8.228  45.896  1.00  0.00    -0.024 C 
HETATM    6  C7  UNL     1      29.958   8.787  44.843  1.00  0.00    -0.004 C 
HETATM    7  C8  UNL     1      30.648   9.798  44.073  1.00  0.00    -0.003 C 
HETATM    8  C9  UNL     1      31.112  11.013  44.413  1.00  0.00    -0.007 C 
HETATM    9  C10 UNL     1      30.706  11.043  45.830  1.00  0.00     0.148 C 
HETATM   10  N1  UNL     1      31.834  10.976  46.718  1.00  0.00    -0.370 N 
HETATM   11  C11 UNL     1      31.302  10.261  47.823  1.00  0.00     0.147 C 
HETATM   12  C12 UNL     1      32.057   9.171  47.419  1.00  0.00     0.186 C 
HETATM   13  O2  UNL     1      31.554   7.817  47.152  1.00  0.00    -0.339 OA
HETATM   14  C13 UNL     1      30.959   7.040  48.138  1.00  0.00     0.140 A 
HETATM   15  C14 UNL     1      31.561   7.453  49.548  1.00  0.00     0.057 C 
HETATM   16  N2  UNL     1      30.408  10.227  48.967  1.00  0.00    -0.225 NA
HETATM   17  C15 UNL     1      29.409   9.336  49.131  1.00  0.00     0.206 C 
HETATM   18  N3  UNL     1      29.013   7.912  49.276  1.00  0.00    -0.368 N 
HETATM   19  H13 UNL     1      32.754  11.390  46.518  1.00  0.00     0.161 HD
HETATM   20  H19 UNL     1      28.511   8.065  50.189  1.00  0.00     0.161 HD
ENDROOT
BRANCH   1  21
HETATM   21  O1  UNL     1      31.662   4.483  48.146  1.00  0.00    -0.357 OA
HETATM   22  C1  UNL     1      31.968   3.838  46.923  1.00  0.00     0.209 C 
ENDBRANCH   1  21
TORSDOF 1
ENDMDL
