MODEL 1
REMARK VINA RESULT:      -7.2      0.000      0.000
REMARK  9 active torsions:
REMARK  status: ('A' for Active; 'I' for Inactive)
REMARK    1  A    between atoms: C2_2  and  C3_3 
REMARK    2  A    between atoms: C2_2  and  C5_8 
REMARK    3  A    between atoms: C3_3  and  O1_4 
REMARK    4  A    between atoms: O1_4  and  C4_5 
REMARK       I    between atoms: C4_5  and  N1_6 
REMARK    5  A    between atoms: C11_14  and  C12_15 
REMARK    6  A    between atoms: C11_14  and  N2_21 
REMARK    7  A    between atoms: C12_15  and  C13_16 
REMARK    8  A    between atoms: C14_17  and  C15_19 
REMARK    9  A    between atoms: C16_22  and  N3_23 
ROOT
HETATM    1  C5  UNL     1      24.626   0.151  53.337  1.00  0.00    -0.002 A 
HETATM    2  C6  UNL     1      23.589   0.914  53.009  1.00  0.00     0.018 A 
HETATM    3  C7  UNL     1      23.296  -0.427  53.495  1.00  0.00    -0.003 A 
HETATM    4  C8  UNL     1      21.982  -0.704  53.542  1.00  0.00     0.006 A 
HETATM    5  C9  UNL     1      21.179   0.476  53.070  1.00  0.00     0.043 A 
HETATM    6  C10 UNL     1      22.255   1.452  52.754  1.00  0.00    -0.043 A 
HETATM    7  C11 UNL     1      21.997   2.683  52.287  1.00  0.00     0.042 C 
ENDROOT
BRANCH   7   8
HETATM    8  C12 UNL     1      20.678   3.305  51.999  1.00  0.00     0.088 C 
BRANCH   8   9
HETATM    9  C13 UNL     1      20.485   3.473  50.523  1.00  0.00     0.001 C 
HETATM   10  C14 UNL     1      20.175   2.604  49.541  1.00  0.00     0.036 C 
HETATM   11 CL1  UNL     1      19.978   2.949  47.819  1.00  0.00    -0.087 Cl
BRANCH  10  12
HETATM   12  C15 UNL     1      19.930   1.130  49.728  1.00  0.00     0.273 C 
HETATM   13  F1  UNL     1      21.174   0.504  49.724  1.00  0.00    -0.250 F 
ENDBRANCH  10  12
ENDBRANCH   8   9
ENDBRANCH   7   8
BRANCH   7  14
HETATM   14  N2  UNL     1      23.052   3.594  51.994  1.00  0.00    -0.248 NA
HETATM   15  C16 UNL     1      23.042   4.698  52.664  1.00  0.00     0.200 C 
BRANCH  15  16
HETATM   16  N3  UNL     1      24.040   5.705  52.474  1.00  0.00    -0.394 N 
HETATM   17  H18 UNL     1      25.043   5.504  52.307  1.00  0.00     0.156 HD
HETATM   18  H19 UNL     1      24.104   6.741  52.443  1.00  0.00     0.156 HD
ENDBRANCH  15  16
ENDBRANCH   7  14
BRANCH   1  19
HETATM   19  C2  UNL     1      26.084  -0.119  53.499  1.00  0.00     0.017 C 
HETATM   20  C1  UNL     1      26.670  -0.227  52.108  1.00  0.00     0.013 C 
BRANCH  19  21
HETATM   21  C3  UNL     1      26.728   1.045  54.224  1.00  0.00     0.185 C 
BRANCH  21  22
HETATM   22  O1  UNL     1      27.975   0.724  54.791  1.00  0.00    -0.304 OA
BRANCH  22  23
HETATM   23  C4  UNL     1      29.189   1.248  54.442  1.00  0.00     0.358 C 
HETATM   24  N1  UNL     1      29.996   0.517  53.517  1.00  0.00    -0.346 N 
HETATM   25  H7  UNL     1      30.121   0.209  52.546  1.00  0.00     0.161 HD
HETATM   26  H8  UNL     1      30.854   0.058  53.885  1.00  0.00     0.161 HD
HETATM   27  O2  UNL     1      29.559   2.342  54.938  1.00  0.00    -0.239 OA
ENDBRANCH  22  23
ENDBRANCH  21  22
ENDBRANCH  19  21
ENDBRANCH   1  19
TORSDOF 9
ENDMDL
MODEL 2
REMARK VINA RESULT:      -7.1      1.461      1.597
REMARK  9 active torsions:
REMARK  status: ('A' for Active; 'I' for Inactive)
REMARK    1  A    between atoms: C2_2  and  C3_3 
REMARK    2  A    between atoms: C2_2  and  C5_8 
REMARK    3  A    between atoms: C3_3  and  O1_4 
REMARK    4  A    between atoms: O1_4  and  C4_5 
REMARK       I    between atoms: C4_5  and  N1_6 
REMARK    5  A    between atoms: C11_14  and  C12_15 
REMARK    6  A    between atoms: C11_14  and  N2_21 
REMARK    7  A    between atoms: C12_15  and  C13_16 
REMARK    8  A    between atoms: C14_17  and  C15_19 
REMARK    9  A    between atoms: C16_22  and  N3_23 
ROOT
HETATM    1  C5  UNL     1      25.224   0.628  52.672  1.00  0.00    -0.002 A 
HETATM    2  C6  UNL     1      24.045   1.236  52.609  1.00  0.00     0.018 A 
HETATM    3  C7  UNL     1      24.060  -0.126  53.124  1.00  0.00    -0.003 A 
HETATM    4  C8  UNL     1      22.844  -0.580  53.471  1.00  0.00     0.006 A 
HETATM    5  C9  UNL     1      21.798   0.471  53.222  1.00  0.00     0.043 A 
HETATM    6  C10 UNL     1      22.626   1.581  52.682  1.00  0.00    -0.043 A 
HETATM    7  C11 UNL     1      22.101   2.759  52.311  1.00  0.00     0.042 C 
ENDROOT
BRANCH   7   8
HETATM    8  C12 UNL     1      20.678   3.189  52.352  1.00  0.00     0.088 C 
BRANCH   8   9
HETATM    9  C13 UNL     1      20.145   3.375  50.964  1.00  0.00     0.001 C 
HETATM   10  C14 UNL     1      19.739   2.503  50.020  1.00  0.00     0.036 C 
HETATM   11 CL1  UNL     1      19.125   2.870  48.404  1.00  0.00    -0.087 Cl
BRANCH  10  12
HETATM   12  C15 UNL     1      19.732   1.003  50.165  1.00  0.00     0.273 C 
HETATM   13  F1  UNL     1      21.032   0.562  49.926  1.00  0.00    -0.250 F 
ENDBRANCH  10  12
ENDBRANCH   8   9
ENDBRANCH   7   8
BRANCH   7  14
HETATM   14  N2  UNL     1      22.922   3.802  51.798  1.00  0.00    -0.248 NA
HETATM   15  C16 UNL     1      23.159   4.780  52.608  1.00  0.00     0.200 C 
BRANCH  15  16
HETATM   16  N3  UNL     1      23.969   5.896  52.227  1.00  0.00    -0.394 N 
HETATM   17  H18 UNL     1      25.005   5.888  52.227  1.00  0.00     0.156 HD
HETATM   18  H19 UNL     1      23.842   6.872  51.896  1.00  0.00     0.156 HD
ENDBRANCH  15  16
ENDBRANCH   7  14
BRANCH   1  19
HETATM   19  C2  UNL     1      26.702   0.563  52.484  1.00  0.00     0.017 C 
HETATM   20  C1  UNL     1      27.145   1.925  51.996  1.00  0.00     0.013 C 
BRANCH  19  21
HETATM   21  C3  UNL     1      27.360   0.272  53.817  1.00  0.00     0.185 C 
BRANCH  21  22
HETATM   22  O1  UNL     1      27.707  -1.082  53.980  1.00  0.00    -0.304 OA
BRANCH  22  23
HETATM   23  C4  UNL     1      28.762  -1.730  53.399  1.00  0.00     0.358 C 
HETATM   24  N1  UNL     1      28.624  -3.125  53.122  1.00  0.00    -0.346 N 
HETATM   25  H7  UNL     1      28.174  -3.844  52.543  1.00  0.00     0.161 HD
HETATM   26  H8  UNL     1      29.176  -3.788  53.704  1.00  0.00     0.161 HD
HETATM   27  O2  UNL     1      29.810  -1.092  53.127  1.00  0.00    -0.239 OA
ENDBRANCH  22  23
ENDBRANCH  21  22
ENDBRANCH  19  21
ENDBRANCH   1  19
TORSDOF 9
ENDMDL
MODEL 3
REMARK VINA RESULT:      -7.0      2.277      2.428
REMARK  9 active torsions:
REMARK  status: ('A' for Active; 'I' for Inactive)
REMARK    1  A    between atoms: C2_2  and  C3_3 
REMARK    2  A    between atoms: C2_2  and  C5_8 
REMARK    3  A    between atoms: C3_3  and  O1_4 
REMARK    4  A    between atoms: O1_4  and  C4_5 
REMARK       I    between atoms: C4_5  and  N1_6 
REMARK    5  A    between atoms: C11_14  and  C12_15 
REMARK    6  A    between atoms: C11_14  and  N2_21 
REMARK    7  A    between atoms: C12_15  and  C13_16 
REMARK    8  A    between atoms: C14_17  and  C15_19 
REMARK    9  A    between atoms: C16_22  and  N3_23 
ROOT
HETATM    1  C5  UNL     1      24.790  -0.034  53.400  1.00  0.00    -0.002 A 
HETATM    2  C6  UNL     1      24.057   0.808  52.680  1.00  0.00     0.018 A 
HETATM    3  C7  UNL     1      23.357  -0.000  53.667  1.00  0.00    -0.003 A 
HETATM    4  C8  UNL     1      22.033   0.231  53.707  1.00  0.00     0.006 A 
HETATM    5  C9  UNL     1      21.652   1.279  52.698  1.00  0.00     0.043 A 
HETATM    6  C10 UNL     1      22.972   1.593  52.093  1.00  0.00    -0.043 A 
HETATM    7  C11 UNL     1      23.121   2.502  51.118  1.00  0.00     0.042 C 
ENDROOT
BRANCH   7   8
HETATM    8  C12 UNL     1      22.077   3.339  50.468  1.00  0.00     0.088 C 
BRANCH   8   9
HETATM    9  C13 UNL     1      21.996   3.035  49.004  1.00  0.00     0.001 C 
HETATM   10  C14 UNL     1      22.202   3.788  47.905  1.00  0.00     0.036 C 
HETATM   11 CL1  UNL     1      22.069   3.290  46.215  1.00  0.00    -0.087 Cl
BRANCH  10  12
HETATM   12  C15 UNL     1      22.597   5.242  47.907  1.00  0.00     0.273 C 
HETATM   13  F1  UNL     1      23.969   5.294  48.139  1.00  0.00    -0.250 F 
ENDBRANCH  10  12
ENDBRANCH   8   9
ENDBRANCH   7   8
BRANCH   7  14
HETATM   14  N2  UNL     1      24.401   2.780  50.560  1.00  0.00    -0.248 NA
HETATM   15  C16 UNL     1      24.942   3.895  50.923  1.00  0.00     0.200 C 
BRANCH  15  16
HETATM   16  N3  UNL     1      26.226   4.303  50.442  1.00  0.00    -0.394 N 
HETATM   17  H18 UNL     1      26.533   5.290  50.373  1.00  0.00     0.156 HD
HETATM   18  H19 UNL     1      27.095   3.866  50.078  1.00  0.00     0.156 HD
ENDBRANCH  15  16
ENDBRANCH   7  14
BRANCH   1  19
HETATM   19  C2  UNL     1      26.075  -0.678  53.798  1.00  0.00     0.017 C 
HETATM   20  C1  UNL     1      26.819  -1.003  52.521  1.00  0.00     0.013 C 
BRANCH  19  21
HETATM   21  C3  UNL     1      26.891   0.303  54.616  1.00  0.00     0.185 C 
BRANCH  21  22
HETATM   22  O1  UNL     1      26.943   1.589  54.048  1.00  0.00    -0.304 OA
BRANCH  22  23
HETATM   23  C4  UNL     1      28.023   2.171  53.445  1.00  0.00     0.358 C 
HETATM   24  N1  UNL     1      29.215   2.336  54.214  1.00  0.00    -0.346 N 
HETATM   25  H7  UNL     1      30.017   1.876  54.661  1.00  0.00     0.161 HD
HETATM   26  H8  UNL     1      29.476   3.302  54.498  1.00  0.00     0.161 HD
HETATM   27  O2  UNL     1      27.940   2.543  52.246  1.00  0.00    -0.239 OA
ENDBRANCH  22  23
ENDBRANCH  21  22
ENDBRANCH  19  21
ENDBRANCH   1  19
TORSDOF 9
ENDMDL
MODEL 4
REMARK VINA RESULT:      -6.7      2.637      2.942
REMARK  9 active torsions:
REMARK  status: ('A' for Active; 'I' for Inactive)
REMARK    1  A    between atoms: C2_2  and  C3_3 
REMARK    2  A    between atoms: C2_2  and  C5_8 
REMARK    3  A    between atoms: C3_3  and  O1_4 
REMARK    4  A    between atoms: O1_4  and  C4_5 
REMARK       I    between atoms: C4_5  and  N1_6 
REMARK    5  A    between atoms: C11_14  and  C12_15 
REMARK    6  A    between atoms: C11_14  and  N2_21 
REMARK    7  A    between atoms: C12_15  and  C13_16 
REMARK    8  A    between atoms: C14_17  and  C15_19 
REMARK    9  A    between atoms: C16_22  and  N3_23 
ROOT
HETATM    1  C5  UNL     1      24.502   0.611  52.891  1.00  0.00    -0.002 A 
HETATM    2  C6  UNL     1      24.117   1.438  51.925  1.00  0.00     0.018 A 
HETATM    3  C7  UNL     1      23.163   0.421  52.344  1.00  0.00    -0.003 A 
HETATM    4  C8  UNL     1      22.000   0.470  51.673  1.00  0.00     0.006 A 
HETATM    5  C9  UNL     1      22.021   1.584  50.663  1.00  0.00     0.043 A 
HETATM    6  C10 UNL     1      23.380   2.145  50.880  1.00  0.00    -0.043 A 
HETATM    7  C11 UNL     1      23.850   3.188  50.177  1.00  0.00     0.042 C 
ENDROOT
BRANCH   7   8
HETATM    8  C12 UNL     1      23.171   3.960  49.104  1.00  0.00     0.088 C 
BRANCH   8   9
HETATM    9  C13 UNL     1      22.793   5.323  49.595  1.00  0.00     0.001 C 
HETATM   10  C14 UNL     1      21.761   5.770  50.339  1.00  0.00     0.036 C 
HETATM   11 CL1  UNL     1      21.439   7.430  50.849  1.00  0.00    -0.087 Cl
BRANCH  10  12
HETATM   12  C15 UNL     1      20.653   4.913  50.894  1.00  0.00     0.273 C 
HETATM   13  F1  UNL     1      21.094   4.415  52.118  1.00  0.00    -0.250 F 
ENDBRANCH  10  12
ENDBRANCH   8   9
ENDBRANCH   7   8
BRANCH   7  14
HETATM   14  N2  UNL     1      25.157   3.702  50.410  1.00  0.00    -0.248 NA
HETATM   15  C16 UNL     1      25.911   3.815  49.367  1.00  0.00     0.200 C 
BRANCH  15  16
HETATM   16  N3  UNL     1      27.247   4.317  49.452  1.00  0.00    -0.394 N 
HETATM   17  H18 UNL     1      28.090   3.717  49.519  1.00  0.00     0.156 HD
HETATM   18  H19 UNL     1      27.734   5.234  49.473  1.00  0.00     0.156 HD
ENDBRANCH  15  16
ENDBRANCH   7  14
BRANCH   1  19
HETATM   19  C2  UNL     1      25.479   0.092  53.891  1.00  0.00     0.017 C 
HETATM   20  C1  UNL     1      26.211  -1.059  53.238  1.00  0.00     0.013 C 
BRANCH  19  21
HETATM   21  C3  UNL     1      26.470   1.186  54.231  1.00  0.00     0.185 C 
BRANCH  21  22
HETATM   22  O1  UNL     1      27.608   0.712  54.909  1.00  0.00    -0.304 OA
BRANCH  22  23
HETATM   23  C4  UNL     1      28.909   0.835  54.506  1.00  0.00     0.358 C 
HETATM   24  N1  UNL     1      29.510   2.130  54.562  1.00  0.00    -0.346 N 
HETATM   25  H7  UNL     1      29.878   2.879  55.160  1.00  0.00     0.161 HD
HETATM   26  H8  UNL     1      29.703   2.610  53.660  1.00  0.00     0.161 HD
HETATM   27  O2  UNL     1      29.533  -0.179  54.102  1.00  0.00    -0.239 OA
ENDBRANCH  22  23
ENDBRANCH  21  22
ENDBRANCH  19  21
ENDBRANCH   1  19
TORSDOF 9
ENDMDL
MODEL 5
REMARK VINA RESULT:      -6.6      3.435      4.318
REMARK  9 active torsions:
REMARK  status: ('A' for Active; 'I' for Inactive)
REMARK    1  A    between atoms: C2_2  and  C3_3 
REMARK    2  A    between atoms: C2_2  and  C5_8 
REMARK    3  A    between atoms: C3_3  and  O1_4 
REMARK    4  A    between atoms: O1_4  and  C4_5 
REMARK       I    between atoms: C4_5  and  N1_6 
REMARK    5  A    between atoms: C11_14  and  C12_15 
REMARK    6  A    between atoms: C11_14  and  N2_21 
REMARK    7  A    between atoms: C12_15  and  C13_16 
REMARK    8  A    between atoms: C14_17  and  C15_19 
REMARK    9  A    between atoms: C16_22  and  N3_23 
ROOT
HETATM    1  C5  UNL     1      25.285   0.830  52.105  1.00  0.00    -0.002 A 
HETATM    2  C6  UNL     1      23.986   0.790  52.382  1.00  0.00     0.018 A 
HETATM    3  C7  UNL     1      24.456   1.908  51.577  1.00  0.00    -0.003 A 
HETATM    4  C8  UNL     1      23.479   2.760  51.221  1.00  0.00     0.006 A 
HETATM    5  C9  UNL     1      22.156   2.302  51.770  1.00  0.00     0.043 A 
HETATM    6  C10 UNL     1      22.553   1.061  52.485  1.00  0.00    -0.043 A 
HETATM    7  C11 UNL     1      21.670   0.295  53.144  1.00  0.00     0.042 C 
ENDROOT
BRANCH   7   8
HETATM    8  C12 UNL     1      20.206   0.497  53.298  1.00  0.00     0.088 C 
BRANCH   8   9
HETATM    9  C13 UNL     1      19.518  -0.809  53.549  1.00  0.00     0.001 C 
HETATM   10  C14 UNL     1      18.305  -1.282  53.199  1.00  0.00     0.036 C 
HETATM   11 CL1  UNL     1      17.617  -2.867  53.570  1.00  0.00    -0.087 Cl
BRANCH  10  12
HETATM   12  C15 UNL     1      17.272  -0.527  52.403  1.00  0.00     0.273 C 
HETATM   13  F1  UNL     1      16.072  -0.610  53.106  1.00  0.00    -0.250 F 
ENDBRANCH  10  12
ENDBRANCH   8   9
ENDBRANCH   7   8
BRANCH   7  14
HETATM   14  N2  UNL     1      22.084  -0.889  53.819  1.00  0.00    -0.248 NA
HETATM   15  C16 UNL     1      22.689  -0.710  54.946  1.00  0.00     0.200 C 
BRANCH  15  16
HETATM   16  N3  UNL     1      23.159  -1.808  55.733  1.00  0.00    -0.394 N 
HETATM   17  H18 UNL     1      23.783  -1.709  56.554  1.00  0.00     0.156 HD
HETATM   18  H19 UNL     1      23.067  -2.843  55.758  1.00  0.00     0.156 HD
ENDBRANCH  15  16
ENDBRANCH   7  14
BRANCH   1  19
HETATM   19  C2  UNL     1      26.679   0.304  52.173  1.00  0.00     0.017 C 
HETATM   20  C1  UNL     1      27.537   1.404  52.759  1.00  0.00     0.013 C 
BRANCH  19  21
HETATM   21  C3  UNL     1      26.712  -0.899  53.092  1.00  0.00     0.185 C 
BRANCH  21  22
HETATM   22  O1  UNL     1      27.928  -1.032  53.787  1.00  0.00    -0.304 OA
BRANCH  22  23
HETATM   23  C4  UNL     1      28.983  -1.830  53.441  1.00  0.00     0.358 C 
HETATM   24  N1  UNL     1      28.718  -3.201  53.138  1.00  0.00    -0.346 N 
HETATM   25  H7  UNL     1      28.307  -3.868  52.474  1.00  0.00     0.161 HD
HETATM   26  H8  UNL     1      29.040  -3.916  53.821  1.00  0.00     0.161 HD
HETATM   27  O2  UNL     1      30.142  -1.345  53.399  1.00  0.00    -0.239 OA
ENDBRANCH  22  23
ENDBRANCH  21  22
ENDBRANCH  19  21
ENDBRANCH   1  19
TORSDOF 9
ENDMDL
MODEL 6
REMARK VINA RESULT:      -6.6      2.237      2.414
REMARK  9 active torsions:
REMARK  status: ('A' for Active; 'I' for Inactive)
REMARK    1  A    between atoms: C2_2  and  C3_3 
REMARK    2  A    between atoms: C2_2  and  C5_8 
REMARK    3  A    between atoms: C3_3  and  O1_4 
REMARK    4  A    between atoms: O1_4  and  C4_5 
REMARK       I    between atoms: C4_5  and  N1_6 
REMARK    5  A    between atoms: C11_14  and  C12_15 
REMARK    6  A    between atoms: C11_14  and  N2_21 
REMARK    7  A    between atoms: C12_15  and  C13_16 
REMARK    8  A    between atoms: C14_17  and  C15_19 
REMARK    9  A    between atoms: C16_22  and  N3_23 
ROOT
HETATM    1  C5  UNL     1      24.673  -0.188  52.955  1.00  0.00    -0.002 A 
HETATM    2  C6  UNL     1      23.484   0.401  52.888  1.00  0.00     0.018 A 
HETATM    3  C7  UNL     1      23.658  -0.623  53.908  1.00  0.00    -0.003 A 
HETATM    4  C8  UNL     1      22.559  -0.828  54.654  1.00  0.00     0.006 A 
HETATM    5  C9  UNL     1      21.445   0.079  54.209  1.00  0.00     0.043 A 
HETATM    6  C10 UNL     1      22.100   0.820  53.099  1.00  0.00    -0.043 A 
HETATM    7  C11 UNL     1      21.464   1.764  52.388  1.00  0.00     0.042 C 
ENDROOT
BRANCH   7   8
HETATM    8  C12 UNL     1      20.066   2.246  52.536  1.00  0.00     0.088 C 
BRANCH   8   9
HETATM    9  C13 UNL     1      19.194   1.670  51.463  1.00  0.00     0.001 C 
HETATM   10  C14 UNL     1      18.465   0.539  51.392  1.00  0.00     0.036 C 
HETATM   11 CL1  UNL     1      17.470  -0.020  50.043  1.00  0.00    -0.087 Cl
BRANCH  10  12
HETATM   12  C15 UNL     1      18.355  -0.496  52.481  1.00  0.00     0.273 C 
HETATM   13  F1  UNL     1      17.366  -1.397  52.092  1.00  0.00    -0.250 F 
ENDBRANCH  10  12
ENDBRANCH   8   9
ENDBRANCH   7   8
BRANCH   7  14
HETATM   14  N2  UNL     1      22.121   2.455  51.331  1.00  0.00    -0.248 NA
HETATM   15  C16 UNL     1      22.369   3.704  51.546  1.00  0.00     0.200 C 
BRANCH  15  16
HETATM   16  N3  UNL     1      23.024   4.522  50.572  1.00  0.00    -0.394 N 
HETATM   17  H18 UNL     1      23.822   5.148  50.782  1.00  0.00     0.156 HD
HETATM   18  H19 UNL     1      22.952   4.732  49.557  1.00  0.00     0.156 HD
ENDBRANCH  15  16
ENDBRANCH   7  14
BRANCH   1  19
HETATM   19  C2  UNL     1      26.081  -0.403  52.513  1.00  0.00     0.017 C 
HETATM   20  C1  UNL     1      26.527   0.870  51.826  1.00  0.00     0.013 C 
BRANCH  19  21
HETATM   21  C3  UNL     1      26.952  -0.646  53.729  1.00  0.00     0.185 C 
BRANCH  21  22
HETATM   22  O1  UNL     1      28.323  -0.453  53.476  1.00  0.00    -0.304 OA
BRANCH  22  23
HETATM   23  C4  UNL     1      29.303  -1.406  53.524  1.00  0.00     0.358 C 
HETATM   24  N1  UNL     1      28.944  -2.756  53.225  1.00  0.00    -0.346 N 
HETATM   25  H7  UNL     1      28.662  -3.428  52.502  1.00  0.00     0.161 HD
HETATM   26  H8  UNL     1      28.932  -3.436  54.012  1.00  0.00     0.161 HD
HETATM   27  O2  UNL     1      30.478  -1.074  53.826  1.00  0.00    -0.239 OA
ENDBRANCH  22  23
ENDBRANCH  21  22
ENDBRANCH  19  21
ENDBRANCH   1  19
TORSDOF 9
ENDMDL
MODEL 7
REMARK VINA RESULT:      -6.4      4.782      7.439
REMARK  9 active torsions:
REMARK  status: ('A' for Active; 'I' for Inactive)
REMARK    1  A    between atoms: C2_2  and  C3_3 
REMARK    2  A    between atoms: C2_2  and  C5_8 
REMARK    3  A    between atoms: C3_3  and  O1_4 
REMARK    4  A    between atoms: O1_4  and  C4_5 
REMARK       I    between atoms: C4_5  and  N1_6 
REMARK    5  A    between atoms: C11_14  and  C12_15 
REMARK    6  A    between atoms: C11_14  and  N2_21 
REMARK    7  A    between atoms: C12_15  and  C13_16 
REMARK    8  A    between atoms: C14_17  and  C15_19 
REMARK    9  A    between atoms: C16_22  and  N3_23 
ROOT
HETATM    1  C5  UNL     1      23.679   2.801  49.904  1.00  0.00    -0.002 A 
HETATM    2  C6  UNL     1      24.216   2.205  50.963  1.00  0.00     0.018 A 
HETATM    3  C7  UNL     1      25.097   3.033  50.153  1.00  0.00    -0.003 A 
HETATM    4  C8  UNL     1      26.361   3.075  50.609  1.00  0.00     0.006 A 
HETATM    5  C9  UNL     1      26.501   2.236  51.849  1.00  0.00     0.043 A 
HETATM    6  C10 UNL     1      25.115   1.723  52.009  1.00  0.00    -0.043 A 
HETATM    7  C11 UNL     1      24.759   0.909  53.015  1.00  0.00     0.042 C 
ENDROOT
BRANCH   7   8
HETATM    8  C12 UNL     1      25.606   0.374  54.114  1.00  0.00     0.088 C 
BRANCH   8   9
HETATM    9  C13 UNL     1      26.682  -0.511  53.565  1.00  0.00     0.001 C 
HETATM   10  C14 UNL     1      28.010  -0.575  53.787  1.00  0.00     0.036 C 
HETATM   11 CL1  UNL     1      29.173  -1.688  53.057  1.00  0.00    -0.087 Cl
BRANCH  10  12
HETATM   12  C15 UNL     1      28.780   0.316  54.726  1.00  0.00     0.273 C 
HETATM   13  F1  UNL     1      29.807   0.901  53.987  1.00  0.00    -0.250 F 
ENDBRANCH  10  12
ENDBRANCH   8   9
ENDBRANCH   7   8
BRANCH   7  14
HETATM   14  N2  UNL     1      23.422   0.435  53.140  1.00  0.00    -0.248 NA
HETATM   15  C16 UNL     1      23.292  -0.762  53.608  1.00  0.00     0.200 C 
BRANCH  15  16
HETATM   16  N3  UNL     1      22.008  -1.366  53.788  1.00  0.00    -0.394 N 
HETATM   17  H18 UNL     1      21.785  -2.344  53.528  1.00  0.00     0.156 HD
HETATM   18  H19 UNL     1      21.071  -1.107  54.152  1.00  0.00     0.156 HD
ENDBRANCH  15  16
ENDBRANCH   7  14
BRANCH   1  19
HETATM   19  C2  UNL     1      22.548   3.125  48.987  1.00  0.00     0.017 C 
HETATM   20  C1  UNL     1      22.081   1.817  48.384  1.00  0.00     0.013 C 
BRANCH  19  21
HETATM   21  C3  UNL     1      21.418   3.738  49.788  1.00  0.00     0.185 C 
BRANCH  21  22
HETATM   22  O1  UNL     1      20.643   2.783  50.472  1.00  0.00    -0.304 OA
BRANCH  22  23
HETATM   23  C4  UNL     1      20.215   2.857  51.769  1.00  0.00     0.358 C 
HETATM   24  N1  UNL     1      20.846   2.014  52.734  1.00  0.00    -0.346 N 
HETATM   25  H7  UNL     1      21.695   1.821  53.278  1.00  0.00     0.161 HD
HETATM   26  H8  UNL     1      20.292   1.221  53.116  1.00  0.00     0.161 HD
HETATM   27  O2  UNL     1      19.290   3.653  52.074  1.00  0.00    -0.239 OA
ENDBRANCH  22  23
ENDBRANCH  21  22
ENDBRANCH  19  21
ENDBRANCH   1  19
TORSDOF 9
ENDMDL
MODEL 8
REMARK VINA RESULT:      -6.4      2.591      2.919
REMARK  9 active torsions:
REMARK  status: ('A' for Active; 'I' for Inactive)
REMARK    1  A    between atoms: C2_2  and  C3_3 
REMARK    2  A    between atoms: C2_2  and  C5_8 
REMARK    3  A    between atoms: C3_3  and  O1_4 
REMARK    4  A    between atoms: O1_4  and  C4_5 
REMARK       I    between atoms: C4_5  and  N1_6 
REMARK    5  A    between atoms: C11_14  and  C12_15 
REMARK    6  A    between atoms: C11_14  and  N2_21 
REMARK    7  A    between atoms: C12_15  and  C13_16 
REMARK    8  A    between atoms: C14_17  and  C15_19 
REMARK    9  A    between atoms: C16_22  and  N3_23 
ROOT
HETATM    1  C5  UNL     1      24.073  -0.020  53.352  1.00  0.00    -0.002 A 
HETATM    2  C6  UNL     1      22.828   0.025  52.887  1.00  0.00     0.018 A 
HETATM    3  C7  UNL     1      23.054  -0.751  54.098  1.00  0.00    -0.003 A 
HETATM    4  C8  UNL     1      21.939  -1.324  54.583  1.00  0.00     0.006 A 
HETATM    5  C9  UNL     1      20.757  -0.990  53.715  1.00  0.00     0.043 A 
HETATM    6  C10 UNL     1      21.392  -0.141  52.674  1.00  0.00    -0.043 A 
HETATM    7  C11 UNL     1      20.697   0.399  51.661  1.00  0.00     0.042 C 
ENDROOT
BRANCH   7   8
HETATM    8  C12 UNL     1      19.244   0.280  51.372  1.00  0.00     0.088 C 
BRANCH   8   9
HETATM    9  C13 UNL     1      18.530   1.546  51.733  1.00  0.00     0.001 C 
HETATM   10  C14 UNL     1      17.975   2.523  50.989  1.00  0.00     0.036 C 
HETATM   11 CL1  UNL     1      17.154   3.980  51.561  1.00  0.00    -0.087 Cl
BRANCH  10  12
HETATM   12  C15 UNL     1      17.947   2.562  49.484  1.00  0.00     0.273 C 
HETATM   13  F1  UNL     1      17.925   3.903  49.108  1.00  0.00    -0.250 F 
ENDBRANCH  10  12
ENDBRANCH   8   9
ENDBRANCH   7   8
BRANCH   7  14
HETATM   14  N2  UNL     1      21.336   1.208  50.679  1.00  0.00    -0.248 NA
HETATM   15  C16 UNL     1      21.287   0.765  49.467  1.00  0.00     0.200 C 
BRANCH  15  16
HETATM   16  N3  UNL     1      21.886   1.475  48.379  1.00  0.00    -0.394 N 
HETATM   17  H18 UNL     1      21.932   1.116  47.408  1.00  0.00     0.156 HD
HETATM   18  H19 UNL     1      22.370   2.378  48.212  1.00  0.00     0.156 HD
ENDBRANCH  15  16
ENDBRANCH   7  14
BRANCH   1  19
HETATM   19  C2  UNL     1      25.524   0.322  53.312  1.00  0.00     0.017 C 
HETATM   20  C1  UNL     1      25.620   1.801  53.008  1.00  0.00     0.013 C 
BRANCH  19  21
HETATM   21  C3  UNL     1      26.136   0.050  54.671  1.00  0.00     0.185 C 
BRANCH  21  22
HETATM   22  O1  UNL     1      27.231   0.884  54.962  1.00  0.00    -0.304 OA
BRANCH  22  23
HETATM   23  C4  UNL     1      28.546   0.633  54.680  1.00  0.00     0.358 C 
HETATM   24  N1  UNL     1      29.427   1.748  54.536  1.00  0.00    -0.346 N 
HETATM   25  H7  UNL     1      29.924   2.513  55.005  1.00  0.00     0.161 HD
HETATM   26  H8  UNL     1      29.776   1.965  53.580  1.00  0.00     0.161 HD
HETATM   27  O2  UNL     1      28.938  -0.555  54.555  1.00  0.00    -0.239 OA
ENDBRANCH  22  23
ENDBRANCH  21  22
ENDBRANCH  19  21
ENDBRANCH   1  19
TORSDOF 9
ENDMDL
MODEL 9
REMARK VINA RESULT:      -6.3      3.686      4.980
REMARK  9 active torsions:
REMARK  status: ('A' for Active; 'I' for Inactive)
REMARK    1  A    between atoms: C2_2  and  C3_3 
REMARK    2  A    between atoms: C2_2  and  C5_8 
REMARK    3  A    between atoms: C3_3  and  O1_4 
REMARK    4  A    between atoms: O1_4  and  C4_5 
REMARK       I    between atoms: C4_5  and  N1_6 
REMARK    5  A    between atoms: C11_14  and  C12_15 
REMARK    6  A    between atoms: C11_14  and  N2_21 
REMARK    7  A    between atoms: C12_15  and  C13_16 
REMARK    8  A    between atoms: C14_17  and  C15_19 
REMARK    9  A    between atoms: C16_22  and  N3_23 
ROOT
HETATM    1  C5  UNL     1      21.931   0.763  52.166  1.00  0.00    -0.002 A 
HETATM    2  C6  UNL     1      22.451   1.723  51.408  1.00  0.00     0.018 A 
HETATM    3  C7  UNL     1      21.623   0.728  50.741  1.00  0.00    -0.003 A 
HETATM    4  C8  UNL     1      21.502   0.933  49.418  1.00  0.00     0.006 A 
HETATM    5  C9  UNL     1      22.273   2.154  49.002  1.00  0.00     0.043 A 
HETATM    6  C10 UNL     1      22.841   2.595  50.303  1.00  0.00    -0.043 A 
HETATM    7  C11 UNL     1      23.622   3.681  50.418  1.00  0.00     0.042 C 
ENDROOT
BRANCH   7   8
HETATM    8  C12 UNL     1      24.065   4.617  49.351  1.00  0.00     0.088 C 
BRANCH   8   9
HETATM    9  C13 UNL     1      25.533   4.466  49.095  1.00  0.00     0.001 C 
HETATM   10  C14 UNL     1      26.510   5.360  48.844  1.00  0.00     0.036 C 
HETATM   11 CL1  UNL     1      28.223   5.033  48.558  1.00  0.00    -0.087 Cl
BRANCH  10  12
HETATM   12  C15 UNL     1      26.324   6.852  48.756  1.00  0.00     0.273 C 
HETATM   13  F1  UNL     1      25.710   7.116  47.534  1.00  0.00    -0.250 F 
ENDBRANCH  10  12
ENDBRANCH   8   9
ENDBRANCH   7   8
BRANCH   7  14
HETATM   14  N2  UNL     1      24.150   4.077  51.679  1.00  0.00    -0.248 NA
HETATM   15  C16 UNL     1      23.496   5.004  52.296  1.00  0.00     0.200 C 
BRANCH  15  16
HETATM   16  N3  UNL     1      23.911   5.499  53.572  1.00  0.00    -0.394 N 
HETATM   17  H18 UNL     1      24.300   4.906  54.326  1.00  0.00     0.156 HD
HETATM   18  H19 UNL     1      23.959   6.406  54.076  1.00  0.00     0.156 HD
ENDBRANCH  15  16
ENDBRANCH   7  14
BRANCH   1  19
HETATM   19  C2  UNL     1      21.704   0.067  53.466  1.00  0.00     0.017 C 
HETATM   20  C1  UNL     1      20.286  -0.462  53.440  1.00  0.00     0.013 C 
BRANCH  19  21
HETATM   21  C3  UNL     1      22.669  -1.094  53.583  1.00  0.00     0.185 C 
BRANCH  21  22
HETATM   22  O1  UNL     1      23.984  -0.762  53.209  1.00  0.00    -0.304 OA
BRANCH  22  23
HETATM   23  C4  UNL     1      25.002  -0.395  54.046  1.00  0.00     0.358 C 
HETATM   24  N1  UNL     1      25.686   0.830  53.775  1.00  0.00    -0.346 N 
HETATM   25  H7  UNL     1      25.639   1.856  53.775  1.00  0.00     0.161 HD
HETATM   26  H8  UNL     1      26.662   0.769  53.420  1.00  0.00     0.161 HD
HETATM   27  O2  UNL     1      25.306  -1.134  55.016  1.00  0.00    -0.239 OA
ENDBRANCH  22  23
ENDBRANCH  21  22
ENDBRANCH  19  21
ENDBRANCH   1  19
TORSDOF 9
ENDMDL
