MODEL 1
REMARK VINA RESULT:      -6.8      0.000      0.000
REMARK  4 active torsions:
REMARK  status: ('A' for Active; 'I' for Inactive)
REMARK    1  A    between atoms: C3_3  and  C4_4 
REMARK    2  A    between atoms: C4_4  and  C5_5 
REMARK    3  A    between atoms: C5_5  and  C6_6 
REMARK    4  A    between atoms: C6_6  and  O2_8 
ROOT
HETATM    1  C1  UNL     1      23.397   4.572  53.125  1.00  0.00     0.068 C 
HETATM    2  C2  UNL     1      24.158   3.460  52.436  1.00  0.00     0.005 C 
HETATM    3  C3  UNL     1      24.159   2.105  52.472  1.00  0.00    -0.058 C 
HETATM    4  C7  UNL     1      23.346   1.017  53.007  1.00  0.00     0.038 C 
HETATM    5  C8  UNL     1      21.897   1.280  53.143  1.00  0.00     0.030 C 
HETATM    6  C9  UNL     1      21.068   1.273  51.872  1.00  0.00     0.093 C 
HETATM    7  N1  UNL     1      19.883   2.026  52.169  1.00  0.00    -0.403 N 
HETATM    8  C10 UNL     1      20.632   3.066  51.699  1.00  0.00     0.077 A 
HETATM    9  C11 UNL     1      21.591   3.622  50.920  1.00  0.00     0.091 A 
HETATM   10  C12 UNL     1      22.568   3.450  50.001  1.00  0.00     0.056 A 
HETATM   11  C13 UNL     1      23.135   2.435  49.294  1.00  0.00     0.030 A 
HETATM   12  C14 UNL     1      22.236   1.669  49.991  1.00  0.00    -0.009 A 
HETATM   13  C15 UNL     1      21.382   2.264  50.876  1.00  0.00     0.038 A 
HETATM   14  O3  UNL     1      23.243   4.689  49.691  1.00  0.00    -0.336 OA
HETATM   15  C16 UNL     1      24.671   4.613  50.043  1.00  0.00     0.297 C 
HETATM   16  N2  UNL     1      24.857   4.299  51.455  1.00  0.00    -0.372 N 
HETATM   17  H14 UNL     1      18.904   2.266  52.485  1.00  0.00     0.154 HD
HETATM   18  H20 UNL     1      25.711   4.785  51.875  1.00  0.00     0.161 HD
ENDROOT
BRANCH   3  19
HETATM   19  C4  UNL     1      25.199   1.549  51.560  1.00  0.00     0.046 C 
BRANCH  19  20
HETATM   20  C5  UNL     1      26.438   1.028  52.237  1.00  0.00     0.114 C 
BRANCH  20  21
HETATM   21  C6  UNL     1      27.339   1.983  52.884  1.00  0.00     0.139 C 
HETATM   22  O1  UNL     1      28.014   2.447  53.868  1.00  0.00    -0.650 OA
BRANCH  21  23
HETATM   23  O2  UNL     1      27.671   2.926  51.940  1.00  0.00    -0.776 OA
HETATM   24  H8  UNL     1      27.138   3.226  51.170  1.00  0.00     0.167 HD
ENDBRANCH  21  23
ENDBRANCH  20  21
ENDBRANCH  19  20
ENDBRANCH   3  19
TORSDOF 4
ENDMDL
MODEL 2
REMARK VINA RESULT:      -6.6      3.154      4.435
REMARK  4 active torsions:
REMARK  status: ('A' for Active; 'I' for Inactive)
REMARK    1  A    between atoms: C3_3  and  C4_4 
REMARK    2  A    between atoms: C4_4  and  C5_5 
REMARK    3  A    between atoms: C5_5  and  C6_6 
REMARK    4  A    between atoms: C6_6  and  O2_8 
ROOT
HETATM    1  C1  UNL     1      22.945   2.475  48.970  1.00  0.00     0.068 C 
HETATM    2  C2  UNL     1      22.552   1.633  50.163  1.00  0.00     0.005 C 
HETATM    3  C3  UNL     1      22.917   1.549  51.466  1.00  0.00    -0.058 C 
HETATM    4  C7  UNL     1      23.694   2.304  52.443  1.00  0.00     0.038 C 
HETATM    5  C8  UNL     1      23.752   3.770  52.250  1.00  0.00     0.030 C 
HETATM    6  C9  UNL     1      22.516   4.568  52.618  1.00  0.00     0.093 C 
HETATM    7  N1  UNL     1      22.612   5.803  51.895  1.00  0.00    -0.403 N 
HETATM    8  C10 UNL     1      21.909   5.110  50.953  1.00  0.00     0.077 A 
HETATM    9  C11 UNL     1      21.025   4.169  50.540  1.00  0.00     0.091 A 
HETATM   10  C12 UNL     1      20.182   3.163  50.866  1.00  0.00     0.056 A 
HETATM   11  C13 UNL     1      19.746   2.520  51.983  1.00  0.00     0.030 A 
HETATM   12  C14 UNL     1      20.603   3.385  52.615  1.00  0.00    -0.009 A 
HETATM   13  C15 UNL     1      21.310   4.293  51.880  1.00  0.00     0.038 A 
HETATM   14  O3  UNL     1      19.584   2.559  49.698  1.00  0.00    -0.336 OA
HETATM   15  C16 UNL     1      19.954   1.137  49.593  1.00  0.00     0.297 C 
HETATM   16  N2  UNL     1      21.402   0.964  49.543  1.00  0.00    -0.372 N 
HETATM   17  H14 UNL     1      22.854   6.802  51.650  1.00  0.00     0.154 HD
HETATM   18  H20 UNL     1      21.697   0.152  48.915  1.00  0.00     0.161 HD
ENDROOT
BRANCH   3  19
HETATM   19  C4  UNL     1      22.174   0.456  52.157  1.00  0.00     0.046 C 
BRANCH  19  20
HETATM   20  C5  UNL     1      22.484   0.291  53.620  1.00  0.00     0.114 C 
BRANCH  20  21
HETATM   21  C6  UNL     1      21.629  -0.583  54.425  1.00  0.00     0.139 C 
HETATM   22  O1  UNL     1      21.288  -1.703  54.944  1.00  0.00    -0.650 OA
BRANCH  21  23
HETATM   23  O2  UNL     1      20.610   0.196  54.922  1.00  0.00    -0.776 OA
HETATM   24  H8  UNL     1      20.682   1.034  55.431  1.00  0.00     0.167 HD
ENDBRANCH  21  23
ENDBRANCH  20  21
ENDBRANCH  19  20
ENDBRANCH   3  19
TORSDOF 4
ENDMDL
MODEL 3
REMARK VINA RESULT:      -6.4      1.632      2.147
REMARK  4 active torsions:
REMARK  status: ('A' for Active; 'I' for Inactive)
REMARK    1  A    between atoms: C3_3  and  C4_4 
REMARK    2  A    between atoms: C4_4  and  C5_5 
REMARK    3  A    between atoms: C5_5  and  C6_6 
REMARK    4  A    between atoms: C6_6  and  O2_8 
ROOT
HETATM    1  C1  UNL     1      20.800   4.030  52.266  1.00  0.00     0.068 C 
HETATM    2  C2  UNL     1      22.259   3.629  52.282  1.00  0.00     0.005 C 
HETATM    3  C3  UNL     1      22.963   2.484  52.111  1.00  0.00    -0.058 C 
HETATM    4  C7  UNL     1      22.747   1.118  51.644  1.00  0.00     0.038 C 
HETATM    5  C8  UNL     1      21.685   0.925  50.632  1.00  0.00     0.030 C 
HETATM    6  C9  UNL     1      21.993   1.360  49.212  1.00  0.00     0.093 C 
HETATM    7  N1  UNL     1      20.724   1.558  48.574  1.00  0.00    -0.403 N 
HETATM    8  C10 UNL     1      20.888   2.836  49.023  1.00  0.00     0.077 A 
HETATM    9  C11 UNL     1      21.625   3.917  49.379  1.00  0.00     0.091 A 
HETATM   10  C12 UNL     1      22.847   4.465  49.560  1.00  0.00     0.056 A 
HETATM   11  C13 UNL     1      24.154   4.109  49.428  1.00  0.00     0.030 A 
HETATM   12  C14 UNL     1      23.616   2.909  49.039  1.00  0.00    -0.009 A 
HETATM   13  C15 UNL     1      22.259   2.759  48.994  1.00  0.00     0.038 A 
HETATM   14  O3  UNL     1      22.765   5.812  50.076  1.00  0.00    -0.336 OA
HETATM   15  C16 UNL     1      23.413   5.910  51.395  1.00  0.00     0.297 C 
HETATM   16  N2  UNL     1      22.818   4.985  52.353  1.00  0.00    -0.372 N 
HETATM   17  H14 UNL     1      19.835   1.367  48.036  1.00  0.00     0.154 HD
HETATM   18  H20 UNL     1      22.792   5.381  53.345  1.00  0.00     0.161 HD
ENDROOT
BRANCH   3  19
HETATM   19  C4  UNL     1      24.423   2.725  52.290  1.00  0.00     0.046 C 
BRANCH  19  20
HETATM   20  C5  UNL     1      25.240   1.508  52.631  1.00  0.00     0.114 C 
BRANCH  20  21
HETATM   21  C6  UNL     1      26.063   1.531  53.841  1.00  0.00     0.139 C 
HETATM   22  O1  UNL     1      26.552   1.030  54.913  1.00  0.00    -0.650 OA
BRANCH  21  23
HETATM   23  O2  UNL     1      26.670   2.764  53.892  1.00  0.00    -0.776 OA
HETATM   24  H8  UNL     1      27.050   3.219  54.676  1.00  0.00     0.167 HD
ENDBRANCH  21  23
ENDBRANCH  20  21
ENDBRANCH  19  20
ENDBRANCH   3  19
TORSDOF 4
ENDMDL
MODEL 4
REMARK VINA RESULT:      -6.4      1.681      3.719
REMARK  4 active torsions:
REMARK  status: ('A' for Active; 'I' for Inactive)
REMARK    1  A    between atoms: C3_3  and  C4_4 
REMARK    2  A    between atoms: C4_4  and  C5_5 
REMARK    3  A    between atoms: C5_5  and  C6_6 
REMARK    4  A    between atoms: C6_6  and  O2_8 
ROOT
HETATM    1  C1  UNL     1      22.285   1.721  49.513  1.00  0.00     0.068 C 
HETATM    2  C2  UNL     1      22.973   1.872  50.852  1.00  0.00     0.005 C 
HETATM    3  C3  UNL     1      24.217   2.195  51.283  1.00  0.00    -0.058 C 
HETATM    4  C7  UNL     1      25.461   2.741  50.750  1.00  0.00     0.038 C 
HETATM    5  C8  UNL     1      25.338   3.661  49.598  1.00  0.00     0.030 C 
HETATM    6  C9  UNL     1      24.844   5.067  49.882  1.00  0.00     0.093 C 
HETATM    7  N1  UNL     1      24.334   5.566  48.638  1.00  0.00    -0.403 N 
HETATM    8  C10 UNL     1      23.163   5.039  49.102  1.00  0.00     0.077 A 
HETATM    9  C11 UNL     1      22.293   4.673  50.074  1.00  0.00     0.091 A 
HETATM   10  C12 UNL     1      22.024   4.566  51.395  1.00  0.00     0.056 A 
HETATM   11  C13 UNL     1      22.624   4.847  52.583  1.00  0.00     0.030 A 
HETATM   12  C14 UNL     1      23.648   5.274  51.776  1.00  0.00    -0.009 A 
HETATM   13  C15 UNL     1      23.514   5.202  50.419  1.00  0.00     0.038 A 
HETATM   14  O3  UNL     1      20.743   3.944  51.638  1.00  0.00    -0.336 OA
HETATM   15  C16 UNL     1      20.902   2.688  52.390  1.00  0.00     0.297 C 
HETATM   16  N2  UNL     1      21.773   1.751  51.688  1.00  0.00    -0.372 N 
HETATM   17  H14 UNL     1      24.289   6.032  47.691  1.00  0.00     0.154 HD
HETATM   18  H20 UNL     1      21.474   0.734  51.821  1.00  0.00     0.161 HD
ENDROOT
BRANCH   3  19
HETATM   19  C4  UNL     1      24.296   2.135  52.771  1.00  0.00     0.046 C 
BRANCH  19  20
HETATM   20  C5  UNL     1      25.071   0.972  53.329  1.00  0.00     0.114 C 
BRANCH  20  21
HETATM   21  C6  UNL     1      26.271   1.243  54.122  1.00  0.00     0.139 C 
HETATM   22  O1  UNL     1      27.258   0.915  54.870  1.00  0.00    -0.650 OA
BRANCH  21  23
HETATM   23  O2  UNL     1      26.504   2.597  54.050  1.00  0.00    -0.776 OA
HETATM   24  H8  UNL     1      26.302   3.206  53.306  1.00  0.00     0.167 HD
ENDBRANCH  21  23
ENDBRANCH  20  21
ENDBRANCH  19  20
ENDBRANCH   3  19
TORSDOF 4
ENDMDL
MODEL 5
REMARK VINA RESULT:      -6.2      1.152      1.354
REMARK  4 active torsions:
REMARK  status: ('A' for Active; 'I' for Inactive)
REMARK    1  A    between atoms: C3_3  and  C4_4 
REMARK    2  A    between atoms: C4_4  and  C5_5 
REMARK    3  A    between atoms: C5_5  and  C6_6 
REMARK    4  A    between atoms: C6_6  and  O2_8 
ROOT
HETATM    1  C1  UNL     1      23.429   4.585  53.245  1.00  0.00     0.068 C 
HETATM    2  C2  UNL     1      24.001   3.313  52.657  1.00  0.00     0.005 C 
HETATM    3  C3  UNL     1      23.684   1.995  52.677  1.00  0.00    -0.058 C 
HETATM    4  C7  UNL     1      22.576   1.135  53.078  1.00  0.00     0.038 C 
HETATM    5  C8  UNL     1      21.222   1.728  53.011  1.00  0.00     0.030 C 
HETATM    6  C9  UNL     1      20.600   1.886  51.636  1.00  0.00     0.093 C 
HETATM    7  N1  UNL     1      19.592   2.897  51.771  1.00  0.00    -0.403 N 
HETATM    8  C10 UNL     1      20.619   3.727  51.425  1.00  0.00     0.077 A 
HETATM    9  C11 UNL     1      21.780   4.030  50.796  1.00  0.00     0.091 A 
HETATM   10  C12 UNL     1      22.809   3.618  50.022  1.00  0.00     0.056 A 
HETATM   11  C13 UNL     1      23.220   2.486  49.390  1.00  0.00     0.030 A 
HETATM   12  C14 UNL     1      22.079   1.962  49.944  1.00  0.00    -0.009 A 
HETATM   13  C15 UNL     1      21.271   2.756  50.706  1.00  0.00     0.038 A 
HETATM   14  O3  UNL     1      23.789   4.662  49.825  1.00  0.00    -0.336 OA
HETATM   15  C16 UNL     1      25.097   4.266  50.374  1.00  0.00     0.297 C 
HETATM   16  N2  UNL     1      25.006   3.947  51.795  1.00  0.00    -0.372 N 
HETATM   17  H14 UNL     1      18.660   3.362  51.950  1.00  0.00     0.154 HD
HETATM   18  H20 UNL     1      25.881   4.232  52.337  1.00  0.00     0.161 HD
ENDROOT
BRANCH   3  19
HETATM   19  C4  UNL     1      24.685   1.195  51.914  1.00  0.00     0.046 C 
BRANCH  19  20
HETATM   20  C5  UNL     1      25.426   0.159  52.714  1.00  0.00     0.114 C 
BRANCH  20  21
HETATM   21  C6  UNL     1      26.100   0.573  53.946  1.00  0.00     0.139 C 
HETATM   22  O1  UNL     1      26.688   1.413  54.713  1.00  0.00    -0.650 OA
BRANCH  21  23
HETATM   23  O2  UNL     1      26.151  -0.530  54.767  1.00  0.00    -0.776 OA
HETATM   24  H8  UNL     1      26.461  -0.576  55.699  1.00  0.00     0.167 HD
ENDBRANCH  21  23
ENDBRANCH  20  21
ENDBRANCH  19  20
ENDBRANCH   3  19
TORSDOF 4
ENDMDL
MODEL 6
REMARK VINA RESULT:      -6.2      7.942     10.384
REMARK  4 active torsions:
REMARK  status: ('A' for Active; 'I' for Inactive)
REMARK    1  A    between atoms: C3_3  and  C4_4 
REMARK    2  A    between atoms: C4_4  and  C5_5 
REMARK    3  A    between atoms: C5_5  and  C6_6 
REMARK    4  A    between atoms: C6_6  and  O2_8 
ROOT
HETATM    1  C1  UNL     1      31.438   7.445  45.257  1.00  0.00     0.068 C 
HETATM    2  C2  UNL     1      30.281   7.903  46.116  1.00  0.00     0.005 C 
HETATM    3  C3  UNL     1      29.479   7.348  47.058  1.00  0.00    -0.058 C 
HETATM    4  C7  UNL     1      29.409   6.138  47.870  1.00  0.00     0.038 C 
HETATM    5  C8  UNL     1      30.697   5.498  48.215  1.00  0.00     0.030 C 
HETATM    6  C9  UNL     1      31.539   6.167  49.286  1.00  0.00     0.093 C 
HETATM    7  N1  UNL     1      32.881   5.702  49.082  1.00  0.00    -0.403 N 
HETATM    8  C10 UNL     1      32.964   6.814  48.293  1.00  0.00     0.077 A 
HETATM    9  C11 UNL     1      32.641   8.080  47.935  1.00  0.00     0.091 A 
HETATM   10  C12 UNL     1      31.897   9.185  48.166  1.00  0.00     0.056 A 
HETATM   11  C13 UNL     1      30.953   9.612  49.048  1.00  0.00     0.030 A 
HETATM   12  C14 UNL     1      31.117   8.357  49.577  1.00  0.00    -0.009 A 
HETATM   13  C15 UNL     1      32.016   7.498  49.013  1.00  0.00     0.038 A 
HETATM   14  O3  UNL     1      32.132  10.212  47.178  1.00  0.00    -0.336 OA
HETATM   15  C16 UNL     1      30.899  10.519  46.433  1.00  0.00     0.297 C 
HETATM   16  N2  UNL     1      30.360   9.330  45.780  1.00  0.00    -0.372 N 
HETATM   17  H14 UNL     1      33.755   5.112  49.144  1.00  0.00     0.154 HD
HETATM   18  H20 UNL     1      29.904   9.550  44.839  1.00  0.00     0.161 HD
ENDROOT
BRANCH   3  19
HETATM   19  C4  UNL     1      28.457   8.327  47.531  1.00  0.00     0.046 C 
BRANCH  19  20
HETATM   20  C5  UNL     1      27.539   7.827  48.612  1.00  0.00     0.114 C 
BRANCH  20  21
HETATM   21  C6  UNL     1      27.249   8.703  49.748  1.00  0.00     0.139 C 
HETATM   22  O1  UNL     1      27.275   9.815  50.384  1.00  0.00    -0.650 OA
BRANCH  21  23
HETATM   23  O2  UNL     1      26.567   7.949  50.675  1.00  0.00    -0.776 OA
HETATM   24  H8  UNL     1      26.937   7.313  51.327  1.00  0.00     0.167 HD
ENDBRANCH  21  23
ENDBRANCH  20  21
ENDBRANCH  19  20
ENDBRANCH   3  19
TORSDOF 4
ENDMDL
MODEL 7
REMARK VINA RESULT:      -6.2      1.943      2.615
REMARK  4 active torsions:
REMARK  status: ('A' for Active; 'I' for Inactive)
REMARK    1  A    between atoms: C3_3  and  C4_4 
REMARK    2  A    between atoms: C4_4  and  C5_5 
REMARK    3  A    between atoms: C5_5  and  C6_6 
REMARK    4  A    between atoms: C6_6  and  O2_8 
ROOT
HETATM    1  C1  UNL     1      22.866   4.878  52.418  1.00  0.00     0.068 C 
HETATM    2  C2  UNL     1      23.633   4.269  51.263  1.00  0.00     0.005 C 
HETATM    3  C3  UNL     1      24.417   3.180  51.074  1.00  0.00    -0.058 C 
HETATM    4  C7  UNL     1      24.780   1.950  51.769  1.00  0.00     0.038 C 
HETATM    5  C8  UNL     1      23.764   1.383  52.683  1.00  0.00     0.030 C 
HETATM    6  C9  UNL     1      22.580   0.675  52.051  1.00  0.00     0.093 C 
HETATM    7  N1  UNL     1      21.541   0.682  53.040  1.00  0.00    -0.403 N 
HETATM    8  C10 UNL     1      21.197   1.851  52.424  1.00  0.00     0.077 A 
HETATM    9  C11 UNL     1      21.104   2.686  51.361  1.00  0.00     0.091 A 
HETATM   10  C12 UNL     1      21.362   2.915  50.054  1.00  0.00     0.056 A 
HETATM   11  C13 UNL     1      21.939   2.274  49.001  1.00  0.00     0.030 A 
HETATM   12  C14 UNL     1      22.148   1.287  49.930  1.00  0.00    -0.009 A 
HETATM   13  C15 UNL     1      21.713   1.462  51.213  1.00  0.00     0.038 A 
HETATM   14  O3  UNL     1      20.939   4.233  49.642  1.00  0.00    -0.336 OA
HETATM   15  C16 UNL     1      22.086   5.033  49.178  1.00  0.00     0.297 C 
HETATM   16  N2  UNL     1      23.108   5.151  50.213  1.00  0.00    -0.372 N 
HETATM   17  H14 UNL     1      20.935   0.392  53.855  1.00  0.00     0.154 HD
HETATM   18  H20 UNL     1      23.601   6.098  50.198  1.00  0.00     0.161 HD
ENDROOT
BRANCH   3  19
HETATM   19  C4  UNL     1      24.936   3.136  49.676  1.00  0.00     0.046 C 
BRANCH  19  20
HETATM   20  C5  UNL     1      26.408   3.410  49.527  1.00  0.00     0.114 C 
BRANCH  20  21
HETATM   21  C6  UNL     1      26.832   4.728  49.051  1.00  0.00     0.139 C 
HETATM   22  O1  UNL     1      26.650   5.869  48.500  1.00  0.00    -0.650 OA
BRANCH  21  23
HETATM   23  O2  UNL     1      28.172   4.848  49.340  1.00  0.00    -0.776 OA
HETATM   24  H8  UNL     1      28.600   5.458  49.982  1.00  0.00     0.167 HD
ENDBRANCH  21  23
ENDBRANCH  20  21
ENDBRANCH  19  20
ENDBRANCH   3  19
TORSDOF 4
ENDMDL
MODEL 8
REMARK VINA RESULT:      -6.2      1.898      3.789
REMARK  4 active torsions:
REMARK  status: ('A' for Active; 'I' for Inactive)
REMARK    1  A    between atoms: C3_3  and  C4_4 
REMARK    2  A    between atoms: C4_4  and  C5_5 
REMARK    3  A    between atoms: C5_5  and  C6_6 
REMARK    4  A    between atoms: C6_6  and  O2_8 
ROOT
HETATM    1  C1  UNL     1      22.524   4.032  48.237  1.00  0.00     0.068 C 
HETATM    2  C2  UNL     1      23.583   3.354  49.079  1.00  0.00     0.005 C 
HETATM    3  C3  UNL     1      24.768   3.708  49.635  1.00  0.00    -0.058 C 
HETATM    4  C7  UNL     1      25.546   4.915  49.894  1.00  0.00     0.038 C 
HETATM    5  C8  UNL     1      24.779   6.165  50.095  1.00  0.00     0.030 C 
HETATM    6  C9  UNL     1      24.071   6.337  51.426  1.00  0.00     0.093 C 
HETATM    7  N1  UNL     1      23.035   7.303  51.201  1.00  0.00    -0.403 N 
HETATM    8  C10 UNL     1      22.292   6.191  50.926  1.00  0.00     0.077 A 
HETATM    9  C11 UNL     1      21.960   4.884  51.062  1.00  0.00     0.091 A 
HETATM   10  C12 UNL     1      22.223   3.685  51.627  1.00  0.00     0.056 A 
HETATM   11  C13 UNL     1      23.115   3.143  52.500  1.00  0.00     0.030 A 
HETATM   12  C14 UNL     1      23.629   4.415  52.507  1.00  0.00    -0.009 A 
HETATM   13  C15 UNL     1      23.039   5.386  51.751  1.00  0.00     0.038 A 
HETATM   14  O3  UNL     1      21.327   2.656  51.153  1.00  0.00    -0.336 OA
HETATM   15  C16 UNL     1      22.070   1.588  50.461  1.00  0.00     0.297 C 
HETATM   16  N2  UNL     1      22.841   2.115  49.341  1.00  0.00    -0.372 N 
HETATM   17  H14 UNL     1      22.531   8.228  51.119  1.00  0.00     0.154 HD
HETATM   18  H20 UNL     1      22.888   1.434  48.519  1.00  0.00     0.161 HD
ENDROOT
BRANCH   3  19
HETATM   19  C4  UNL     1      25.390   2.552  50.342  1.00  0.00     0.046 C 
BRANCH  19  20
HETATM   20  C5  UNL     1      26.685   2.850  51.048  1.00  0.00     0.114 C 
BRANCH  20  21
HETATM   21  C6  UNL     1      27.006   2.109  52.269  1.00  0.00     0.139 C 
HETATM   22  O1  UNL     1      26.748   1.304  53.231  1.00  0.00    -0.650 OA
BRANCH  21  23
HETATM   23  O2  UNL     1      28.301   2.428  52.605  1.00  0.00    -0.776 OA
HETATM   24  H8  UNL     1      28.729   2.367  53.488  1.00  0.00     0.167 HD
ENDBRANCH  21  23
ENDBRANCH  20  21
ENDBRANCH  19  20
ENDBRANCH   3  19
TORSDOF 4
ENDMDL
MODEL 9
REMARK VINA RESULT:      -6.1      9.354     11.100
REMARK  4 active torsions:
REMARK  status: ('A' for Active; 'I' for Inactive)
REMARK    1  A    between atoms: C3_3  and  C4_4 
REMARK    2  A    between atoms: C4_4  and  C5_5 
REMARK    3  A    between atoms: C5_5  and  C6_6 
REMARK    4  A    between atoms: C6_6  and  O2_8 
ROOT
HETATM    1  C1  UNL     1      34.351   7.644  48.537  1.00  0.00     0.068 C 
HETATM    2  C2  UNL     1      33.807   6.770  47.428  1.00  0.00     0.005 C 
HETATM    3  C3  UNL     1      32.857   5.809  47.314  1.00  0.00    -0.058 C 
HETATM    4  C7  UNL     1      31.755   5.252  48.091  1.00  0.00     0.038 C 
HETATM    5  C8  UNL     1      31.085   6.170  49.039  1.00  0.00     0.030 C 
HETATM    6  C9  UNL     1      30.146   7.208  48.454  1.00  0.00     0.093 C 
HETATM    7  N1  UNL     1      30.041   8.247  49.437  1.00  0.00    -0.403 N 
HETATM    8  C10 UNL     1      31.091   8.776  48.744  1.00  0.00     0.077 A 
HETATM    9  C11 UNL     1      31.826   8.994  47.626  1.00  0.00     0.091 A 
HETATM   10  C12 UNL     1      32.009   8.761  46.307  1.00  0.00     0.056 A 
HETATM   11  C13 UNL     1      31.408   8.070  45.301  1.00  0.00     0.030 A 
HETATM   12  C14 UNL     1      30.534   7.709  46.295  1.00  0.00    -0.009 A 
HETATM   13  C15 UNL     1      30.717   8.184  47.562  1.00  0.00     0.038 A 
HETATM   14  O3  UNL     1      33.206   9.395  45.807  1.00  0.00    -0.336 OA
HETATM   15  C16 UNL     1      34.157   8.394  45.293  1.00  0.00     0.297 C 
HETATM   16  N2  UNL     1      34.515   7.421  46.320  1.00  0.00    -0.372 N 
HETATM   17  H14 UNL     1      29.707   8.806  50.269  1.00  0.00     0.154 HD
HETATM   18  H20 UNL     1      35.529   7.096  46.242  1.00  0.00     0.161 HD
ENDROOT
BRANCH   3  19
HETATM   19  C4  UNL     1      32.809   5.271  45.924  1.00  0.00     0.046 C 
BRANCH  19  20
HETATM   20  C5  UNL     1      33.322   3.866  45.760  1.00  0.00     0.114 C 
BRANCH  20  21
HETATM   21  C6  UNL     1      34.509   3.459  46.513  1.00  0.00     0.139 C 
HETATM   22  O1  UNL     1      35.160   3.188  47.582  1.00  0.00    -0.650 OA
BRANCH  21  23
HETATM   23  O2  UNL     1      35.508   3.227  45.597  1.00  0.00    -0.776 OA
HETATM   24  H8  UNL     1      35.743   2.377  45.161  1.00  0.00     0.167 HD
ENDBRANCH  21  23
ENDBRANCH  20  21
ENDBRANCH  19  20
ENDBRANCH   3  19
TORSDOF 4
ENDMDL
