MODEL 1
REMARK VINA RESULT:      -8.5      0.000      0.000
REMARK  3 active torsions:
REMARK  status: ('A' for Active; 'I' for Inactive)
REMARK    1  A    between atoms: C2_2  and  N1_3 
REMARK    2  A    between atoms: C16_22  and  N5_23 
REMARK    3  A    between atoms: N5_23  and  C17_24 
ROOT
HETATM    1  N1  UNL     1      24.263   4.354  50.492  1.00  0.00    -0.360 N 
HETATM    2  C3  UNL     1      25.106   3.742  49.447  1.00  0.00     0.126 C 
HETATM    3  C4  UNL     1      26.474   4.425  49.585  1.00  0.00     0.040 C 
HETATM    4  C5  UNL     1      26.600   5.676  48.792  1.00  0.00     0.124 C 
HETATM    5  N2  UNL     1      26.006   6.828  49.469  1.00  0.00    -0.378 N 
HETATM    6  C6  UNL     1      26.868   8.012  49.610  1.00  0.00     0.149 C 
HETATM    7  C7  UNL     1      25.990   9.145  50.066  1.00  0.00     0.187 C 
HETATM    8  O1  UNL     1      24.804   9.083  49.341  1.00  0.00    -0.384 OA
HETATM    9  C8  UNL     1      23.973   8.173  50.036  1.00  0.00     0.226 C 
HETATM   10  C9  UNL     1      24.675   6.838  49.971  1.00  0.00     0.060 C 
HETATM   11  C10 UNL     1      23.997   5.774  50.380  1.00  0.00     0.080 C 
HETATM   12  C11 UNL     1      22.649   6.242  50.785  1.00  0.00     0.410 C 
HETATM   13  O2  UNL     1      21.585   6.831  51.069  1.00  0.00    -0.404 OA
ENDROOT
BRANCH   1  14
HETATM   14  C2  UNL     1      23.610   3.794  51.612  1.00  0.00     0.099 C 
HETATM   15  C1  UNL     1      23.389   4.671  52.800  1.00  0.00     0.048 C 
HETATM   16  C12 UNL     1      24.450   2.631  52.118  1.00  0.00     0.011 C 
HETATM   17  C13 UNL     1      24.113   1.511  51.414  1.00  0.00     0.030 C 
HETATM   18  C14 UNL     1      23.061   1.923  50.444  1.00  0.00     0.089 A 
HETATM   19  N3  UNL     1      22.421   1.887  49.337  1.00  0.00    -0.242 NA
HETATM   20  C16 UNL     1      22.376   2.985  51.291  1.00  0.00     0.201 A 
HETATM   21  C15 UNL     1      21.368   2.862  49.359  1.00  0.00     0.230 A 
HETATM   22  N4  UNL     1      21.367   3.487  50.497  1.00  0.00    -0.241 NA
BRANCH  20  23
HETATM   23  N5  UNL     1      21.958   2.337  52.518  1.00  0.00    -0.355 N 
HETATM   24  H20 UNL     1      22.281   2.830  53.402  1.00  0.00     0.162 HD
BRANCH  23  25
HETATM   25  C17 UNL     1      21.223   1.189  52.899  1.00  0.00     0.030 A 
HETATM   26  C18 UNL     1      19.968   0.851  52.376  1.00  0.00     0.032 A 
HETATM   27  C19 UNL     1      19.285  -0.268  52.769  1.00  0.00     0.044 A 
HETATM   28  C20 UNL     1      19.811  -1.114  53.706  1.00  0.00     0.116 A 
HETATM   29  F1  UNL     1      19.046  -2.179  54.009  1.00  0.00    -0.206 F 
HETATM   30  C21 UNL     1      21.039  -0.848  54.264  1.00  0.00     0.044 A 
HETATM   31  C22 UNL     1      21.685   0.291  53.835  1.00  0.00     0.032 A 
ENDBRANCH  23  25
ENDBRANCH  20  23
ENDBRANCH   1  14
TORSDOF 3
ENDMDL
MODEL 2
REMARK VINA RESULT:      -8.3      1.952      2.819
REMARK  3 active torsions:
REMARK  status: ('A' for Active; 'I' for Inactive)
REMARK    1  A    between atoms: C2_2  and  N1_3 
REMARK    2  A    between atoms: C16_22  and  N5_23 
REMARK    3  A    between atoms: N5_23  and  C17_24 
ROOT
HETATM    1  N1  UNL     1      22.327   4.092  49.527  1.00  0.00    -0.360 N 
HETATM    2  C3  UNL     1      21.447   4.506  48.416  1.00  0.00     0.126 C 
HETATM    3  C4  UNL     1      22.392   5.069  47.345  1.00  0.00     0.040 C 
HETATM    4  C5  UNL     1      22.682   6.518  47.505  1.00  0.00     0.124 C 
HETATM    5  N2  UNL     1      23.726   6.773  48.496  1.00  0.00    -0.378 N 
HETATM    6  C6  UNL     1      24.848   7.617  48.055  1.00  0.00     0.149 C 
HETATM    7  C7  UNL     1      25.640   7.976  49.282  1.00  0.00     0.187 C 
HETATM    8  O1  UNL     1      24.738   8.284  50.296  1.00  0.00    -0.384 OA
HETATM    9  C8  UNL     1      24.390   7.049  50.894  1.00  0.00     0.226 C 
HETATM   10  C9  UNL     1      23.690   6.252  49.820  1.00  0.00     0.060 C 
HETATM   11  C10 UNL     1      23.088   5.130  50.192  1.00  0.00     0.080 C 
HETATM   12  C11 UNL     1      23.274   4.997  51.656  1.00  0.00     0.410 C 
HETATM   13  O2  UNL     1      23.539   5.070  52.875  1.00  0.00    -0.404 OA
ENDROOT
BRANCH   1  14
HETATM   14  C2  UNL     1      22.557   2.828  50.113  1.00  0.00     0.099 C 
HETATM   15  C1  UNL     1      23.913   2.559  50.678  1.00  0.00     0.048 C 
HETATM   16  C12 UNL     1      22.346   1.764  49.046  1.00  0.00     0.011 C 
HETATM   17  C13 UNL     1      21.017   1.453  48.999  1.00  0.00     0.030 C 
HETATM   18  C14 UNL     1      20.348   2.304  50.021  1.00  0.00     0.089 A 
HETATM   19  N3  UNL     1      19.389   2.994  50.515  1.00  0.00    -0.242 NA
HETATM   20  C16 UNL     1      21.470   2.351  51.047  1.00  0.00     0.201 A 
HETATM   21  C15 UNL     1      19.786   3.525  51.788  1.00  0.00     0.230 A 
HETATM   22  N4  UNL     1      20.995   3.144  52.069  1.00  0.00    -0.241 NA
BRANCH  20  23
HETATM   23  N5  UNL     1      21.777   0.979  51.395  1.00  0.00    -0.355 N 
HETATM   24  H20 UNL     1      21.778   0.310  50.569  1.00  0.00     0.162 HD
BRANCH  23  25
HETATM   25  C17 UNL     1      22.081   0.236  52.561  1.00  0.00     0.030 A 
HETATM   26  C18 UNL     1      23.381   0.022  53.039  1.00  0.00     0.032 A 
HETATM   27  C19 UNL     1      23.637  -0.703  54.171  1.00  0.00     0.044 A 
HETATM   28  C20 UNL     1      22.616  -1.256  54.892  1.00  0.00     0.116 A 
HETATM   29  F1  UNL     1      22.994  -1.945  55.985  1.00  0.00    -0.206 F 
HETATM   30  C21 UNL     1      21.314  -1.088  54.485  1.00  0.00     0.044 A 
HETATM   31  C22 UNL     1      21.109  -0.351  53.339  1.00  0.00     0.032 A 
ENDBRANCH  23  25
ENDBRANCH  20  23
ENDBRANCH   1  14
TORSDOF 3
ENDMDL
MODEL 3
REMARK VINA RESULT:      -8.2      3.712      7.923
REMARK  3 active torsions:
REMARK  status: ('A' for Active; 'I' for Inactive)
REMARK    1  A    between atoms: C2_2  and  N1_3 
REMARK    2  A    between atoms: C16_22  and  N5_23 
REMARK    3  A    between atoms: N5_23  and  C17_24 
ROOT
HETATM    1  N1  UNL     1      22.152   2.870  51.648  1.00  0.00    -0.360 N 
HETATM    2  C3  UNL     1      20.794   2.902  51.072  1.00  0.00     0.126 C 
HETATM    3  C4  UNL     1      19.856   2.558  52.238  1.00  0.00     0.040 C 
HETATM    4  C5  UNL     1      19.625   1.099  52.409  1.00  0.00     0.124 C 
HETATM    5  N2  UNL     1      20.707   0.446  53.145  1.00  0.00    -0.378 N 
HETATM    6  C6  UNL     1      20.304  -0.368  54.303  1.00  0.00     0.149 C 
HETATM    7  C7  UNL     1      21.511  -1.157  54.730  1.00  0.00     0.187 C 
HETATM    8  O1  UNL     1      22.139  -1.629  53.580  1.00  0.00    -0.384 OA
HETATM    9  C8  UNL     1      22.988  -0.584  53.145  1.00  0.00     0.226 C 
HETATM   10  C9  UNL     1      22.078   0.567  52.787  1.00  0.00     0.060 C 
HETATM   11  C10 UNL     1      22.625   1.600  52.160  1.00  0.00     0.080 C 
HETATM   12  C11 UNL     1      24.060   1.285  51.963  1.00  0.00     0.410 C 
HETATM   13  O2  UNL     1      25.223   0.834  51.896  1.00  0.00    -0.404 OA
ENDROOT
BRANCH   1  14
HETATM   14  C2  UNL     1      23.136   3.876  51.775  1.00  0.00     0.099 C 
HETATM   15  C1  UNL     1      24.094   3.772  52.914  1.00  0.00     0.048 C 
HETATM   16  C12 UNL     1      22.430   5.210  51.961  1.00  0.00     0.011 C 
HETATM   17  C13 UNL     1      22.129   5.719  50.730  1.00  0.00     0.030 C 
HETATM   18  C14 UNL     1      22.624   4.731  49.732  1.00  0.00     0.089 A 
HETATM   19  N3  UNL     1      22.610   4.085  48.627  1.00  0.00    -0.242 NA
HETATM   20  C16 UNL     1      23.846   4.236  50.492  1.00  0.00     0.201 A 
HETATM   21  C15 UNL     1      23.717   3.172  48.591  1.00  0.00     0.230 A 
HETATM   22  N4  UNL     1      24.412   3.275  49.682  1.00  0.00    -0.241 NA
BRANCH  20  23
HETATM   23  N5  UNL     1      24.666   5.398  50.769  1.00  0.00    -0.355 N 
HETATM   24  H20 UNL     1      24.575   5.768  51.761  1.00  0.00     0.162 HD
BRANCH  23  25
HETATM   25  C17 UNL     1      25.584   6.223  50.075  1.00  0.00     0.030 A 
HETATM   26  C18 UNL     1      26.407   5.777  49.033  1.00  0.00     0.032 A 
HETATM   27  C19 UNL     1      27.284   6.604  48.385  1.00  0.00     0.044 A 
HETATM   28  C20 UNL     1      27.393   7.921  48.737  1.00  0.00     0.116 A 
HETATM   29  F1  UNL     1      28.289   8.631  48.026  1.00  0.00    -0.206 F 
HETATM   30  C21 UNL     1      26.617   8.430  49.751  1.00  0.00     0.044 A 
HETATM   31  C22 UNL     1      25.751   7.557  50.371  1.00  0.00     0.032 A 
ENDBRANCH  23  25
ENDBRANCH  20  23
ENDBRANCH   1  14
TORSDOF 3
ENDMDL
MODEL 4
REMARK VINA RESULT:      -8.0      3.792      7.575
REMARK  3 active torsions:
REMARK  status: ('A' for Active; 'I' for Inactive)
REMARK    1  A    between atoms: C2_2  and  N1_3 
REMARK    2  A    between atoms: C16_22  and  N5_23 
REMARK    3  A    between atoms: N5_23  and  C17_24 
ROOT
HETATM    1  N1  UNL     1      22.685   2.052  52.108  1.00  0.00    -0.360 N 
HETATM    2  C3  UNL     1      21.566   1.163  51.740  1.00  0.00     0.126 C 
HETATM    3  C4  UNL     1      21.150   0.478  53.049  1.00  0.00     0.040 C 
HETATM    4  C5  UNL     1      21.900  -0.773  53.334  1.00  0.00     0.124 C 
HETATM    5  N2  UNL     1      23.208  -0.515  53.935  1.00  0.00    -0.378 N 
HETATM    6  C6  UNL     1      23.501  -1.237  55.184  1.00  0.00     0.149 C 
HETATM    7  C7  UNL     1      24.966  -1.050  55.469  1.00  0.00     0.187 C 
HETATM    8  O1  UNL     1      25.655  -1.188  54.267  1.00  0.00    -0.384 OA
HETATM    9  C8  UNL     1      25.621   0.087  53.653  1.00  0.00     0.226 C 
HETATM   10  C9  UNL     1      24.166   0.373  53.371  1.00  0.00     0.060 C 
HETATM   11  C10 UNL     1      23.889   1.426  52.614  1.00  0.00     0.080 C 
HETATM   12  C11 UNL     1      25.182   2.037  52.223  1.00  0.00     0.410 C 
HETATM   13  O2  UNL     1      26.360   2.393  52.009  1.00  0.00    -0.404 OA
ENDROOT
BRANCH   1  14
HETATM   14  C2  UNL     1      22.827   3.456  52.031  1.00  0.00     0.099 C 
HETATM   15  C1  UNL     1      23.750   4.116  53.000  1.00  0.00     0.048 C 
HETATM   16  C12 UNL     1      21.464   4.084  52.278  1.00  0.00     0.011 C 
HETATM   17  C13 UNL     1      20.784   4.130  51.095  1.00  0.00     0.030 C 
HETATM   18  C14 UNL     1      21.682   3.533  50.069  1.00  0.00     0.089 A 
HETATM   19  N3  UNL     1      21.961   2.874  49.008  1.00  0.00    -0.242 NA
HETATM   20  C16 UNL     1      23.015   4.001  50.635  1.00  0.00     0.201 A 
HETATM   21  C15 UNL     1      23.384   2.839  48.825  1.00  0.00     0.230 A 
HETATM   22  N4  UNL     1      23.970   3.492  49.782  1.00  0.00    -0.241 NA
BRANCH  20  23
HETATM   23  N5  UNL     1      22.947   5.445  50.727  1.00  0.00    -0.355 N 
HETATM   24  H20 UNL     1      22.080   5.809  51.222  1.00  0.00     0.162 HD
BRANCH  23  25
HETATM   25  C17 UNL     1      23.725   6.558  50.329  1.00  0.00     0.030 A 
HETATM   26  C18 UNL     1      25.098   6.686  50.580  1.00  0.00     0.032 A 
HETATM   27  C19 UNL     1      25.819   7.778  50.179  1.00  0.00     0.044 A 
HETATM   28  C20 UNL     1      25.216   8.806  49.508  1.00  0.00     0.116 A 
HETATM   29  F1  UNL     1      26.029   9.823  49.167  1.00  0.00    -0.206 F 
HETATM   30  C21 UNL     1      23.871   8.750  49.225  1.00  0.00     0.044 A 
HETATM   31  C22 UNL     1      23.191   7.630  49.650  1.00  0.00     0.032 A 
ENDBRANCH  23  25
ENDBRANCH  20  23
ENDBRANCH   1  14
TORSDOF 3
ENDMDL
MODEL 5
REMARK VINA RESULT:      -8.0      2.733      4.253
REMARK  3 active torsions:
REMARK  status: ('A' for Active; 'I' for Inactive)
REMARK    1  A    between atoms: C2_2  and  N1_3 
REMARK    2  A    between atoms: C16_22  and  N5_23 
REMARK    3  A    between atoms: N5_23  and  C17_24 
ROOT
HETATM    1  N1  UNL     1      22.539   2.726  52.260  1.00  0.00    -0.360 N 
HETATM    2  C3  UNL     1      22.195   4.123  52.589  1.00  0.00     0.126 C 
HETATM    3  C4  UNL     1      22.474   4.918  51.305  1.00  0.00     0.040 C 
HETATM    4  C5  UNL     1      23.873   5.409  51.198  1.00  0.00     0.124 C 
HETATM    5  N2  UNL     1      24.789   4.380  50.707  1.00  0.00    -0.378 N 
HETATM    6  C6  UNL     1      25.626   4.753  49.556  1.00  0.00     0.149 C 
HETATM    7  C7  UNL     1      26.667   3.679  49.400  1.00  0.00     0.187 C 
HETATM    8  O1  UNL     1      27.130   3.346  50.670  1.00  0.00    -0.384 OA
HETATM    9  C8  UNL     1      26.223   2.382  51.172  1.00  0.00     0.226 C 
HETATM   10  C9  UNL     1      24.892   3.085  51.287  1.00  0.00     0.060 C 
HETATM   11  C10 UNL     1      23.921   2.446  51.926  1.00  0.00     0.080 C 
HETATM   12  C11 UNL     1      24.478   1.153  52.389  1.00  0.00     0.410 C 
HETATM   13  O2  UNL     1      25.129   0.129  52.687  1.00  0.00    -0.404 OA
ENDROOT
BRANCH   1  14
HETATM   14  C2  UNL     1      21.754   1.552  52.236  1.00  0.00     0.099 C 
HETATM   15  C1  UNL     1      21.829   0.641  53.416  1.00  0.00     0.048 C 
HETATM   16  C12 UNL     1      22.195   0.711  51.047  1.00  0.00     0.011 C 
HETATM   17  C13 UNL     1      21.519   1.136  49.939  1.00  0.00     0.030 C 
HETATM   18  C14 UNL     1      20.639   2.252  50.383  1.00  0.00     0.089 A 
HETATM   19  N3  UNL     1      20.010   3.359  50.256  1.00  0.00    -0.242 NA
HETATM   20  C16 UNL     1      20.327   1.750  51.785  1.00  0.00     0.201 A 
HETATM   21  C15 UNL     1      19.313   3.657  51.475  1.00  0.00     0.230 A 
HETATM   22  N4  UNL     1      19.518   2.715  52.344  1.00  0.00    -0.241 NA
BRANCH  20  23
HETATM   23  N5  UNL     1      19.739   0.434  51.637  1.00  0.00    -0.355 N 
HETATM   24  H20 UNL     1      20.446  -0.343  51.474  1.00  0.00     0.162 HD
BRANCH  23  25
HETATM   25  C17 UNL     1      18.447  -0.143  51.638  1.00  0.00     0.030 A 
HETATM   26  C18 UNL     1      17.933  -0.915  52.689  1.00  0.00     0.032 A 
HETATM   27  C19 UNL     1      16.677  -1.458  52.656  1.00  0.00     0.044 A 
HETATM   28  C20 UNL     1      15.861  -1.265  51.575  1.00  0.00     0.116 A 
HETATM   29  F1  UNL     1      14.651  -1.848  51.661  1.00  0.00    -0.206 F 
HETATM   30  C21 UNL     1      16.297  -0.519  50.506  1.00  0.00     0.044 A 
HETATM   31  C22 UNL     1      17.568   0.006  50.589  1.00  0.00     0.032 A 
ENDBRANCH  23  25
ENDBRANCH  20  23
ENDBRANCH   1  14
TORSDOF 3
ENDMDL
MODEL 6
REMARK VINA RESULT:      -7.9      3.639      5.746
REMARK  3 active torsions:
REMARK  status: ('A' for Active; 'I' for Inactive)
REMARK    1  A    between atoms: C2_2  and  N1_3 
REMARK    2  A    between atoms: C16_22  and  N5_23 
REMARK    3  A    between atoms: N5_23  and  C17_24 
ROOT
HETATM    1  N1  UNL     1      24.033   2.504  51.135  1.00  0.00    -0.360 N 
HETATM    2  C3  UNL     1      25.162   3.452  51.082  1.00  0.00     0.126 C 
HETATM    3  C4  UNL     1      26.386   2.600  50.717  1.00  0.00     0.040 C 
HETATM    4  C5  UNL     1      27.080   2.015  51.894  1.00  0.00     0.124 C 
HETATM    5  N2  UNL     1      26.431   0.797  52.377  1.00  0.00    -0.378 N 
HETATM    6  C6  UNL     1      27.298  -0.381  52.537  1.00  0.00     0.149 C 
HETATM    7  C7  UNL     1      26.508  -1.412  53.293  1.00  0.00     0.187 C 
HETATM    8  O1  UNL     1      25.825  -0.759  54.316  1.00  0.00    -0.384 OA
HETATM    9  C8  UNL     1      24.626  -0.280  53.736  1.00  0.00     0.226 C 
HETATM   10  C9  UNL     1      25.044   0.722  52.688  1.00  0.00     0.060 C 
HETATM   11  C10 UNL     1      24.089   1.462  52.139  1.00  0.00     0.080 C 
HETATM   12  C11 UNL     1      22.811   1.074  52.781  1.00  0.00     0.410 C 
HETATM   13  O2  UNL     1      21.853   0.610  53.436  1.00  0.00    -0.404 OA
ENDROOT
BRANCH   1  14
HETATM   14  C2  UNL     1      22.840   2.430  50.382  1.00  0.00     0.099 C 
HETATM   15  C1  UNL     1      22.194   1.093  50.230  1.00  0.00     0.048 C 
HETATM   16  C12 UNL     1      23.144   2.896  48.966  1.00  0.00     0.011 C 
HETATM   17  C13 UNL     1      23.037   4.257  48.922  1.00  0.00     0.030 C 
HETATM   18  C14 UNL     1      22.672   4.695  50.297  1.00  0.00     0.089 A 
HETATM   19  N3  UNL     1      22.662   5.488  51.302  1.00  0.00    -0.242 NA
HETATM   20  C16 UNL     1      21.821   3.499  50.697  1.00  0.00     0.201 A 
HETATM   21  C15 UNL     1      21.888   4.908  52.363  1.00  0.00     0.230 A 
HETATM   22  N4  UNL     1      21.419   3.756  51.991  1.00  0.00    -0.241 NA
BRANCH  20  23
HETATM   23  N5  UNL     1      20.765   3.387  49.712  1.00  0.00    -0.355 N 
HETATM   24  H20 UNL     1      21.106   3.404  48.705  1.00  0.00     0.162 HD
BRANCH  23  25
HETATM   25  C17 UNL     1      19.355   3.266  49.696  1.00  0.00     0.030 A 
HETATM   26  C18 UNL     1      18.674   2.056  49.502  1.00  0.00     0.032 A 
HETATM   27  C19 UNL     1      17.307   1.976  49.493  1.00  0.00     0.044 A 
HETATM   28  C20 UNL     1      16.541   3.094  49.675  1.00  0.00     0.116 A 
HETATM   29  F1  UNL     1      15.211   2.888  49.645  1.00  0.00    -0.206 F 
HETATM   30  C21 UNL     1      17.139   4.316  49.871  1.00  0.00     0.044 A 
HETATM   31  C22 UNL     1      18.516   4.343  49.872  1.00  0.00     0.032 A 
ENDBRANCH  23  25
ENDBRANCH  20  23
ENDBRANCH   1  14
TORSDOF 3
ENDMDL
MODEL 7
REMARK VINA RESULT:      -7.8      3.763      6.936
REMARK  3 active torsions:
REMARK  status: ('A' for Active; 'I' for Inactive)
REMARK    1  A    between atoms: C2_2  and  N1_3 
REMARK    2  A    between atoms: C16_22  and  N5_23 
REMARK    3  A    between atoms: N5_23  and  C17_24 
ROOT
HETATM    1  N1  UNL     1      22.890   2.080  52.102  1.00  0.00    -0.360 N 
HETATM    2  C3  UNL     1      22.074   0.851  52.102  1.00  0.00     0.126 C 
HETATM    3  C4  UNL     1      22.372   0.172  53.447  1.00  0.00     0.040 C 
HETATM    4  C5  UNL     1      23.543  -0.743  53.409  1.00  0.00     0.124 C 
HETATM    5  N2  UNL     1      24.813  -0.029  53.538  1.00  0.00    -0.378 N 
HETATM    6  C6  UNL     1      25.728  -0.517  54.582  1.00  0.00     0.149 C 
HETATM    7  C7  UNL     1      27.053   0.156  54.359  1.00  0.00     0.187 C 
HETATM    8  O1  UNL     1      27.305   0.156  52.989  1.00  0.00    -0.384 OA
HETATM    9  C8  UNL     1      26.649   1.299  52.474  1.00  0.00     0.226 C 
HETATM   10  C9  UNL     1      25.176   1.075  52.717  1.00  0.00     0.060 C 
HETATM   11  C10 UNL     1      24.330   1.920  52.142  1.00  0.00     0.080 C 
HETATM   12  C11 UNL     1      25.138   2.884  51.358  1.00  0.00     0.410 C 
HETATM   13  O2  UNL     1      25.988   3.585  50.769  1.00  0.00    -0.404 OA
ENDROOT
BRANCH   1  14
HETATM   14  C2  UNL     1      22.525   3.443  52.037  1.00  0.00     0.099 C 
HETATM   15  C1  UNL     1      23.417   4.435  52.708  1.00  0.00     0.048 C 
HETATM   16  C12 UNL     1      21.168   3.603  52.704  1.00  0.00     0.011 C 
HETATM   17  C13 UNL     1      20.196   3.342  51.781  1.00  0.00     0.030 C 
HETATM   18  C14 UNL     1      20.897   3.006  50.512  1.00  0.00     0.089 A 
HETATM   19  N3  UNL     1      21.056   2.405  49.393  1.00  0.00    -0.242 NA
HETATM   20  C16 UNL     1      22.101   3.924  50.670  1.00  0.00     0.201 A 
HETATM   21  C15 UNL     1      22.288   2.829  48.791  1.00  0.00     0.230 A 
HETATM   22  N4  UNL     1      22.876   3.701  49.551  1.00  0.00    -0.241 NA
BRANCH  20  23
HETATM   23  N5  UNL     1      21.585   5.268  50.830  1.00  0.00    -0.355 N 
HETATM   24  H20 UNL     1      20.863   5.367  51.605  1.00  0.00     0.162 HD
BRANCH  23  25
HETATM   25  C17 UNL     1      21.760   6.537  50.229  1.00  0.00     0.030 A 
HETATM   26  C18 UNL     1      22.963   7.256  50.250  1.00  0.00     0.032 A 
HETATM   27  C19 UNL     1      23.096   8.482  49.657  1.00  0.00     0.044 A 
HETATM   28  C20 UNL     1      22.041   9.063  49.010  1.00  0.00     0.116 A 
HETATM   29  F1  UNL     1      22.296  10.268  48.468  1.00  0.00    -0.206 F 
HETATM   30  C21 UNL     1      20.829   8.418  48.948  1.00  0.00     0.044 A 
HETATM   31  C22 UNL     1      20.747   7.186  49.560  1.00  0.00     0.032 A 
ENDBRANCH  23  25
ENDBRANCH  20  23
ENDBRANCH   1  14
TORSDOF 3
ENDMDL
MODEL 8
REMARK VINA RESULT:      -7.8      3.250      5.537
REMARK  3 active torsions:
REMARK  status: ('A' for Active; 'I' for Inactive)
REMARK    1  A    between atoms: C2_2  and  N1_3 
REMARK    2  A    between atoms: C16_22  and  N5_23 
REMARK    3  A    between atoms: N5_23  and  C17_24 
ROOT
HETATM    1  N1  UNL     1      21.536   3.577  52.000  1.00  0.00    -0.360 N 
HETATM    2  C3  UNL     1      20.426   2.910  52.707  1.00  0.00     0.126 C 
HETATM    3  C4  UNL     1      19.513   2.367  51.598  1.00  0.00     0.040 C 
HETATM    4  C5  UNL     1      18.486   3.338  51.140  1.00  0.00     0.124 C 
HETATM    5  N2  UNL     1      19.017   4.297  50.172  1.00  0.00    -0.378 N 
HETATM    6  C6  UNL     1      18.266   4.431  48.913  1.00  0.00     0.149 C 
HETATM    7  C7  UNL     1      18.808   5.640  48.202  1.00  0.00     0.187 C 
HETATM    8  O1  UNL     1      18.995   6.643  49.150  1.00  0.00    -0.384 OA
HETATM    9  C8  UNL     1      20.273   6.412  49.711  1.00  0.00     0.226 C 
HETATM   10  C9  UNL     1      20.187   5.073  50.402  1.00  0.00     0.060 C 
HETATM   11  C10 UNL     1      21.205   4.723  51.178  1.00  0.00     0.080 C 
HETATM   12  C11 UNL     1      22.180   5.839  51.152  1.00  0.00     0.410 C 
HETATM   13  O2  UNL     1      22.861   6.875  50.998  1.00  0.00    -0.404 OA
ENDROOT
BRANCH   1  14
HETATM   14  C2  UNL     1      22.926   3.322  51.992  1.00  0.00     0.099 C 
HETATM   15  C1  UNL     1      23.793   4.166  52.865  1.00  0.00     0.048 C 
HETATM   16  C12 UNL     1      23.441   3.541  50.578  1.00  0.00     0.011 C 
HETATM   17  C13 UNL     1      23.268   2.387  49.868  1.00  0.00     0.030 C 
HETATM   18  C14 UNL     1      22.639   1.409  50.798  1.00  0.00     0.089 A 
HETATM   19  N3  UNL     1      21.882   0.428  51.118  1.00  0.00    -0.242 NA
HETATM   20  C16 UNL     1      23.306   1.863  52.088  1.00  0.00     0.201 A 
HETATM   21  C15 UNL     1      21.968   0.197  52.532  1.00  0.00     0.230 A 
HETATM   22  N4  UNL     1      22.792   1.044  53.070  1.00  0.00    -0.241 NA
BRANCH  20  23
HETATM   23  N5  UNL     1      24.736   1.779  51.872  1.00  0.00    -0.355 N 
HETATM   24  H20 UNL     1      25.081   2.323  51.027  1.00  0.00     0.162 HD
BRANCH  23  25
HETATM   25  C17 UNL     1      25.852   1.154  52.477  1.00  0.00     0.030 A 
HETATM   26  C18 UNL     1      26.791   1.823  53.273  1.00  0.00     0.032 A 
HETATM   27  C19 UNL     1      27.860   1.185  53.842  1.00  0.00     0.044 A 
HETATM   28  C20 UNL     1      28.056  -0.155  53.652  1.00  0.00     0.116 A 
HETATM   29  F1  UNL     1      29.140  -0.667  54.263  1.00  0.00    -0.206 F 
HETATM   30  C21 UNL     1      27.176  -0.878  52.883  1.00  0.00     0.044 A 
HETATM   31  C22 UNL     1      26.117  -0.190  52.332  1.00  0.00     0.032 A 
ENDBRANCH  23  25
ENDBRANCH  20  23
ENDBRANCH   1  14
TORSDOF 3
ENDMDL
MODEL 9
REMARK VINA RESULT:      -7.5      3.020      4.433
REMARK  3 active torsions:
REMARK  status: ('A' for Active; 'I' for Inactive)
REMARK    1  A    between atoms: C2_2  and  N1_3 
REMARK    2  A    between atoms: C16_22  and  N5_23 
REMARK    3  A    between atoms: N5_23  and  C17_24 
ROOT
HETATM    1  N1  UNL     1      22.664   4.555  49.159  1.00  0.00    -0.360 N 
HETATM    2  C3  UNL     1      21.210   4.795  49.068  1.00  0.00     0.126 C 
HETATM    3  C4  UNL     1      20.937   5.042  47.578  1.00  0.00     0.040 C 
HETATM    4  C5  UNL     1      21.081   6.465  47.172  1.00  0.00     0.124 C 
HETATM    5  N2  UNL     1      22.474   6.839  46.933  1.00  0.00    -0.378 N 
HETATM    6  C6  UNL     1      22.761   7.480  45.640  1.00  0.00     0.149 C 
HETATM    7  C7  UNL     1      24.160   8.026  45.718  1.00  0.00     0.187 C 
HETATM    8  O1  UNL     1      24.320   8.611  46.971  1.00  0.00    -0.384 OA
HETATM    9  C8  UNL     1      24.690   7.562  47.845  1.00  0.00     0.226 C 
HETATM   10  C9  UNL     1      23.516   6.614  47.876  1.00  0.00     0.060 C 
HETATM   11  C10 UNL     1      23.539   5.646  48.783  1.00  0.00     0.080 C 
HETATM   12  C11 UNL     1      24.787   5.811  49.567  1.00  0.00     0.410 C 
HETATM   13  O2  UNL     1      25.875   6.118  50.099  1.00  0.00    -0.404 OA
ENDROOT
BRANCH   1  14
HETATM   14  C2  UNL     1      23.399   3.429  49.589  1.00  0.00     0.099 C 
HETATM   15  C1  UNL     1      24.763   3.227  49.016  1.00  0.00     0.048 C 
HETATM   16  C12 UNL     1      22.615   2.180  49.216  1.00  0.00     0.011 C 
HETATM   17  C13 UNL     1      21.715   1.918  50.209  1.00  0.00     0.030 C 
HETATM   18  C14 UNL     1      21.892   2.985  51.232  1.00  0.00     0.089 A 
HETATM   19  N3  UNL     1      21.512   3.799  52.144  1.00  0.00    -0.242 NA
HETATM   20  C16 UNL     1      23.392   3.196  51.081  1.00  0.00     0.201 A 
HETATM   21  C15 UNL     1      22.636   4.561  52.607  1.00  0.00     0.230 A 
HETATM   22  N4  UNL     1      23.709   4.198  51.972  1.00  0.00    -0.241 NA
BRANCH  20  23
HETATM   23  N5  UNL     1      24.020   1.912  51.317  1.00  0.00    -0.355 N 
HETATM   24  H20 UNL     1      23.665   1.131  50.689  1.00  0.00     0.162 HD
BRANCH  23  25
HETATM   25  C17 UNL     1      25.004   1.369  52.177  1.00  0.00     0.030 A 
HETATM   26  C18 UNL     1      24.715   0.670  53.358  1.00  0.00     0.032 A 
HETATM   27  C19 UNL     1      25.693   0.158  54.167  1.00  0.00     0.044 A 
HETATM   28  C20 UNL     1      27.014   0.312  53.849  1.00  0.00     0.116 A 
HETATM   29  F1  UNL     1      27.880  -0.235  54.721  1.00  0.00    -0.206 F 
HETATM   30  C21 UNL     1      27.374   0.986  52.706  1.00  0.00     0.044 A 
HETATM   31  C22 UNL     1      26.353   1.482  51.926  1.00  0.00     0.032 A 
ENDBRANCH  23  25
ENDBRANCH  20  23
ENDBRANCH   1  14
TORSDOF 3
ENDMDL
