MODEL 1
REMARK VINA RESULT:      -9.2      0.000      0.000
REMARK  3 active torsions:
REMARK  status: ('A' for Active; 'I' for Inactive)
REMARK    1  A    between atoms: C7_8  and  C8_9 
REMARK    2  A    between atoms: C9_11  and  N2_12 
REMARK    3  A    between atoms: C11_16  and  C12_17 
ROOT
HETATM    1  C8  UNL     1      24.196   1.293  52.181  1.00  0.00     0.136 A 
HETATM    2  N1  UNL     1      24.661   0.281  53.026  1.00  0.00    -0.086 NA
HETATM    3  C9  UNL     1      25.462   0.014  53.964  1.00  0.00     0.717 C 
HETATM    4  N3  UNL     1      26.312   1.010  54.512  1.00  0.00    -0.059 NA
HETATM    5  C10 UNL     1      26.429   2.269  54.289  1.00  0.00     0.223 C 
HETATM    6  N4  UNL     1      25.623   2.982  53.328  1.00  0.00    -0.367 N 
HETATM    7  C11 UNL     1      24.666   2.657  52.308  1.00  0.00     0.098 A 
HETATM    8  C22 UNL     1      25.274   1.802  51.205  1.00  0.00     0.056 A 
HETATM    9  C23 UNL     1      26.690   1.278  51.376  1.00  0.00     0.016 C 
HETATM   10  H10 UNL     1      25.828   4.016  53.449  1.00  0.00     0.161 HD
ENDROOT
BRANCH   7  11
HETATM   11  C12 UNL     1      23.871   3.809  51.838  1.00  0.00    -0.016 A 
HETATM   12  C13 UNL     1      22.652   4.220  52.331  1.00  0.00     0.011 A 
HETATM   13  C14 UNL     1      21.920   5.298  51.889  1.00  0.00     0.002 A 
HETATM   14  C15 UNL     1      22.432   6.051  50.859  1.00  0.00     0.012 A 
HETATM   15  C16 UNL     1      23.645   5.704  50.312  1.00  0.00    -0.025 A 
HETATM   16  C17 UNL     1      24.109   6.493  49.280  1.00  0.00     0.012 A 
HETATM   17  C21 UNL     1      24.329   4.615  50.799  1.00  0.00    -0.017 A 
HETATM   18  C18 UNL     1      25.318   6.198  48.687  1.00  0.00     0.001 A 
HETATM   19  C19 UNL     1      26.047   5.120  49.130  1.00  0.00     0.001 A 
HETATM   20  C20 UNL     1      25.528   4.371  50.166  1.00  0.00     0.013 A 
ENDBRANCH   7  11
BRANCH   1  21
HETATM   21  C7  UNL     1      22.842   1.056  51.619  1.00  0.00    -0.017 A 
HETATM   22  C2  UNL     1      21.842   0.568  52.430  1.00  0.00    -0.036 A 
HETATM   23  C1  UNL     1      21.989   0.247  53.849  1.00  0.00     0.050 C 
HETATM   24  C3  UNL     1      20.556   0.328  51.947  1.00  0.00     0.017 A 
HETATM   25 BR1  UNL     1      19.137  -0.345  53.019  1.00  0.00    -0.051 Br
HETATM   26  C4  UNL     1      20.232   0.572  50.626  1.00  0.00     0.019 A 
HETATM   27  C5  UNL     1      21.213   1.061  49.792  1.00  0.00     0.002 A 
HETATM   28  C6  UNL     1      22.465   1.281  50.317  1.00  0.00     0.010 A 
ENDBRANCH   1  21
BRANCH   3  29
HETATM   29  N2  UNL     1      25.572  -1.278  54.533  1.00  0.00    -0.231 N 
HETATM   30  H7  UNL     1      26.223  -2.007  54.901  1.00  0.00     0.174 HD
HETATM   31  H8  UNL     1      24.869  -1.983  54.783  1.00  0.00     0.174 HD
ENDBRANCH   3  29
TORSDOF 3
ENDMDL
MODEL 2
REMARK VINA RESULT:      -9.2      2.360      5.636
REMARK  3 active torsions:
REMARK  status: ('A' for Active; 'I' for Inactive)
REMARK    1  A    between atoms: C7_8  and  C8_9 
REMARK    2  A    between atoms: C9_11  and  N2_12 
REMARK    3  A    between atoms: C11_16  and  C12_17 
ROOT
HETATM    1  C8  UNL     1      25.603   1.683  53.001  1.00  0.00     0.136 A 
HETATM    2  N1  UNL     1      27.000   1.678  53.061  1.00  0.00    -0.086 NA
HETATM    3  C9  UNL     1      28.025   0.940  53.059  1.00  0.00     0.717 C 
HETATM    4  N3  UNL     1      27.916  -0.472  52.963  1.00  0.00    -0.059 NA
HETATM    5  C10 UNL     1      26.912  -1.256  52.805  1.00  0.00     0.223 C 
HETATM    6  N4  UNL     1      25.553  -0.787  52.683  1.00  0.00    -0.367 N 
HETATM    7  C11 UNL     1      24.852   0.458  52.817  1.00  0.00     0.098 A 
HETATM    8  C22 UNL     1      24.948   1.021  54.228  1.00  0.00     0.056 A 
HETATM    9  C23 UNL     1      25.856   0.334  55.233  1.00  0.00     0.016 C 
HETATM   10  H10 UNL     1      24.953  -1.624  52.424  1.00  0.00     0.161 HD
ENDROOT
BRANCH   7  11
HETATM   11  C12 UNL     1      23.493   0.450  52.239  1.00  0.00    -0.016 A 
HETATM   12  C13 UNL     1      23.102   1.035  51.053  1.00  0.00     0.011 A 
HETATM   13  C14 UNL     1      21.834   1.018  50.521  1.00  0.00     0.002 A 
HETATM   14  C15 UNL     1      20.845   0.364  51.219  1.00  0.00     0.012 A 
HETATM   15  C16 UNL     1      21.156  -0.244  52.412  1.00  0.00    -0.025 A 
HETATM   16  C17 UNL     1      20.127  -0.882  53.071  1.00  0.00     0.012 A 
HETATM   17  C21 UNL     1      22.444  -0.192  52.891  1.00  0.00    -0.017 A 
HETATM   18  C18 UNL     1      20.371  -1.510  54.273  1.00  0.00     0.001 A 
HETATM   19  C19 UNL     1      21.639  -1.492  54.804  1.00  0.00     0.001 A 
HETATM   20  C20 UNL     1      22.625  -0.837  54.096  1.00  0.00     0.013 A 
ENDBRANCH   7  11
BRANCH   1  21
HETATM   21  C7  UNL     1      25.010   2.960  52.532  1.00  0.00    -0.017 A 
HETATM   22  C2  UNL     1      25.365   3.467  51.302  1.00  0.00    -0.036 A 
HETATM   23  C1  UNL     1      26.309   2.845  50.374  1.00  0.00     0.050 C 
HETATM   24  C3  UNL     1      24.836   4.665  50.820  1.00  0.00     0.017 A 
HETATM   25 BR1  UNL     1      25.289   5.412  49.132  1.00  0.00    -0.051 Br
HETATM   26  C4  UNL     1      23.927   5.394  51.562  1.00  0.00     0.019 A 
HETATM   27  C5  UNL     1      23.553   4.910  52.796  1.00  0.00     0.002 A 
HETATM   28  C6  UNL     1      24.104   3.725  53.227  1.00  0.00     0.010 A 
ENDBRANCH   1  21
BRANCH   3  29
HETATM   29  N2  UNL     1      29.340   1.458  53.149  1.00  0.00    -0.231 N 
HETATM   30  H7  UNL     1      29.960   2.166  53.602  1.00  0.00     0.174 HD
HETATM   31  H8  UNL     1      30.216   1.203  52.677  1.00  0.00     0.174 HD
ENDBRANCH   3  29
TORSDOF 3
ENDMDL
MODEL 3
REMARK VINA RESULT:      -8.6      3.323      6.172
REMARK  3 active torsions:
REMARK  status: ('A' for Active; 'I' for Inactive)
REMARK    1  A    between atoms: C7_8  and  C8_9 
REMARK    2  A    between atoms: C9_11  and  N2_12 
REMARK    3  A    between atoms: C11_16  and  C12_17 
ROOT
HETATM    1  C8  UNL     1      23.770   5.059  49.846  1.00  0.00     0.136 A 
HETATM    2  N1  UNL     1      24.009   6.315  50.412  1.00  0.00    -0.086 NA
HETATM    3  C9  UNL     1      23.479   7.417  50.725  1.00  0.00     0.717 C 
HETATM    4  N3  UNL     1      22.103   7.668  50.485  1.00  0.00    -0.059 NA
HETATM    5  C10 UNL     1      21.155   6.935  50.025  1.00  0.00     0.223 C 
HETATM    6  N4  UNL     1      21.341   5.562  49.620  1.00  0.00    -0.367 N 
HETATM    7  C11 UNL     1      22.440   4.658  49.435  1.00  0.00     0.098 A 
HETATM    8  C22 UNL     1      23.398   5.136  48.353  1.00  0.00     0.056 A 
HETATM    9  C23 UNL     1      23.191   6.511  47.742  1.00  0.00     0.016 C 
HETATM   10  H10 UNL     1      20.379   5.161  49.418  1.00  0.00     0.161 HD
ENDROOT
BRANCH   7  11
HETATM   11  C12 UNL     1      22.043   3.239  49.336  1.00  0.00    -0.016 A 
HETATM   12  C13 UNL     1      22.296   2.388  48.282  1.00  0.00     0.011 A 
HETATM   13  C14 UNL     1      21.925   1.066  48.201  1.00  0.00     0.002 A 
HETATM   14  C15 UNL     1      21.237   0.518  49.258  1.00  0.00     0.012 A 
HETATM   15  C16 UNL     1      20.945   1.304  50.347  1.00  0.00    -0.025 A 
HETATM   16  C17 UNL     1      20.250   0.705  51.377  1.00  0.00     0.012 A 
HETATM   17  C21 UNL     1      21.343   2.620  50.369  1.00  0.00    -0.017 A 
HETATM   18  C18 UNL     1      19.924   1.438  52.498  1.00  0.00     0.001 A 
HETATM   19  C19 UNL     1      20.295   2.760  52.577  1.00  0.00     0.001 A 
HETATM   20  C20 UNL     1      20.988   3.300  51.514  1.00  0.00     0.013 A 
ENDBRANCH   7  11
BRANCH   1  21
HETATM   21  C7  UNL     1      24.740   4.008  50.241  1.00  0.00    -0.017 A 
HETATM   22  C2  UNL     1      24.760   3.549  51.540  1.00  0.00    -0.036 A 
HETATM   23  C1  UNL     1      23.882   4.017  52.612  1.00  0.00     0.050 C 
HETATM   24  C3  UNL     1      25.655   2.565  51.958  1.00  0.00     0.017 A 
HETATM   25 BR1  UNL     1      25.727   1.895  53.736  1.00  0.00    -0.051 Br
HETATM   26  C4  UNL     1      26.563   2.005  51.080  1.00  0.00     0.019 A 
HETATM   27  C5  UNL     1      26.566   2.444  49.775  1.00  0.00     0.002 A 
HETATM   28  C6  UNL     1      25.664   3.417  49.412  1.00  0.00     0.010 A 
ENDBRANCH   1  21
BRANCH   3  29
HETATM   29  N2  UNL     1      24.207   8.471  51.331  1.00  0.00    -0.231 N 
HETATM   30  H7  UNL     1      25.154   8.869  51.519  1.00  0.00     0.174 HD
HETATM   31  H8  UNL     1      23.910   9.298  51.862  1.00  0.00     0.174 HD
ENDBRANCH   3  29
TORSDOF 3
ENDMDL
MODEL 4
REMARK VINA RESULT:      -8.6      2.512      4.738
REMARK  3 active torsions:
REMARK  status: ('A' for Active; 'I' for Inactive)
REMARK    1  A    between atoms: C7_8  and  C8_9 
REMARK    2  A    between atoms: C9_11  and  N2_12 
REMARK    3  A    between atoms: C11_16  and  C12_17 
ROOT
HETATM    1  C8  UNL     1      24.382   1.481  52.545  1.00  0.00     0.136 A 
HETATM    2  N1  UNL     1      23.620   0.391  52.977  1.00  0.00    -0.086 NA
HETATM    3  C9  UNL     1      22.588  -0.297  52.743  1.00  0.00     0.717 C 
HETATM    4  N3  UNL     1      21.735   0.002  51.648  1.00  0.00    -0.059 NA
HETATM    5  C10 UNL     1      21.807   0.870  50.705  1.00  0.00     0.223 C 
HETATM    6  N4  UNL     1      22.896   1.807  50.572  1.00  0.00    -0.367 N 
HETATM    7  C11 UNL     1      24.037   2.213  51.343  1.00  0.00     0.098 A 
HETATM    8  C22 UNL     1      23.638   2.823  52.679  1.00  0.00     0.056 A 
HETATM    9  C23 UNL     1      22.178   2.787  53.097  1.00  0.00     0.016 C 
HETATM   10  H10 UNL     1      22.774   2.302  49.641  1.00  0.00     0.161 HD
ENDROOT
BRANCH   7  11
HETATM   11  C12 UNL     1      25.038   2.984  50.579  1.00  0.00    -0.016 A 
HETATM   12  C13 UNL     1      26.109   2.471  49.880  1.00  0.00     0.011 A 
HETATM   13  C14 UNL     1      27.035   3.198  49.167  1.00  0.00     0.002 A 
HETATM   14  C15 UNL     1      26.900   4.566  49.134  1.00  0.00     0.012 A 
HETATM   15  C16 UNL     1      25.857   5.154  49.809  1.00  0.00    -0.025 A 
HETATM   16  C17 UNL     1      25.771   6.529  49.745  1.00  0.00     0.012 A 
HETATM   17  C21 UNL     1      24.963   4.372  50.503  1.00  0.00    -0.017 A 
HETATM   18  C18 UNL     1      24.750   7.180  50.401  1.00  0.00     0.001 A 
HETATM   19  C19 UNL     1      23.826   6.452  51.113  1.00  0.00     0.001 A 
HETATM   20  C20 UNL     1      23.966   5.081  51.138  1.00  0.00     0.013 A 
ENDBRANCH   7  11
BRANCH   1  21
HETATM   21  C7  UNL     1      25.801   1.455  52.981  1.00  0.00    -0.017 A 
HETATM   22  C2  UNL     1      26.523   0.286  52.887  1.00  0.00    -0.036 A 
HETATM   23  C1  UNL     1      26.007  -0.985  52.379  1.00  0.00     0.050 C 
HETATM   24  C3  UNL     1      27.857   0.213  53.286  1.00  0.00     0.017 A 
HETATM   25 BR1  UNL     1      28.903  -1.372  53.179  1.00  0.00    -0.051 Br
HETATM   26  C4  UNL     1      28.513   1.318  53.793  1.00  0.00     0.019 A 
HETATM   27  C5  UNL     1      27.815   2.500  53.898  1.00  0.00     0.002 A 
HETATM   28  C6  UNL     1      26.501   2.521  53.492  1.00  0.00     0.010 A 
ENDBRANCH   1  21
BRANCH   3  29
HETATM   29  N2  UNL     1      22.208  -1.403  53.542  1.00  0.00    -0.231 N 
HETATM   30  H7  UNL     1      22.361  -1.910  54.442  1.00  0.00     0.174 HD
HETATM   31  H8  UNL     1      21.527  -2.157  53.397  1.00  0.00     0.174 HD
ENDBRANCH   3  29
TORSDOF 3
ENDMDL
MODEL 5
REMARK VINA RESULT:      -8.6      1.791      2.332
REMARK  3 active torsions:
REMARK  status: ('A' for Active; 'I' for Inactive)
REMARK    1  A    between atoms: C7_8  and  C8_9 
REMARK    2  A    between atoms: C9_11  and  N2_12 
REMARK    3  A    between atoms: C11_16  and  C12_17 
ROOT
HETATM    1  C8  UNL     1      23.951   2.204  50.990  1.00  0.00     0.136 A 
HETATM    2  N1  UNL     1      23.705   1.068  51.768  1.00  0.00    -0.086 NA
HETATM    3  C9  UNL     1      23.954   0.504  52.869  1.00  0.00     0.717 C 
HETATM    4  N3  UNL     1      24.802   1.112  53.833  1.00  0.00    -0.059 NA
HETATM    5  C10 UNL     1      25.393   2.250  53.873  1.00  0.00     0.223 C 
HETATM    6  N4  UNL     1      25.292   3.233  52.820  1.00  0.00    -0.367 N 
HETATM    7  C11 UNL     1      24.750   3.303  51.494  1.00  0.00     0.098 A 
HETATM    8  C22 UNL     1      25.422   2.319  50.547  1.00  0.00     0.056 A 
HETATM    9  C23 UNL     1      26.414   1.316  51.112  1.00  0.00     0.016 C 
HETATM   10  H10 UNL     1      25.757   4.120  53.172  1.00  0.00     0.161 HD
ENDROOT
BRANCH   7  11
HETATM   11  C12 UNL     1      24.612   4.677  50.971  1.00  0.00    -0.016 A 
HETATM   12  C13 UNL     1      23.625   5.583  51.294  1.00  0.00     0.011 A 
HETATM   13  C14 UNL     1      23.508   6.863  50.804  1.00  0.00     0.002 A 
HETATM   14  C15 UNL     1      24.451   7.303  49.905  1.00  0.00     0.012 A 
HETATM   15  C16 UNL     1      25.468   6.457  49.532  1.00  0.00    -0.025 A 
HETATM   16  C17 UNL     1      26.384   6.949  48.626  1.00  0.00     0.012 A 
HETATM   17  C21 UNL     1      25.531   5.188  50.058  1.00  0.00    -0.017 A 
HETATM   18  C18 UNL     1      27.427   6.151  48.208  1.00  0.00     0.001 A 
HETATM   19  C19 UNL     1      27.542   4.872  48.698  1.00  0.00     0.001 A 
HETATM   20  C20 UNL     1      26.594   4.439  49.602  1.00  0.00     0.013 A 
ENDBRANCH   7  11
BRANCH   1  21
HETATM   21  C7  UNL     1      22.918   2.486  49.963  1.00  0.00    -0.017 A 
HETATM   22  C2  UNL     1      21.630   2.779  50.352  1.00  0.00    -0.036 A 
HETATM   23  C1  UNL     1      21.161   2.840  51.736  1.00  0.00     0.050 C 
HETATM   24  C3  UNL     1      20.625   3.048  49.423  1.00  0.00     0.017 A 
HETATM   25 BR1  UNL     1      18.831   3.457  49.902  1.00  0.00    -0.051 Br
HETATM   26  C4  UNL     1      20.884   3.034  48.066  1.00  0.00     0.019 A 
HETATM   27  C5  UNL     1      22.164   2.745  47.648  1.00  0.00     0.002 A 
HETATM   28  C6  UNL     1      23.119   2.485  48.604  1.00  0.00     0.010 A 
ENDBRANCH   1  21
BRANCH   3  29
HETATM   29  N2  UNL     1      23.415  -0.757  53.223  1.00  0.00    -0.231 N 
HETATM   30  H7  UNL     1      23.215  -1.422  54.003  1.00  0.00     0.174 HD
HETATM   31  H8  UNL     1      22.986  -1.504  52.665  1.00  0.00     0.174 HD
ENDBRANCH   3  29
TORSDOF 3
ENDMDL
MODEL 6
REMARK VINA RESULT:      -8.5      8.554     11.717
REMARK  3 active torsions:
REMARK  status: ('A' for Active; 'I' for Inactive)
REMARK    1  A    between atoms: C7_8  and  C8_9 
REMARK    2  A    between atoms: C9_11  and  N2_12 
REMARK    3  A    between atoms: C11_16  and  C12_17 
ROOT
HETATM    1  C8  UNL     1      33.901   6.410  47.104  1.00  0.00     0.136 A 
HETATM    2  N1  UNL     1      34.498   5.336  46.435  1.00  0.00    -0.086 NA
HETATM    3  C9  UNL     1      34.582   4.078  46.384  1.00  0.00     0.717 C 
HETATM    4  N3  UNL     1      33.853   3.254  47.282  1.00  0.00    -0.059 NA
HETATM    5  C10 UNL     1      32.992   3.518  48.197  1.00  0.00     0.223 C 
HETATM    6  N4  UNL     1      32.560   4.857  48.516  1.00  0.00    -0.367 N 
HETATM    7  C11 UNL     1      32.929   6.197  48.156  1.00  0.00     0.098 A 
HETATM    8  C22 UNL     1      34.355   6.528  48.571  1.00  0.00     0.056 A 
HETATM    9  C23 UNL     1      35.233   5.424  49.135  1.00  0.00     0.016 C 
HETATM   10  H10 UNL     1      31.753   4.773  49.201  1.00  0.00     0.161 HD
ENDROOT
BRANCH   7  11
HETATM   11  C12 UNL     1      31.921   7.216  48.512  1.00  0.00    -0.016 A 
HETATM   12  C13 UNL     1      32.171   8.510  48.915  1.00  0.00     0.011 A 
HETATM   13  C14 UNL     1      31.224   9.453  49.241  1.00  0.00     0.002 A 
HETATM   14  C15 UNL     1      29.898   9.096  49.166  1.00  0.00     0.012 A 
HETATM   15  C16 UNL     1      29.568   7.821  48.772  1.00  0.00    -0.025 A 
HETATM   16  C17 UNL     1      28.224   7.516  48.717  1.00  0.00     0.012 A 
HETATM   17  C21 UNL     1      30.561   6.923  48.459  1.00  0.00    -0.017 A 
HETATM   18  C18 UNL     1      27.826   6.255  48.332  1.00  0.00     0.001 A 
HETATM   19  C19 UNL     1      28.773   5.313  48.007  1.00  0.00     0.001 A 
HETATM   20  C20 UNL     1      30.100   5.680  48.082  1.00  0.00     0.013 A 
ENDBRANCH   7  11
BRANCH   1  21
HETATM   21  C7  UNL     1      33.837   7.668  46.319  1.00  0.00    -0.017 A 
HETATM   22  C2  UNL     1      32.916   7.793  45.303  1.00  0.00    -0.036 A 
HETATM   23  C1  UNL     1      31.955   6.765  44.905  1.00  0.00     0.050 C 
HETATM   24  C3  UNL     1      32.820   8.955  44.537  1.00  0.00     0.017 A 
HETATM   25 BR1  UNL     1      31.569   9.184  43.123  1.00  0.00    -0.051 Br
HETATM   26  C4  UNL     1      33.650  10.034  44.769  1.00  0.00     0.019 A 
HETATM   27  C5  UNL     1      34.581   9.937  45.780  1.00  0.00     0.002 A 
HETATM   28  C6  UNL     1      34.636   8.770  46.506  1.00  0.00     0.010 A 
ENDBRANCH   1  21
BRANCH   3  29
HETATM   29  N2  UNL     1      35.395   3.403  45.442  1.00  0.00    -0.231 N 
HETATM   30  H7  UNL     1      35.783   2.481  45.140  1.00  0.00     0.174 HD
HETATM   31  H8  UNL     1      35.930   3.733  44.630  1.00  0.00     0.174 HD
ENDBRANCH   3  29
TORSDOF 3
ENDMDL
MODEL 7
REMARK VINA RESULT:      -8.4      2.350      5.539
REMARK  3 active torsions:
REMARK  status: ('A' for Active; 'I' for Inactive)
REMARK    1  A    between atoms: C7_8  and  C8_9 
REMARK    2  A    between atoms: C9_11  and  N2_12 
REMARK    3  A    between atoms: C11_16  and  C12_17 
ROOT
HETATM    1  C8  UNL     1      23.794   3.109  51.273  1.00  0.00     0.136 A 
HETATM    2  N1  UNL     1      24.993   3.591  50.739  1.00  0.00    -0.086 NA
HETATM    3  C9  UNL     1      26.212   3.325  50.549  1.00  0.00     0.717 C 
HETATM    4  N3  UNL     1      26.773   2.093  50.978  1.00  0.00    -0.059 NA
HETATM    5  C10 UNL     1      26.260   1.050  51.523  1.00  0.00     0.223 C 
HETATM    6  N4  UNL     1      24.857   0.929  51.837  1.00  0.00    -0.367 N 
HETATM    7  C11 UNL     1      23.700   1.778  51.835  1.00  0.00     0.098 A 
HETATM    8  C22 UNL     1      23.843   2.943  52.803  1.00  0.00     0.056 A 
HETATM    9  C23 UNL     1      25.176   3.162  53.499  1.00  0.00     0.016 C 
HETATM   10  H10 UNL     1      24.689  -0.073  52.145  1.00  0.00     0.161 HD
ENDROOT
BRANCH   7  11
HETATM   11  C12 UNL     1      22.418   1.050  51.919  1.00  0.00    -0.016 A 
HETATM   12  C13 UNL     1      21.347   1.173  51.061  1.00  0.00     0.011 A 
HETATM   13  C14 UNL     1      20.157   0.486  51.146  1.00  0.00     0.002 A 
HETATM   14  C15 UNL     1      19.998  -0.412  52.175  1.00  0.00     0.012 A 
HETATM   15  C16 UNL     1      21.022  -0.590  53.074  1.00  0.00    -0.025 A 
HETATM   16  C17 UNL     1      20.807  -1.500  54.088  1.00  0.00     0.012 A 
HETATM   17  C21 UNL     1      22.188   0.126  52.935  1.00  0.00    -0.017 A 
HETATM   18  C18 UNL     1      21.793  -1.725  55.024  1.00  0.00     0.001 A 
HETATM   19  C19 UNL     1      22.981  -1.038  54.938  1.00  0.00     0.001 A 
HETATM   20  C20 UNL     1      23.134  -0.142  53.901  1.00  0.00     0.013 A 
ENDBRANCH   7  11
BRANCH   1  21
HETATM   21  C7  UNL     1      22.571   3.731  50.706  1.00  0.00    -0.017 A 
HETATM   22  C2  UNL     1      22.285   3.579  49.367  1.00  0.00    -0.036 A 
HETATM   23  C1  UNL     1      23.103   2.834  48.410  1.00  0.00     0.050 C 
HETATM   24  C3  UNL     1      21.149   4.146  48.789  1.00  0.00     0.017 A 
HETATM   25 BR1  UNL     1      20.705   3.970  46.949  1.00  0.00    -0.051 Br
HETATM   26  C4  UNL     1      20.259   4.888  49.542  1.00  0.00     0.019 A 
HETATM   27  C5  UNL     1      20.520   5.056  50.884  1.00  0.00     0.002 A 
HETATM   28  C6  UNL     1      21.653   4.477  51.406  1.00  0.00     0.010 A 
ENDBRANCH   1  21
BRANCH   3  29
HETATM   29  N2  UNL     1      27.099   4.220  49.903  1.00  0.00    -0.231 N 
HETATM   30  H7  UNL     1      27.902   4.878  50.024  1.00  0.00     0.174 HD
HETATM   31  H8  UNL     1      27.192   4.512  48.923  1.00  0.00     0.174 HD
ENDBRANCH   3  29
TORSDOF 3
ENDMDL
MODEL 8
REMARK VINA RESULT:      -8.2      3.949      6.028
REMARK  3 active torsions:
REMARK  status: ('A' for Active; 'I' for Inactive)
REMARK    1  A    between atoms: C7_8  and  C8_9 
REMARK    2  A    between atoms: C9_11  and  N2_12 
REMARK    3  A    between atoms: C11_16  and  C12_17 
ROOT
HETATM    1  C8  UNL     1      22.744   5.619  49.632  1.00  0.00     0.136 A 
HETATM    2  N1  UNL     1      21.656   5.023  50.277  1.00  0.00    -0.086 NA
HETATM    3  C9  UNL     1      21.277   4.454  51.339  1.00  0.00     0.717 C 
HETATM    4  N3  UNL     1      22.171   4.249  52.423  1.00  0.00    -0.059 NA
HETATM    5  C10 UNL     1      23.392   4.594  52.618  1.00  0.00     0.223 C 
HETATM    6  N4  UNL     1      24.167   5.340  51.657  1.00  0.00    -0.367 N 
HETATM    7  C11 UNL     1      24.018   5.786  50.301  1.00  0.00     0.098 A 
HETATM    8  C22 UNL     1      23.879   4.623  49.328  1.00  0.00     0.056 A 
HETATM    9  C23 UNL     1      23.754   3.213  49.880  1.00  0.00     0.016 C 
HETATM   10  H10 UNL     1      25.081   5.606  52.127  1.00  0.00     0.161 HD
ENDROOT
BRANCH   7  11
HETATM   11  C12 UNL     1      24.986   6.825  49.897  1.00  0.00    -0.016 A 
HETATM   12  C13 UNL     1      24.822   8.188  50.013  1.00  0.00     0.011 A 
HETATM   13  C14 UNL     1      25.732   9.149  49.638  1.00  0.00     0.002 A 
HETATM   14  C15 UNL     1      26.925   8.735  49.092  1.00  0.00     0.012 A 
HETATM   15  C16 UNL     1      27.163   7.390  48.943  1.00  0.00    -0.025 A 
HETATM   16  C17 UNL     1      28.374   7.031  48.388  1.00  0.00     0.012 A 
HETATM   17  C21 UNL     1      26.213   6.478  49.338  1.00  0.00    -0.017 A 
HETATM   18  C18 UNL     1      28.675   5.698  48.208  1.00  0.00     0.001 A 
HETATM   19  C19 UNL     1      27.763   4.740  48.583  1.00  0.00     0.001 A 
HETATM   20  C20 UNL     1      26.571   5.163  49.133  1.00  0.00     0.013 A 
ENDBRANCH   7  11
BRANCH   1  21
HETATM   21  C7  UNL     1      22.377   6.567  48.550  1.00  0.00    -0.017 A 
HETATM   22  C2  UNL     1      21.620   7.679  48.845  1.00  0.00    -0.036 A 
HETATM   23  C1  UNL     1      21.121   8.031  50.174  1.00  0.00     0.050 C 
HETATM   24  C3  UNL     1      21.249   8.597  47.862  1.00  0.00     0.017 A 
HETATM   25 BR1  UNL     1      20.206  10.148  48.209  1.00  0.00    -0.051 Br
HETATM   26  C4  UNL     1      21.631   8.426  46.545  1.00  0.00     0.019 A 
HETATM   27  C5  UNL     1      22.389   7.323  46.222  1.00  0.00     0.002 A 
HETATM   28  C6  UNL     1      22.728   6.447  47.227  1.00  0.00     0.010 A 
ENDBRANCH   1  21
BRANCH   3  29
HETATM   29  N2  UNL     1      19.954   3.987  51.527  1.00  0.00    -0.231 N 
HETATM   30  H7  UNL     1      19.290   3.514  52.181  1.00  0.00     0.174 HD
HETATM   31  H8  UNL     1      19.124   4.002  50.922  1.00  0.00     0.174 HD
ENDBRANCH   3  29
TORSDOF 3
ENDMDL
MODEL 9
REMARK VINA RESULT:      -8.2      9.750     12.728
REMARK  3 active torsions:
REMARK  status: ('A' for Active; 'I' for Inactive)
REMARK    1  A    between atoms: C7_8  and  C8_9 
REMARK    2  A    between atoms: C9_11  and  N2_12 
REMARK    3  A    between atoms: C11_16  and  C12_17 
ROOT
HETATM    1  C8  UNL     1      31.562   8.122  46.520  1.00  0.00     0.136 A 
HETATM    2  N1  UNL     1      30.786   9.282  46.421  1.00  0.00    -0.086 NA
HETATM    3  C9  UNL     1      30.085  10.106  47.072  1.00  0.00     0.717 C 
HETATM    4  N3  UNL     1      29.895   9.967  48.472  1.00  0.00    -0.059 NA
HETATM    5  C10 UNL     1      30.365   9.140  49.334  1.00  0.00     0.223 C 
HETATM    6  N4  UNL     1      31.280   8.077  48.994  1.00  0.00    -0.367 N 
HETATM    7  C11 UNL     1      31.821   7.495  47.799  1.00  0.00     0.098 A 
HETATM    8  C22 UNL     1      30.740   6.883  46.920  1.00  0.00     0.056 A 
HETATM    9  C23 UNL     1      29.283   7.088  47.296  1.00  0.00     0.016 C 
HETATM   10  H10 UNL     1      31.611   7.644  49.905  1.00  0.00     0.161 HD
ENDROOT
BRANCH   7  11
HETATM   11  C12 UNL     1      33.001   6.636  48.028  1.00  0.00    -0.016 A 
HETATM   12  C13 UNL     1      34.218   7.033  48.537  1.00  0.00     0.011 A 
HETATM   13  C14 UNL     1      35.310   6.223  48.750  1.00  0.00     0.002 A 
HETATM   14  C15 UNL     1      35.201   4.890  48.432  1.00  0.00     0.012 A 
HETATM   15  C16 UNL     1      34.018   4.417  47.917  1.00  0.00    -0.025 A 
HETATM   16  C17 UNL     1      33.966   3.073  47.614  1.00  0.00     0.012 A 
HETATM   17  C21 UNL     1      32.961   5.277  47.728  1.00  0.00    -0.017 A 
HETATM   18  C18 UNL     1      32.809   2.535  47.092  1.00  0.00     0.001 A 
HETATM   19  C19 UNL     1      31.719   3.346  46.880  1.00  0.00     0.001 A 
HETATM   20  C20 UNL     1      31.834   4.681  47.204  1.00  0.00     0.013 A 
ENDBRANCH   7  11
BRANCH   1  21
HETATM   21  C7  UNL     1      32.551   7.946  45.426  1.00  0.00    -0.017 A 
HETATM   22  C2  UNL     1      33.633   8.794  45.341  1.00  0.00    -0.036 A 
HETATM   23  C1  UNL     1      33.914   9.897  46.260  1.00  0.00     0.050 C 
HETATM   24  C3  UNL     1      34.586   8.669  44.331  1.00  0.00     0.017 A 
HETATM   25 BR1  UNL     1      36.099   9.809  44.163  1.00  0.00    -0.051 Br
HETATM   26  C4  UNL     1      34.483   7.682  43.369  1.00  0.00     0.019 A 
HETATM   27  C5  UNL     1      33.411   6.819  43.431  1.00  0.00     0.002 A 
HETATM   28  C6  UNL     1      32.498   6.985  44.446  1.00  0.00     0.010 A 
ENDBRANCH   1  21
BRANCH   3  29
HETATM   29  N2  UNL     1      29.448  11.216  46.465  1.00  0.00    -0.231 N 
HETATM   30  H7  UNL     1      29.575  12.175  46.072  1.00  0.00     0.174 HD
HETATM   31  H8  UNL     1      28.472  11.389  46.198  1.00  0.00     0.174 HD
ENDBRANCH   3  29
TORSDOF 3
ENDMDL
