MODEL 1
REMARK VINA RESULT:      -7.7      0.000      0.000
REMARK  5 active torsions:
REMARK  status: ('A' for Active; 'I' for Inactive)
REMARK    1  A    between atoms: C2_2  and  C3_3 
REMARK    2  A    between atoms: C2_2  and  O3_21 
REMARK    3  A    between atoms: C3_3  and  C4_4 
REMARK       I    between atoms: C4_4  and  N1_6 
REMARK    4  A    between atoms: N1_6  and  C5_7 
REMARK    5  A    between atoms: O3_21  and  C15_22 
ROOT
HETATM    1  C5  UNL     1      23.753   1.443  52.906  1.00  0.00     0.035 A 
HETATM    2  C6  UNL     1      24.463   2.616  53.128  1.00  0.00     0.032 A 
HETATM    3  C7  UNL     1      25.852   2.435  53.249  1.00  0.00     0.034 A 
HETATM    4  C8  UNL     1      26.574   1.233  53.172  1.00  0.00     0.066 A 
HETATM    5  C9  UNL     1      25.781   0.096  52.948  1.00  0.00    -0.009 A 
HETATM    6  C10 UNL     1      24.424   0.241  52.824  1.00  0.00     0.040 A 
HETATM    7  C11 UNL     1      26.145  -1.342  52.823  1.00  0.00     0.164 C 
HETATM    8  N2  UNL     1      27.523  -1.534  53.106  1.00  0.00    -0.352 N 
HETATM    9  C12 UNL     1      28.908  -1.731  53.390  1.00  0.00     0.259 C 
HETATM   10  O2  UNL     1      28.723  -2.963  53.264  1.00  0.00    -0.267 OA
HETATM   11  C13 UNL     1      30.096  -0.934  53.700  1.00  0.00     0.192 C 
HETATM   12  N3  UNL     1      30.096   0.341  53.768  1.00  0.00    -0.249 NA
HETATM   13  C14 UNL     1      28.979   1.185  53.561  1.00  0.00     0.233 C 
HETATM   14  N4  UNL     1      27.875   1.715  53.366  1.00  0.00    -0.242 NA
HETATM   15  H13 UNL     1      27.783  -0.575  53.230  1.00  0.00     0.163 HD
ENDROOT
BRANCH   1  16
HETATM   16  N1  UNL     1      22.319   1.514  52.774  1.00  0.00    -0.327 N 
HETATM   17  C4  UNL     1      21.756   1.508  51.454  1.00  0.00     0.224 C 
HETATM   18  O1  UNL     1      22.722   1.437  50.622  1.00  0.00    -0.273 OA
HETATM   19  H7  UNL     1      21.825   1.564  53.712  1.00  0.00     0.169 HD
BRANCH  17  20
HETATM   20  C3  UNL     1      20.286   1.582  51.457  1.00  0.00     0.134 C 
BRANCH  20  21
HETATM   21  C2  UNL     1      19.634   0.277  51.861  1.00  0.00     0.127 C 
HETATM   22  C1  UNL     1      18.211   0.186  51.407  1.00  0.00     0.040 C 
BRANCH  21  23
HETATM   23  O3  UNL     1      19.776   0.111  53.214  1.00  0.00    -0.375 OA
BRANCH  23  24
HETATM   24  C15 UNL     1      19.784  -1.214  53.630  1.00  0.00     0.253 C 
HETATM   25 BR1  UNL     1      21.488  -1.570  54.464  1.00  0.00    -0.068 Br
ENDBRANCH  23  24
ENDBRANCH  21  23
ENDBRANCH  20  21
ENDBRANCH  17  20
ENDBRANCH   1  16
TORSDOF 5
ENDMDL
MODEL 2
REMARK VINA RESULT:      -7.3      1.798      2.128
REMARK  5 active torsions:
REMARK  status: ('A' for Active; 'I' for Inactive)
REMARK    1  A    between atoms: C2_2  and  C3_3 
REMARK    2  A    between atoms: C2_2  and  O3_21 
REMARK    3  A    between atoms: C3_3  and  C4_4 
REMARK       I    between atoms: C4_4  and  N1_6 
REMARK    4  A    between atoms: N1_6  and  C5_7 
REMARK    5  A    between atoms: O3_21  and  C15_22 
ROOT
HETATM    1  C5  UNL     1      23.286   0.961  53.101  1.00  0.00     0.035 A 
HETATM    2  C6  UNL     1      23.819   2.239  53.197  1.00  0.00     0.032 A 
HETATM    3  C7  UNL     1      25.225   2.277  53.226  1.00  0.00     0.034 A 
HETATM    4  C8  UNL     1      26.116   1.194  53.172  1.00  0.00     0.066 A 
HETATM    5  C9  UNL     1      25.495  -0.062  53.078  1.00  0.00    -0.009 A 
HETATM    6  C10 UNL     1      24.126  -0.130  53.046  1.00  0.00     0.040 A 
HETATM    7  C11 UNL     1      26.067  -1.435  53.017  1.00  0.00     0.164 C 
HETATM    8  N2  UNL     1      27.473  -1.398  53.210  1.00  0.00    -0.352 N 
HETATM    9  C12 UNL     1      28.888  -1.365  53.402  1.00  0.00     0.259 C 
HETATM   10  O2  UNL     1      28.886  -2.617  53.368  1.00  0.00    -0.267 OA
HETATM   11  C13 UNL     1      29.956  -0.379  53.573  1.00  0.00     0.192 C 
HETATM   12  N3  UNL     1      29.764   0.883  53.561  1.00  0.00    -0.249 NA
HETATM   13  C14 UNL     1      28.520   1.534  53.384  1.00  0.00     0.233 C 
HETATM   14  N4  UNL     1      27.337   1.877  53.238  1.00  0.00    -0.242 NA
HETATM   15  H13 UNL     1      27.590  -0.405  53.254  1.00  0.00     0.163 HD
ENDROOT
BRANCH   1  16
HETATM   16  N1  UNL     1      21.852   0.808  53.071  1.00  0.00    -0.327 N 
HETATM   17  C4  UNL     1      21.208   0.678  51.795  1.00  0.00     0.224 C 
HETATM   18  O1  UNL     1      22.114   0.734  50.898  1.00  0.00    -0.273 OA
HETATM   19  H7  UNL     1      21.421   0.807  54.041  1.00  0.00     0.169 HD
BRANCH  17  20
HETATM   20  C3  UNL     1      19.748   0.526  51.903  1.00  0.00     0.134 C 
BRANCH  20  21
HETATM   21  C2  UNL     1      19.001   1.804  51.584  1.00  0.00     0.127 C 
HETATM   22  C1  UNL     1      18.894   2.050  50.112  1.00  0.00     0.040 C 
BRANCH  21  23
HETATM   23  O3  UNL     1      19.591   2.841  52.258  1.00  0.00    -0.375 OA
BRANCH  23  24
HETATM   24  C15 UNL     1      19.645   4.031  51.543  1.00  0.00     0.253 C 
HETATM   25 BR1  UNL     1      21.492   4.577  51.428  1.00  0.00    -0.068 Br
ENDBRANCH  23  24
ENDBRANCH  21  23
ENDBRANCH  20  21
ENDBRANCH  17  20
ENDBRANCH   1  16
TORSDOF 5
ENDMDL
MODEL 3
REMARK VINA RESULT:      -7.3      2.334      3.105
REMARK  5 active torsions:
REMARK  status: ('A' for Active; 'I' for Inactive)
REMARK    1  A    between atoms: C2_2  and  C3_3 
REMARK    2  A    between atoms: C2_2  and  O3_21 
REMARK    3  A    between atoms: C3_3  and  C4_4 
REMARK       I    between atoms: C4_4  and  N1_6 
REMARK    4  A    between atoms: N1_6  and  C5_7 
REMARK    5  A    between atoms: O3_21  and  C15_22 
ROOT
HETATM    1  C5  UNL     1      21.965   0.126  52.210  1.00  0.00     0.035 A 
HETATM    2  C6  UNL     1      22.055  -0.803  53.239  1.00  0.00     0.032 A 
HETATM    3  C7  UNL     1      23.294  -0.810  53.904  1.00  0.00     0.034 A 
HETATM    4  C8  UNL     1      24.414  -0.003  53.646  1.00  0.00     0.066 A 
HETATM    5  C9  UNL     1      24.240   0.906  52.590  1.00  0.00    -0.009 A 
HETATM    6  C10 UNL     1      23.042   0.937  51.924  1.00  0.00     0.040 A 
HETATM    7  C11 UNL     1      25.170   1.907  51.996  1.00  0.00     0.164 C 
HETATM    8  N2  UNL     1      26.465   1.782  52.564  1.00  0.00    -0.352 N 
HETATM    9  C12 UNL     1      27.769   1.660  53.133  1.00  0.00     0.259 C 
HETATM   10  O2  UNL     1      28.161   2.541  52.334  1.00  0.00    -0.267 OA
HETATM   11  C13 UNL     1      28.451   0.892  54.175  1.00  0.00     0.192 C 
HETATM   12  N3  UNL     1      27.868   0.032  54.918  1.00  0.00    -0.249 NA
HETATM   13  C14 UNL     1      26.499  -0.321  54.866  1.00  0.00     0.233 C 
HETATM   14  N4  UNL     1      25.294  -0.483  54.623  1.00  0.00    -0.242 NA
HETATM   15  H13 UNL     1      26.261   1.074  53.242  1.00  0.00     0.163 HD
ENDROOT
BRANCH   1  16
HETATM   16  N1  UNL     1      20.738   0.211  51.457  1.00  0.00    -0.327 N 
HETATM   17  C4  UNL     1      19.761   1.184  51.856  1.00  0.00     0.224 C 
HETATM   18  O1  UNL     1      20.227   1.807  52.868  1.00  0.00    -0.273 OA
HETATM   19  H7  UNL     1      20.701  -0.487  50.659  1.00  0.00     0.169 HD
BRANCH  17  20
HETATM   20  C3  UNL     1      18.559   1.170  51.006  1.00  0.00     0.134 C 
BRANCH  20  21
HETATM   21  C2  UNL     1      17.824  -0.153  51.053  1.00  0.00     0.127 C 
HETATM   22  C1  UNL     1      16.343   0.013  50.933  1.00  0.00     0.040 C 
BRANCH  21  23
HETATM   23  O3  UNL     1      18.197  -0.826  52.187  1.00  0.00    -0.375 OA
BRANCH  23  24
HETATM   24  C15 UNL     1      17.136  -1.237  52.984  1.00  0.00     0.253 C 
HETATM   25 BR1  UNL     1      17.481  -3.048  53.555  1.00  0.00    -0.068 Br
ENDBRANCH  23  24
ENDBRANCH  21  23
ENDBRANCH  20  21
ENDBRANCH  17  20
ENDBRANCH   1  16
TORSDOF 5
ENDMDL
MODEL 4
REMARK VINA RESULT:      -7.2      2.322      2.819
REMARK  5 active torsions:
REMARK  status: ('A' for Active; 'I' for Inactive)
REMARK    1  A    between atoms: C2_2  and  C3_3 
REMARK    2  A    between atoms: C2_2  and  O3_21 
REMARK    3  A    between atoms: C3_3  and  C4_4 
REMARK       I    between atoms: C4_4  and  N1_6 
REMARK    4  A    between atoms: N1_6  and  C5_7 
REMARK    5  A    between atoms: O3_21  and  C15_22 
ROOT
HETATM    1  C5  UNL     1      22.447   0.124  52.270  1.00  0.00     0.035 A 
HETATM    2  C6  UNL     1      22.692   1.229  51.464  1.00  0.00     0.032 A 
HETATM    3  C7  UNL     1      24.011   1.711  51.531  1.00  0.00     0.034 A 
HETATM    4  C8  UNL     1      25.072   1.210  52.301  1.00  0.00     0.066 A 
HETATM    5  C9  UNL     1      24.740   0.095  53.087  1.00  0.00    -0.009 A 
HETATM    6  C10 UNL     1      23.462  -0.398  53.043  1.00  0.00     0.040 A 
HETATM    7  C11 UNL     1      25.554  -0.708  54.042  1.00  0.00     0.164 C 
HETATM    8  N2  UNL     1      26.833  -0.118  54.224  1.00  0.00    -0.352 N 
HETATM    9  C12 UNL     1      28.121   0.471  54.410  1.00  0.00     0.259 C 
HETATM   10  O2  UNL     1      28.361  -0.410  55.267  1.00  0.00    -0.267 OA
HETATM   11  C13 UNL     1      28.908   1.591  53.891  1.00  0.00     0.192 C 
HETATM   12  N3  UNL     1      28.493   2.388  52.983  1.00  0.00    -0.249 NA
HETATM   13  C14 UNL     1      27.236   2.331  52.336  1.00  0.00     0.233 C 
HETATM   14  N4  UNL     1      26.087   2.102  51.930  1.00  0.00    -0.242 NA
HETATM   15  H13 UNL     1      26.748   0.627  53.561  1.00  0.00     0.163 HD
ENDROOT
BRANCH   1  16
HETATM   16  N1  UNL     1      21.122  -0.446  52.283  1.00  0.00    -0.327 N 
HETATM   17  C4  UNL     1      20.240  -0.095  53.359  1.00  0.00     0.224 C 
HETATM   18  O1  UNL     1      20.870   0.705  54.129  1.00  0.00    -0.273 OA
HETATM   19  H7  UNL     1      20.947  -1.088  51.456  1.00  0.00     0.169 HD
BRANCH  17  20
HETATM   20  C3  UNL     1      18.922  -0.741  53.253  1.00  0.00     0.134 C 
BRANCH  20  21
HETATM   21  C2  UNL     1      17.956   0.039  52.386  1.00  0.00     0.127 C 
HETATM   22  C1  UNL     1      17.055  -0.854  51.592  1.00  0.00     0.040 C 
BRANCH  21  23
HETATM   23  O3  UNL     1      18.667   0.912  51.605  1.00  0.00    -0.375 OA
BRANCH  23  24
HETATM   24  C15 UNL     1      18.047   2.138  51.406  1.00  0.00     0.253 C 
HETATM   25 BR1  UNL     1      19.399   3.513  51.482  1.00  0.00    -0.068 Br
ENDBRANCH  23  24
ENDBRANCH  21  23
ENDBRANCH  20  21
ENDBRANCH  17  20
ENDBRANCH   1  16
TORSDOF 5
ENDMDL
MODEL 5
REMARK VINA RESULT:      -7.0      2.518      3.421
REMARK  5 active torsions:
REMARK  status: ('A' for Active; 'I' for Inactive)
REMARK    1  A    between atoms: C2_2  and  C3_3 
REMARK    2  A    between atoms: C2_2  and  O3_21 
REMARK    3  A    between atoms: C3_3  and  C4_4 
REMARK       I    between atoms: C4_4  and  N1_6 
REMARK    4  A    between atoms: N1_6  and  C5_7 
REMARK    5  A    between atoms: O3_21  and  C15_22 
ROOT
HETATM    1  C5  UNL     1      22.565   0.395  52.550  1.00  0.00     0.035 A 
HETATM    2  C6  UNL     1      22.710  -0.682  53.415  1.00  0.00     0.032 A 
HETATM    3  C7  UNL     1      23.976  -0.769  54.021  1.00  0.00     0.034 A 
HETATM    4  C8  UNL     1      25.074   0.089  53.849  1.00  0.00     0.066 A 
HETATM    5  C9  UNL     1      24.844   1.149  52.957  1.00  0.00    -0.009 A 
HETATM    6  C10 UNL     1      23.619   1.261  52.352  1.00  0.00     0.040 A 
HETATM    7  C11 UNL     1      25.735   2.248  52.492  1.00  0.00     0.164 C 
HETATM    8  N2  UNL     1      27.055   2.060  52.981  1.00  0.00    -0.352 N 
HETATM    9  C12 UNL     1      28.383   1.875  53.472  1.00  0.00     0.259 C 
HETATM   10  O2  UNL     1      28.731   2.878  52.808  1.00  0.00    -0.267 OA
HETATM   11  C13 UNL     1      29.118   0.966  54.353  1.00  0.00     0.192 C 
HETATM   12  N3  UNL     1      28.578  -0.011  54.972  1.00  0.00    -0.249 NA
HETATM   13  C14 UNL     1      27.213  -0.377  54.920  1.00  0.00     0.233 C 
HETATM   14  N4  UNL     1      26.000  -0.522  54.703  1.00  0.00    -0.242 NA
HETATM   15  H13 UNL     1      26.889   1.251  53.547  1.00  0.00     0.163 HD
ENDROOT
BRANCH   1  16
HETATM   16  N1  UNL     1      21.306   0.574  51.869  1.00  0.00    -0.327 N 
HETATM   17  C4  UNL     1      20.147   0.888  52.654  1.00  0.00     0.224 C 
HETATM   18  O1  UNL     1      20.511   0.942  53.877  1.00  0.00    -0.273 OA
HETATM   19  H7  UNL     1      21.390   0.448  50.819  1.00  0.00     0.169 HD
BRANCH  17  20
HETATM   20  C3  UNL     1      18.931   1.048  51.841  1.00  0.00     0.134 C 
BRANCH  20  21
HETATM   21  C2  UNL     1      18.742   2.464  51.341  1.00  0.00     0.127 C 
HETATM   22  C1  UNL     1      18.969   2.583  49.867  1.00  0.00     0.040 C 
BRANCH  21  23
HETATM   23  O3  UNL     1      19.540   3.302  52.074  1.00  0.00    -0.375 OA
BRANCH  23  24
HETATM   24  C15 UNL     1      20.196   4.270  51.324  1.00  0.00     0.253 C 
HETATM   25 BR1  UNL     1      21.961   4.510  52.068  1.00  0.00    -0.068 Br
ENDBRANCH  23  24
ENDBRANCH  21  23
ENDBRANCH  20  21
ENDBRANCH  17  20
ENDBRANCH   1  16
TORSDOF 5
ENDMDL
MODEL 6
REMARK VINA RESULT:      -6.9      4.329      5.805
REMARK  5 active torsions:
REMARK  status: ('A' for Active; 'I' for Inactive)
REMARK    1  A    between atoms: C2_2  and  C3_3 
REMARK    2  A    between atoms: C2_2  and  O3_21 
REMARK    3  A    between atoms: C3_3  and  C4_4 
REMARK       I    between atoms: C4_4  and  N1_6 
REMARK    4  A    between atoms: N1_6  and  C5_7 
REMARK    5  A    between atoms: O3_21  and  C15_22 
ROOT
HETATM    1  C5  UNL     1      23.610   3.179  51.947  1.00  0.00     0.035 A 
HETATM    2  C6  UNL     1      22.989   4.420  52.018  1.00  0.00     0.032 A 
HETATM    3  C7  UNL     1      23.624   5.426  51.267  1.00  0.00     0.034 A 
HETATM    4  C8  UNL     1      24.780   5.312  50.480  1.00  0.00     0.066 A 
HETATM    5  C9  UNL     1      25.344   4.027  50.464  1.00  0.00    -0.009 A 
HETATM    6  C10 UNL     1      24.748   3.025  51.185  1.00  0.00     0.040 A 
HETATM    7  C11 UNL     1      26.559   3.499  49.783  1.00  0.00     0.164 C 
HETATM    8  N2  UNL     1      27.280   4.553  49.162  1.00  0.00    -0.352 N 
HETATM    9  C12 UNL     1      28.007   5.610  48.535  1.00  0.00     0.259 C 
HETATM   10  O2  UNL     1      28.885   4.774  48.223  1.00  0.00    -0.267 OA
HETATM   11  C13 UNL     1      27.882   7.050  48.302  1.00  0.00     0.192 C 
HETATM   12  N3  UNL     1      26.883   7.746  48.689  1.00  0.00    -0.249 NA
HETATM   13  C14 UNL     1      25.753   7.262  49.389  1.00  0.00     0.233 C 
HETATM   14  N4  UNL     1      24.887   6.627  50.009  1.00  0.00    -0.242 NA
HETATM   15  H13 UNL     1      26.645   5.302  49.359  1.00  0.00     0.163 HD
ENDROOT
BRANCH   1  16
HETATM   16  N1  UNL     1      23.044   2.077  52.686  1.00  0.00    -0.327 N 
HETATM   17  C4  UNL     1      22.401   1.025  51.953  1.00  0.00     0.224 C 
HETATM   18  O1  UNL     1      22.473   1.318  50.712  1.00  0.00    -0.273 OA
HETATM   19  H7  UNL     1      23.179   2.178  53.734  1.00  0.00     0.169 HD
BRANCH  17  20
HETATM   20  C3  UNL     1      21.870  -0.038  52.823  1.00  0.00     0.134 C 
BRANCH  20  21
HETATM   21  C2  UNL     1      22.956  -0.931  53.385  1.00  0.00     0.127 C 
HETATM   22  C1  UNL     1      22.861  -1.076  54.871  1.00  0.00     0.040 C 
BRANCH  21  23
HETATM   23  O3  UNL     1      24.174  -0.462  52.970  1.00  0.00    -0.375 OA
BRANCH  23  24
HETATM   24  C15 UNL     1      25.204  -0.655  53.883  1.00  0.00     0.253 C 
HETATM   25 BR1  UNL     1      26.862  -0.763  52.902  1.00  0.00    -0.068 Br
ENDBRANCH  23  24
ENDBRANCH  21  23
ENDBRANCH  20  21
ENDBRANCH  17  20
ENDBRANCH   1  16
TORSDOF 5
ENDMDL
MODEL 7
REMARK VINA RESULT:      -6.7      2.347      2.883
REMARK  5 active torsions:
REMARK  status: ('A' for Active; 'I' for Inactive)
REMARK    1  A    between atoms: C2_2  and  C3_3 
REMARK    2  A    between atoms: C2_2  and  O3_21 
REMARK    3  A    between atoms: C3_3  and  C4_4 
REMARK       I    between atoms: C4_4  and  N1_6 
REMARK    4  A    between atoms: N1_6  and  C5_7 
REMARK    5  A    between atoms: O3_21  and  C15_22 
ROOT
HETATM    1  C5  UNL     1      21.820   1.577  51.211  1.00  0.00     0.035 A 
HETATM    2  C6  UNL     1      22.489   2.486  50.402  1.00  0.00     0.032 A 
HETATM    3  C7  UNL     1      23.869   2.579  50.656  1.00  0.00     0.034 A 
HETATM    4  C8  UNL     1      24.617   1.872  51.611  1.00  0.00     0.066 A 
HETATM    5  C9  UNL     1      23.865   0.975  52.387  1.00  0.00    -0.009 A 
HETATM    6  C10 UNL     1      22.518   0.863  52.161  1.00  0.00     0.040 A 
HETATM    7  C11 UNL     1      24.265   0.067  53.497  1.00  0.00     0.164 C 
HETATM    8  N2  UNL     1      25.622   0.284  53.854  1.00  0.00    -0.352 N 
HETATM    9  C12 UNL     1      26.987   0.499  54.215  1.00  0.00     0.259 C 
HETATM   10  O2  UNL     1      26.835  -0.330  55.142  1.00  0.00    -0.267 OA
HETATM   11  C13 UNL     1      28.133   1.296  53.776  1.00  0.00     0.192 C 
HETATM   12  N3  UNL     1      28.103   2.090  52.776  1.00  0.00    -0.249 NA
HETATM   13  C14 UNL     1      26.988   2.331  51.939  1.00  0.00     0.233 C 
HETATM   14  N4  UNL     1      25.891   2.400  51.365  1.00  0.00    -0.242 NA
HETATM   15  H13 UNL     1      25.854   0.958  53.151  1.00  0.00     0.163 HD
ENDROOT
BRANCH   1  16
HETATM   16  N1  UNL     1      20.398   1.409  51.038  1.00  0.00    -0.327 N 
HETATM   17  C4  UNL     1      19.516   2.202  51.846  1.00  0.00     0.224 C 
HETATM   18  O1  UNL     1      20.238   2.936  52.601  1.00  0.00    -0.273 OA
HETATM   19  H7  UNL     1      20.160   0.686  50.298  1.00  0.00     0.169 HD
BRANCH  17  20
HETATM   20  C3  UNL     1      18.094   1.937  51.571  1.00  0.00     0.134 C 
BRANCH  20  21
HETATM   21  C2  UNL     1      17.889   0.957  50.436  1.00  0.00     0.127 C 
HETATM   22  C1  UNL     1      16.629   1.221  49.675  1.00  0.00     0.040 C 
BRANCH  21  23
HETATM   23  O3  UNL     1      17.956  -0.318  50.934  1.00  0.00    -0.375 OA
BRANCH  23  24
HETATM   24  C15 UNL     1      16.981  -0.615  51.878  1.00  0.00     0.253 C 
HETATM   25 BR1  UNL     1      17.808  -1.634  53.293  1.00  0.00    -0.068 Br
ENDBRANCH  23  24
ENDBRANCH  21  23
ENDBRANCH  20  21
ENDBRANCH  17  20
ENDBRANCH   1  16
TORSDOF 5
ENDMDL
MODEL 8
REMARK VINA RESULT:      -6.6      2.678      3.421
REMARK  5 active torsions:
REMARK  status: ('A' for Active; 'I' for Inactive)
REMARK    1  A    between atoms: C2_2  and  C3_3 
REMARK    2  A    between atoms: C2_2  and  O3_21 
REMARK    3  A    between atoms: C3_3  and  C4_4 
REMARK       I    between atoms: C4_4  and  N1_6 
REMARK    4  A    between atoms: N1_6  and  C5_7 
REMARK    5  A    between atoms: O3_21  and  C15_22 
ROOT
HETATM    1  C5  UNL     1      22.302   0.972  52.620  1.00  0.00     0.035 A 
HETATM    2  C6  UNL     1      22.370  -0.225  53.321  1.00  0.00     0.032 A 
HETATM    3  C7  UNL     1      23.643  -0.517  53.842  1.00  0.00     0.034 A 
HETATM    4  C8  UNL     1      24.815   0.249  53.731  1.00  0.00     0.066 A 
HETATM    5  C9  UNL     1      24.659   1.441  53.006  1.00  0.00    -0.009 A 
HETATM    6  C10 UNL     1      23.430   1.753  52.487  1.00  0.00     0.040 A 
HETATM    7  C11 UNL     1      25.639   2.505  52.649  1.00  0.00     0.164 C 
HETATM    8  N2  UNL     1      26.950   2.125  53.038  1.00  0.00    -0.352 N 
HETATM    9  C12 UNL     1      28.271   1.748  53.429  1.00  0.00     0.259 C 
HETATM   10  O2  UNL     1      28.692   2.797  52.890  1.00  0.00    -0.267 OA
HETATM   11  C13 UNL     1      28.944   0.658  54.137  1.00  0.00     0.192 C 
HETATM   12  N3  UNL     1      28.332  -0.341  54.645  1.00  0.00    -0.249 NA
HETATM   13  C14 UNL     1      26.935  -0.565  54.615  1.00  0.00     0.233 C 
HETATM   14  N4  UNL     1      25.707  -0.562  54.444  1.00  0.00    -0.242 NA
HETATM   15  H13 UNL     1      26.725   1.264  53.496  1.00  0.00     0.163 HD
ENDROOT
BRANCH   1  16
HETATM   16  N1  UNL     1      21.042   1.364  52.037  1.00  0.00    -0.327 N 
HETATM   17  C4  UNL     1      20.828   1.103  50.642  1.00  0.00     0.224 C 
HETATM   18  O1  UNL     1      21.880   0.541  50.187  1.00  0.00    -0.273 OA
HETATM   19  H7  UNL     1      20.391   1.818  52.741  1.00  0.00     0.169 HD
BRANCH  17  20
HETATM   20  C3  UNL     1      19.505   1.548  50.173  1.00  0.00     0.134 C 
BRANCH  20  21
HETATM   21  C2  UNL     1      18.434   1.423  51.235  1.00  0.00     0.127 C 
HETATM   22  C1  UNL     1      17.201   0.748  50.725  1.00  0.00     0.040 C 
BRANCH  21  23
HETATM   23  O3  UNL     1      18.186   2.665  51.761  1.00  0.00    -0.375 OA
BRANCH  23  24
HETATM   24  C15 UNL     1      17.332   3.449  50.997  1.00  0.00     0.253 C 
HETATM   25 BR1  UNL     1      15.916   4.086  52.144  1.00  0.00    -0.068 Br
ENDBRANCH  23  24
ENDBRANCH  21  23
ENDBRANCH  20  21
ENDBRANCH  17  20
ENDBRANCH   1  16
TORSDOF 5
ENDMDL
MODEL 9
REMARK VINA RESULT:      -6.5      2.780      3.239
REMARK  5 active torsions:
REMARK  status: ('A' for Active; 'I' for Inactive)
REMARK    1  A    between atoms: C2_2  and  C3_3 
REMARK    2  A    between atoms: C2_2  and  O3_21 
REMARK    3  A    between atoms: C3_3  and  C4_4 
REMARK       I    between atoms: C4_4  and  N1_6 
REMARK    4  A    between atoms: N1_6  and  C5_7 
REMARK    5  A    between atoms: O3_21  and  C15_22 
ROOT
HETATM    1  C5  UNL     1      23.868   2.907  50.199  1.00  0.00     0.035 A 
HETATM    2  C6  UNL     1      25.076   3.508  49.872  1.00  0.00     0.032 A 
HETATM    3  C7  UNL     1      26.163   3.082  50.656  1.00  0.00     0.034 A 
HETATM    4  C8  UNL     1      26.155   2.144  51.700  1.00  0.00     0.066 A 
HETATM    5  C9  UNL     1      24.895   1.585  51.966  1.00  0.00    -0.009 A 
HETATM    6  C10 UNL     1      23.817   1.981  51.218  1.00  0.00     0.040 A 
HETATM    7  C11 UNL     1      24.460   0.588  52.984  1.00  0.00     0.164 C 
HETATM    8  N2  UNL     1      25.526   0.286  53.872  1.00  0.00    -0.352 N 
HETATM    9  C12 UNL     1      26.595  -0.022  54.767  1.00  0.00     0.259 C 
HETATM   10  O2  UNL     1      25.800  -0.740  55.415  1.00  0.00    -0.267 OA
HETATM   11  C13 UNL     1      28.013   0.296  54.944  1.00  0.00     0.192 C 
HETATM   12  N3  UNL     1      28.674   1.049  54.152  1.00  0.00    -0.249 NA
HETATM   13  C14 UNL     1      28.169   1.690  52.997  1.00  0.00     0.233 C 
HETATM   14  N4  UNL     1      27.509   2.164  52.059  1.00  0.00    -0.242 NA
HETATM   15  H13 UNL     1      26.243   0.829  53.433  1.00  0.00     0.163 HD
ENDROOT
BRANCH   1  16
HETATM   16  N1  UNL     1      22.686   3.279  49.460  1.00  0.00    -0.327 N 
HETATM   17  C4  UNL     1      21.905   4.384  49.937  1.00  0.00     0.224 C 
HETATM   18  O1  UNL     1      22.469   4.828  50.993  1.00  0.00    -0.273 OA
HETATM   19  H7  UNL     1      22.526   2.663  48.610  1.00  0.00     0.169 HD
BRANCH  17  20
HETATM   20  C3  UNL     1      20.730   4.661  49.094  1.00  0.00     0.134 C 
BRANCH  20  21
HETATM   21  C2  UNL     1      19.560   3.751  49.403  1.00  0.00     0.127 C 
HETATM   22  C1  UNL     1      18.380   4.500  49.935  1.00  0.00     0.040 C 
BRANCH  21  23
HETATM   23  O3  UNL     1      19.984   2.754  50.243  1.00  0.00    -0.375 OA
BRANCH  23  24
HETATM   24  C15 UNL     1      19.452   1.502  49.960  1.00  0.00     0.253 C 
HETATM   25 BR1  UNL     1      19.575   0.425  51.556  1.00  0.00    -0.068 Br
ENDBRANCH  23  24
ENDBRANCH  21  23
ENDBRANCH  20  21
ENDBRANCH  17  20
ENDBRANCH   1  16
TORSDOF 5
ENDMDL
