MODEL 1
REMARK VINA RESULT:      -7.4      0.000      0.000
REMARK  3 active torsions:
REMARK  status: ('A' for Active; 'I' for Inactive)
REMARK    1  A    between atoms: C3_3  and  C4_4 
REMARK       I    between atoms: C4_4  and  N1_6 
REMARK    2  A    between atoms: N1_6  and  C5_7 
REMARK    3  A    between atoms: N5_17  and  C11_18 
ROOT
HETATM    1  C1  UNL     1      22.287  -1.268  53.846  1.00  0.00     0.112 C 
HETATM    2  C2  UNL     1      22.767   0.054  53.412  1.00  0.00    -0.101 C 
HETATM    3  C3  UNL     1      23.172   1.123  53.046  1.00  0.00    -0.006 C 
ENDROOT
BRANCH   3   4
HETATM    4  C4  UNL     1      23.671   2.396  52.629  1.00  0.00     0.302 C 
HETATM    5  O1  UNL     1      24.543   2.914  53.373  1.00  0.00    -0.258 OA
HETATM    6  N1  UNL     1      23.285   3.118  51.481  1.00  0.00    -0.301 N 
HETATM    7  H4  UNL     1      22.570   2.581  50.970  1.00  0.00     0.171 HD
BRANCH   6   8
HETATM    8  C5  UNL     1      23.724   4.337  51.025  1.00  0.00     0.130 C 
HETATM    9  C6  UNL     1      23.625   4.394  49.652  1.00  0.00     0.106 C 
HETATM   10 CL1  UNL     1      22.871   3.183  48.631  1.00  0.00    -0.078 Cl
HETATM   11  C7  UNL     1      24.135   5.537  48.797  1.00  0.00     0.081 C 
HETATM   12  C8  UNL     1      23.331   5.880  47.733  1.00  0.00     0.023 C 
HETATM   13  N5  UNL     1      25.344   6.314  49.025  1.00  0.00    -0.241 N 
HETATM   14  C9  UNL     1      23.653   7.378  47.675  1.00  0.00     0.141 C 
HETATM   15  N2  UNL     1      23.677   7.818  49.097  1.00  0.00    -0.218 NA
HETATM   16  N3  UNL     1      24.627   7.158  49.877  1.00  0.00    -0.230 N 
HETATM   17  H8  UNL     1      24.031   8.820  49.021  1.00  0.00     0.148 HD
HETATM   18  C10 UNL     1      24.404   6.864  51.190  1.00  0.00     0.287 C 
HETATM   19  N4  UNL     1      24.243   5.511  51.716  1.00  0.00    -0.356 N 
HETATM   20  H11 UNL     1      24.478   5.182  52.675  1.00  0.00     0.162 HD
BRANCH  13  21
HETATM   21  C11 UNL     1      26.731   6.461  48.713  1.00  0.00     0.058 A 
HETATM   22  C12 UNL     1      27.282   7.715  48.575  1.00  0.00     0.031 A 
HETATM   23  C13 UNL     1      28.622   7.816  48.274  1.00  0.00     0.002 A 
HETATM   24  C14 UNL     1      29.312   6.630  48.135  1.00  0.00     0.000 A 
HETATM   25  C15 UNL     1      28.721   5.403  48.283  1.00  0.00     0.002 A 
HETATM   26  C16 UNL     1      27.384   5.259  48.583  1.00  0.00     0.031 A 
ENDBRANCH  13  21
ENDBRANCH   6   8
ENDBRANCH   3   4
TORSDOF 3
ENDMDL
MODEL 2
REMARK VINA RESULT:      -7.3      2.515      7.526
REMARK  3 active torsions:
REMARK  status: ('A' for Active; 'I' for Inactive)
REMARK    1  A    between atoms: C3_3  and  C4_4 
REMARK       I    between atoms: C4_4  and  N1_6 
REMARK    2  A    between atoms: N1_6  and  C5_7 
REMARK    3  A    between atoms: N5_17  and  C11_18 
ROOT
HETATM    1  C1  UNL     1      25.348   8.526  45.683  1.00  0.00     0.112 C 
HETATM    2  C2  UNL     1      25.235   7.835  46.978  1.00  0.00    -0.101 C 
HETATM    3  C3  UNL     1      25.152   7.288  48.043  1.00  0.00    -0.006 C 
ENDROOT
BRANCH   3   4
HETATM    4  C4  UNL     1      25.075   6.624  49.307  1.00  0.00     0.302 C 
HETATM    5  O1  UNL     1      25.207   7.357  50.320  1.00  0.00    -0.258 OA
HETATM    6  N1  UNL     1      24.868   5.246  49.524  1.00  0.00    -0.301 N 
HETATM    7  H4  UNL     1      24.779   4.771  48.615  1.00  0.00     0.171 HD
BRANCH   6   8
HETATM    8  C5  UNL     1      24.783   4.549  50.705  1.00  0.00     0.130 C 
HETATM    9  C6  UNL     1      25.566   3.417  50.646  1.00  0.00     0.106 C 
HETATM   10 CL1  UNL     1      26.670   3.006  49.347  1.00  0.00    -0.078 Cl
HETATM   11  C7  UNL     1      25.616   2.346  51.719  1.00  0.00     0.081 C 
HETATM   12  C8  UNL     1      26.863   1.819  51.964  1.00  0.00     0.023 C 
HETATM   13  N5  UNL     1      24.498   1.876  52.522  1.00  0.00    -0.241 N 
HETATM   14  C9  UNL     1      26.691   1.504  53.455  1.00  0.00     0.141 C 
HETATM   15  N2  UNL     1      25.973   2.683  54.012  1.00  0.00    -0.218 NA
HETATM   16  N3  UNL     1      24.728   2.915  53.429  1.00  0.00    -0.230 N 
HETATM   17  H8  UNL     1      25.758   2.371  55.007  1.00  0.00     0.148 HD
HETATM   18  C10 UNL     1      24.241   4.175  53.243  1.00  0.00     0.287 C 
HETATM   19  N4  UNL     1      24.045   4.799  51.938  1.00  0.00    -0.356 N 
HETATM   20  H11 UNL     1      23.341   5.526  51.691  1.00  0.00     0.162 HD
BRANCH  13  21
HETATM   21  C11 UNL     1      23.469   0.893  52.655  1.00  0.00     0.058 A 
HETATM   22  C12 UNL     1      23.543  -0.059  53.647  1.00  0.00     0.031 A 
HETATM   23  C13 UNL     1      22.531  -0.989  53.744  1.00  0.00     0.002 A 
HETATM   24  C14 UNL     1      21.511  -0.886  52.822  1.00  0.00     0.000 A 
HETATM   25  C15 UNL     1      21.480   0.080  51.851  1.00  0.00     0.002 A 
HETATM   26  C16 UNL     1      22.471   1.028  51.720  1.00  0.00     0.031 A 
ENDBRANCH  13  21
ENDBRANCH   6   8
ENDBRANCH   3   4
TORSDOF 3
ENDMDL
MODEL 3
REMARK VINA RESULT:      -7.3      4.272      5.754
REMARK  3 active torsions:
REMARK  status: ('A' for Active; 'I' for Inactive)
REMARK    1  A    between atoms: C3_3  and  C4_4 
REMARK       I    between atoms: C4_4  and  N1_6 
REMARK    2  A    between atoms: N1_6  and  C5_7 
REMARK    3  A    between atoms: N5_17  and  C11_18 
ROOT
HETATM    1  C1  UNL     1      30.140  -0.884  53.883  1.00  0.00     0.112 C 
HETATM    2  C2  UNL     1      29.046   0.005  53.460  1.00  0.00    -0.101 C 
HETATM    3  C3  UNL     1      28.144   0.714  53.108  1.00  0.00    -0.006 C 
ENDROOT
BRANCH   3   4
HETATM    4  C4  UNL     1      27.081   1.563  52.667  1.00  0.00     0.302 C 
HETATM    5  O1  UNL     1      27.405   2.475  51.865  1.00  0.00    -0.258 OA
HETATM    6  N1  UNL     1      25.724   1.478  53.040  1.00  0.00    -0.301 N 
HETATM    7  H4  UNL     1      25.603   0.693  53.695  1.00  0.00     0.171 HD
BRANCH   6   8
HETATM    8  C5  UNL     1      24.659   2.255  52.653  1.00  0.00     0.130 C 
HETATM    9  C6  UNL     1      23.531   1.478  52.508  1.00  0.00     0.106 C 
HETATM   10 CL1  UNL     1      23.397  -0.217  52.936  1.00  0.00    -0.078 Cl
HETATM   11  C7  UNL     1      22.203   1.976  51.972  1.00  0.00     0.081 C 
HETATM   12  C8  UNL     1      21.089   1.471  52.600  1.00  0.00     0.023 C 
HETATM   13  N5  UNL     1      22.013   2.953  50.911  1.00  0.00    -0.241 N 
HETATM   14  C9  UNL     1      20.160   2.679  52.430  1.00  0.00     0.141 C 
HETATM   15  N2  UNL     1      21.019   3.862  52.709  1.00  0.00    -0.218 NA
HETATM   16  N3  UNL     1      22.114   3.980  51.853  1.00  0.00    -0.230 N 
HETATM   17  H8  UNL     1      20.380   4.674  52.452  1.00  0.00     0.148 HD
HETATM   18  C10 UNL     1      23.312   4.474  52.278  1.00  0.00     0.287 C 
HETATM   19  N4  UNL     1      24.536   3.685  52.391  1.00  0.00    -0.356 N 
HETATM   20  H11 UNL     1      25.513   4.031  52.302  1.00  0.00     0.162 HD
BRANCH  13  21
HETATM   21  C11 UNL     1      21.791   3.151  49.512  1.00  0.00     0.058 A 
HETATM   22  C12 UNL     1      20.946   4.148  49.079  1.00  0.00     0.031 A 
HETATM   23  C13 UNL     1      20.758   4.309  47.723  1.00  0.00     0.002 A 
HETATM   24  C14 UNL     1      21.446   3.442  46.901  1.00  0.00     0.000 A 
HETATM   25  C15 UNL     1      22.278   2.464  47.379  1.00  0.00     0.002 A 
HETATM   26  C16 UNL     1      22.492   2.270  48.726  1.00  0.00     0.031 A 
ENDBRANCH  13  21
ENDBRANCH   6   8
ENDBRANCH   3   4
TORSDOF 3
ENDMDL
MODEL 4
REMARK VINA RESULT:      -7.0      2.754      3.915
REMARK  3 active torsions:
REMARK  status: ('A' for Active; 'I' for Inactive)
REMARK    1  A    between atoms: C3_3  and  C4_4 
REMARK       I    between atoms: C4_4  and  N1_6 
REMARK    2  A    between atoms: N1_6  and  C5_7 
REMARK    3  A    between atoms: N5_17  and  C11_18 
ROOT
HETATM    1  C1  UNL     1      27.112  -1.976  52.632  1.00  0.00     0.112 C 
HETATM    2  C2  UNL     1      26.840  -0.583  52.240  1.00  0.00    -0.101 C 
HETATM    3  C3  UNL     1      26.635   0.552  51.909  1.00  0.00    -0.006 C 
ENDROOT
BRANCH   3   4
HETATM    4  C4  UNL     1      26.403   1.913  51.535  1.00  0.00     0.302 C 
HETATM    5  O1  UNL     1      27.405   2.672  51.580  1.00  0.00    -0.258 OA
HETATM    6  N1  UNL     1      25.177   2.478  51.128  1.00  0.00    -0.301 N 
HETATM    7  H4  UNL     1      24.450   1.749  51.138  1.00  0.00     0.171 HD
BRANCH   6   8
HETATM    8  C5  UNL     1      24.889   3.768  50.756  1.00  0.00     0.130 C 
HETATM    9  C6  UNL     1      23.528   3.981  50.791  1.00  0.00     0.106 C 
HETATM   10 CL1  UNL     1      22.335   2.851  51.404  1.00  0.00    -0.078 Cl
HETATM   11  C7  UNL     1      22.840   5.248  50.322  1.00  0.00     0.081 C 
HETATM   12  C8  UNL     1      21.779   5.660  51.095  1.00  0.00     0.023 C 
HETATM   13  N5  UNL     1      23.225   6.069  49.185  1.00  0.00    -0.241 N 
HETATM   14  C9  UNL     1      21.910   7.172  50.879  1.00  0.00     0.141 C 
HETATM   15  N2  UNL     1      23.372   7.442  50.957  1.00  0.00    -0.218 NA
HETATM   16  N3  UNL     1      24.125   6.759  50.002  1.00  0.00    -0.230 N 
HETATM   17  H8  UNL     1      23.431   8.467  50.673  1.00  0.00     0.148 HD
HETATM   18  C10 UNL     1      25.380   6.298  50.268  1.00  0.00     0.287 C 
HETATM   19  N4  UNL     1      25.739   4.885  50.357  1.00  0.00    -0.356 N 
HETATM   20  H11 UNL     1      26.665   4.461  50.147  1.00  0.00     0.162 HD
BRANCH  13  21
HETATM   21  C11 UNL     1      23.012   6.343  47.798  1.00  0.00     0.058 A 
HETATM   22  C12 UNL     1      22.263   5.481  47.029  1.00  0.00     0.031 A 
HETATM   23  C13 UNL     1      22.079   5.779  45.697  1.00  0.00     0.002 A 
HETATM   24  C14 UNL     1      22.671   6.936  45.238  1.00  0.00     0.000 A 
HETATM   25  C15 UNL     1      23.408   7.765  46.042  1.00  0.00     0.002 A 
HETATM   26  C16 UNL     1      23.616   7.503  47.379  1.00  0.00     0.031 A 
ENDBRANCH  13  21
ENDBRANCH   6   8
ENDBRANCH   3   4
TORSDOF 3
ENDMDL
MODEL 5
REMARK VINA RESULT:      -6.9      3.015      7.218
REMARK  3 active torsions:
REMARK  status: ('A' for Active; 'I' for Inactive)
REMARK    1  A    between atoms: C3_3  and  C4_4 
REMARK       I    between atoms: C4_4  and  N1_6 
REMARK    2  A    between atoms: N1_6  and  C5_7 
REMARK    3  A    between atoms: N5_17  and  C11_18 
ROOT
HETATM    1  C1  UNL     1      22.155  10.718  47.786  1.00  0.00     0.112 C 
HETATM    2  C2  UNL     1      22.286   9.561  48.686  1.00  0.00    -0.101 C 
HETATM    3  C3  UNL     1      22.403   8.630  49.434  1.00  0.00    -0.006 C 
ENDROOT
BRANCH   3   4
HETATM    4  C4  UNL     1      22.563   7.514  50.313  1.00  0.00     0.302 C 
HETATM    5  O1  UNL     1      21.575   7.244  51.043  1.00  0.00    -0.258 OA
HETATM    6  N1  UNL     1      23.706   6.699  50.440  1.00  0.00    -0.301 N 
HETATM    7  H4  UNL     1      24.432   7.031  49.790  1.00  0.00     0.171 HD
BRANCH   6   8
HETATM    8  C5  UNL     1      23.924   5.617  51.259  1.00  0.00     0.130 C 
HETATM    9  C6  UNL     1      24.647   4.653  50.591  1.00  0.00     0.106 C 
HETATM   10 CL1  UNL     1      25.364   4.834  49.001  1.00  0.00    -0.078 Cl
HETATM   11  C7  UNL     1      24.961   3.276  51.141  1.00  0.00     0.081 C 
HETATM   12  C8  UNL     1      26.221   2.802  50.853  1.00  0.00     0.023 C 
HETATM   13  N5  UNL     1      24.087   2.454  51.964  1.00  0.00    -0.241 N 
HETATM   14  C9  UNL     1      26.442   1.956  52.113  1.00  0.00     0.141 C 
HETATM   15  N2  UNL     1      25.914   2.789  53.228  1.00  0.00    -0.218 NA
HETATM   16  N3  UNL     1      24.563   3.110  53.103  1.00  0.00    -0.230 N 
HETATM   17  H8  UNL     1      25.963   2.121  54.056  1.00  0.00     0.148 HD
HETATM   18  C10 UNL     1      24.063   4.306  53.526  1.00  0.00     0.287 C 
HETATM   19  N4  UNL     1      23.540   5.342  52.639  1.00  0.00    -0.356 N 
HETATM   20  H11 UNL     1      22.808   6.046  52.864  1.00  0.00     0.162 HD
BRANCH  13  21
HETATM   21  C11 UNL     1      23.115   1.407  51.976  1.00  0.00     0.058 A 
HETATM   22  C12 UNL     1      23.091   0.493  53.005  1.00  0.00     0.031 A 
HETATM   23  C13 UNL     1      22.138  -0.501  52.982  1.00  0.00     0.002 A 
HETATM   24  C14 UNL     1      21.272  -0.497  51.909  1.00  0.00     0.000 A 
HETATM   25  C15 UNL     1      21.334   0.434  50.905  1.00  0.00     0.002 A 
HETATM   26  C16 UNL     1      22.271   1.443  50.892  1.00  0.00     0.031 A 
ENDBRANCH  13  21
ENDBRANCH   6   8
ENDBRANCH   3   4
TORSDOF 3
ENDMDL
MODEL 6
REMARK VINA RESULT:      -6.9      3.627      5.621
REMARK  3 active torsions:
REMARK  status: ('A' for Active; 'I' for Inactive)
REMARK    1  A    between atoms: C3_3  and  C4_4 
REMARK       I    between atoms: C4_4  and  N1_6 
REMARK    2  A    between atoms: N1_6  and  C5_7 
REMARK    3  A    between atoms: N5_17  and  C11_18 
ROOT
HETATM    1  C1  UNL     1      15.772  -0.647  49.409  1.00  0.00     0.112 C 
HETATM    2  C2  UNL     1      17.032  -0.157  49.991  1.00  0.00    -0.101 C 
HETATM    3  C3  UNL     1      18.054   0.236  50.483  1.00  0.00    -0.006 C 
ENDROOT
BRANCH   3   4
HETATM    4  C4  UNL     1      19.260   0.727  51.074  1.00  0.00     0.302 C 
HETATM    5  O1  UNL     1      19.537   0.271  52.213  1.00  0.00    -0.258 OA
HETATM    6  N1  UNL     1      20.155   1.659  50.511  1.00  0.00    -0.301 N 
HETATM    7  H4  UNL     1      19.807   1.945  49.586  1.00  0.00     0.171 HD
BRANCH   6   8
HETATM    8  C5  UNL     1      21.325   2.167  51.021  1.00  0.00     0.130 C 
HETATM    9  C6  UNL     1      22.310   2.153  50.058  1.00  0.00     0.106 C 
HETATM   10 CL1  UNL     1      22.080   1.739  48.369  1.00  0.00    -0.078 Cl
HETATM   11  C7  UNL     1      23.760   2.522  50.301  1.00  0.00     0.081 C 
HETATM   12  C8  UNL     1      24.363   3.233  49.289  1.00  0.00     0.023 C 
HETATM   13  N5  UNL     1      24.534   2.238  51.500  1.00  0.00    -0.241 N 
HETATM   14  C9  UNL     1      25.341   4.056  50.136  1.00  0.00     0.141 C 
HETATM   15  N2  UNL     1      24.551   4.478  51.325  1.00  0.00    -0.218 NA
HETATM   16  N3  UNL     1      24.049   3.415  52.077  1.00  0.00    -0.230 N 
HETATM   17  H8  UNL     1      25.292   4.928  51.944  1.00  0.00     0.148 HD
HETATM   18  C10 UNL     1      22.843   3.483  52.707  1.00  0.00     0.287 C 
HETATM   19  N4  UNL     1      21.673   2.691  52.337  1.00  0.00    -0.356 N 
HETATM   20  H11 UNL     1      20.904   2.381  52.966  1.00  0.00     0.162 HD
BRANCH  13  21
HETATM   21  C11 UNL     1      25.445   1.337  52.133  1.00  0.00     0.058 A 
HETATM   22  C12 UNL     1      26.800   1.573  52.085  1.00  0.00     0.031 A 
HETATM   23  C13 UNL     1      27.646   0.682  52.708  1.00  0.00     0.002 A 
HETATM   24  C14 UNL     1      27.054  -0.391  53.338  1.00  0.00     0.000 A 
HETATM   25  C15 UNL     1      25.697  -0.585  53.360  1.00  0.00     0.002 A 
HETATM   26  C16 UNL     1      24.818   0.282  52.750  1.00  0.00     0.031 A 
ENDBRANCH  13  21
ENDBRANCH   6   8
ENDBRANCH   3   4
TORSDOF 3
ENDMDL
MODEL 7
REMARK VINA RESULT:      -6.9      6.678     10.272
REMARK  3 active torsions:
REMARK  status: ('A' for Active; 'I' for Inactive)
REMARK    1  A    between atoms: C3_3  and  C4_4 
REMARK       I    between atoms: C4_4  and  N1_6 
REMARK    2  A    between atoms: N1_6  and  C5_7 
REMARK    3  A    between atoms: N5_17  and  C11_18 
ROOT
HETATM    1  C1  UNL     1      34.322   2.268  39.525  1.00  0.00     0.112 C 
HETATM    2  C2  UNL     1      33.887   3.188  40.588  1.00  0.00    -0.101 C 
HETATM    3  C3  UNL     1      33.514   3.937  41.449  1.00  0.00    -0.006 C 
ENDROOT
BRANCH   3   4
HETATM    4  C4  UNL     1      33.075   4.849  42.458  1.00  0.00     0.302 C 
HETATM    5  O1  UNL     1      32.634   5.953  42.046  1.00  0.00    -0.258 OA
HETATM    6  N1  UNL     1      33.087   4.634  43.852  1.00  0.00    -0.301 N 
HETATM    7  H4  UNL     1      33.470   3.698  44.045  1.00  0.00     0.171 HD
BRANCH   6   8
HETATM    8  C5  UNL     1      32.680   5.463  44.869  1.00  0.00     0.130 C 
HETATM    9  C6  UNL     1      32.578   4.755  46.047  1.00  0.00     0.106 C 
HETATM   10 CL1  UNL     1      33.077   3.090  46.283  1.00  0.00    -0.078 Cl
HETATM   11  C7  UNL     1      32.036   5.316  47.346  1.00  0.00     0.081 C 
HETATM   12  C8  UNL     1      32.696   4.909  48.483  1.00  0.00     0.023 C 
HETATM   13  N5  UNL     1      30.938   6.260  47.488  1.00  0.00    -0.241 N 
HETATM   14  C9  UNL     1      32.486   6.167  49.335  1.00  0.00     0.141 C 
HETATM   15  N2  UNL     1      32.707   7.302  48.398  1.00  0.00    -0.218 NA
HETATM   16  N3  UNL     1      31.836   7.315  47.309  1.00  0.00    -0.230 N 
HETATM   17  H8  UNL     1      32.424   8.143  48.987  1.00  0.00     0.148 HD
HETATM   18  C10 UNL     1      32.228   7.747  46.076  1.00  0.00     0.287 C 
HETATM   19  N4  UNL     1      32.361   6.886  44.904  1.00  0.00    -0.356 N 
HETATM   20  H11 UNL     1      32.247   7.164  43.908  1.00  0.00     0.162 HD
BRANCH  13  21
HETATM   21  C11 UNL     1      29.535   6.415  47.715  1.00  0.00     0.058 A 
HETATM   22  C12 UNL     1      28.900   7.582  47.355  1.00  0.00     0.031 A 
HETATM   23  C13 UNL     1      27.547   7.695  47.588  1.00  0.00     0.002 A 
HETATM   24  C14 UNL     1      26.932   6.609  48.173  1.00  0.00     0.000 A 
HETATM   25  C15 UNL     1      27.606   5.465  48.514  1.00  0.00     0.002 A 
HETATM   26  C16 UNL     1      28.958   5.314  48.298  1.00  0.00     0.031 A 
ENDBRANCH  13  21
ENDBRANCH   6   8
ENDBRANCH   3   4
TORSDOF 3
ENDMDL
MODEL 8
REMARK VINA RESULT:      -6.6      8.079     11.350
REMARK  3 active torsions:
REMARK  status: ('A' for Active; 'I' for Inactive)
REMARK    1  A    between atoms: C3_3  and  C4_4 
REMARK       I    between atoms: C4_4  and  N1_6 
REMARK    2  A    between atoms: N1_6  and  C5_7 
REMARK    3  A    between atoms: N5_17  and  C11_18 
ROOT
HETATM    1  C1  UNL     1      33.985   1.752  39.283  1.00  0.00     0.112 C 
HETATM    2  C2  UNL     1      33.864   2.789  40.320  1.00  0.00    -0.101 C 
HETATM    3  C3  UNL     1      33.763   3.621  41.180  1.00  0.00    -0.006 C 
ENDROOT
BRANCH   3   4
HETATM    4  C4  UNL     1      33.618   4.613  42.199  1.00  0.00     0.302 C 
HETATM    5  O1  UNL     1      32.794   5.531  41.956  1.00  0.00    -0.258 OA
HETATM    6  N1  UNL     1      34.299   4.660  43.432  1.00  0.00    -0.301 N 
HETATM    7  H4  UNL     1      34.937   3.854  43.497  1.00  0.00     0.171 HD
BRANCH   6   8
HETATM    8  C5  UNL     1      34.205   5.578  44.450  1.00  0.00     0.130 C 
HETATM    9  C6  UNL     1      34.239   4.940  45.671  1.00  0.00     0.106 C 
HETATM   10 CL1  UNL     1      34.554   3.233  45.922  1.00  0.00    -0.078 Cl
HETATM   11  C7  UNL     1      34.033   5.624  47.008  1.00  0.00     0.081 C 
HETATM   12  C8  UNL     1      34.839   5.176  48.028  1.00  0.00     0.023 C 
HETATM   13  N5  UNL     1      33.113   6.717  47.286  1.00  0.00    -0.241 N 
HETATM   14  C9  UNL     1      34.960   6.484  48.819  1.00  0.00     0.141 C 
HETATM   15  N2  UNL     1      35.144   7.538  47.784  1.00  0.00    -0.218 NA
HETATM   16  N3  UNL     1      34.090   7.628  46.874  1.00  0.00    -0.230 N 
HETATM   17  H8  UNL     1      35.090   8.434  48.357  1.00  0.00     0.148 HD
HETATM   18  C10 UNL     1      34.292   7.950  45.565  1.00  0.00     0.287 C 
HETATM   19  N4  UNL     1      34.086   7.032  44.449  1.00  0.00    -0.356 N 
HETATM   20  H11 UNL     1      33.821   7.283  43.474  1.00  0.00     0.162 HD
BRANCH  13  21
HETATM   21  C11 UNL     1      31.812   7.077  47.755  1.00  0.00     0.058 A 
HETATM   22  C12 UNL     1      31.621   8.262  48.428  1.00  0.00     0.031 A 
HETATM   23  C13 UNL     1      30.352   8.574  48.865  1.00  0.00     0.002 A 
HETATM   24  C14 UNL     1      29.362   7.656  48.585  1.00  0.00     0.000 A 
HETATM   25  C15 UNL     1      29.600   6.487  47.910  1.00  0.00     0.002 A 
HETATM   26  C16 UNL     1      30.854   6.138  47.458  1.00  0.00     0.031 A 
ENDBRANCH  13  21
ENDBRANCH   6   8
ENDBRANCH   3   4
TORSDOF 3
ENDMDL
MODEL 9
REMARK VINA RESULT:      -6.4      6.098      7.419
REMARK  3 active torsions:
REMARK  status: ('A' for Active; 'I' for Inactive)
REMARK    1  A    between atoms: C3_3  and  C4_4 
REMARK       I    between atoms: C4_4  and  N1_6 
REMARK    2  A    between atoms: N1_6  and  C5_7 
REMARK    3  A    between atoms: N5_17  and  C11_18 
ROOT
HETATM    1  C1  UNL     1      32.027   0.389  46.352  1.00  0.00     0.112 C 
HETATM    2  C2  UNL     1      31.901   1.814  46.702  1.00  0.00    -0.101 C 
HETATM    3  C3  UNL     1      31.792   2.979  46.968  1.00  0.00    -0.006 C 
ENDROOT
BRANCH   3   4
HETATM    4  C4  UNL     1      31.687   4.370  47.279  1.00  0.00     0.302 C 
HETATM    5  O1  UNL     1      32.709   5.064  47.043  1.00  0.00    -0.258 OA
HETATM    6  N1  UNL     1      30.564   5.031  47.818  1.00  0.00    -0.301 N 
HETATM    7  H4  UNL     1      29.806   4.348  47.960  1.00  0.00     0.171 HD
BRANCH   6   8
HETATM    8  C5  UNL     1      30.397   6.357  48.136  1.00  0.00     0.130 C 
HETATM    9  C6  UNL     1      29.058   6.647  48.281  1.00  0.00     0.106 C 
HETATM   10 CL1  UNL     1      27.753   5.476  48.262  1.00  0.00    -0.078 Cl
HETATM   11  C7  UNL     1      28.495   8.036  48.507  1.00  0.00     0.081 C 
HETATM   12  C8  UNL     1      27.442   8.107  49.389  1.00  0.00     0.023 C 
HETATM   13  N5  UNL     1      28.990   9.274  47.923  1.00  0.00    -0.241 N 
HETATM   14  C9  UNL     1      27.706   9.510  49.950  1.00  0.00     0.141 C 
HETATM   15  N2  UNL     1      29.180   9.572  50.142  1.00  0.00    -0.218 NA
HETATM   16  N3  UNL     1      29.911   9.385  48.968  1.00  0.00    -0.230 N 
HETATM   17  H8  UNL     1      29.335  10.593  50.402  1.00  0.00     0.148 HD
HETATM   18  C10 UNL     1      31.113   8.741  48.962  1.00  0.00     0.287 C 
HETATM   19  N4  UNL     1      31.350   7.443  48.337  1.00  0.00    -0.356 N 
HETATM   20  H11 UNL     1      32.247   7.095  47.938  1.00  0.00     0.162 HD
BRANCH  13  21
HETATM   21  C11 UNL     1      28.855  10.214  46.856  1.00  0.00     0.058 A 
HETATM   22  C12 UNL     1      29.558  11.397  46.880  1.00  0.00     0.031 A 
HETATM   23  C13 UNL     1      29.402  12.278  45.832  1.00  0.00     0.002 A 
HETATM   24  C14 UNL     1      28.538  11.894  44.829  1.00  0.00     0.000 A 
HETATM   25  C15 UNL     1      27.858  10.704  44.848  1.00  0.00     0.002 A 
HETATM   26  C16 UNL     1      27.987   9.796  45.876  1.00  0.00     0.031 A 
ENDBRANCH  13  21
ENDBRANCH   6   8
ENDBRANCH   3   4
TORSDOF 3
ENDMDL
