MODEL 1
REMARK VINA RESULT:      -7.7      0.000      0.000
REMARK  8 active torsions:
REMARK  status: ('A' for Active; 'I' for Inactive)
REMARK    1  A    between atoms: C2_2  and  C3_3 
REMARK    2  A    between atoms: C3_3  and  N1_4 
REMARK    3  A    between atoms: N1_4  and  C4_5 
REMARK    4  A    between atoms: C4_5  and  C5_6 
REMARK    5  A    between atoms: C5_6  and  O1_7 
REMARK    6  A    between atoms: O1_7  and  C6_8 
REMARK    7  A    between atoms: C9_11  and  N2_12 
REMARK    8  A    between atoms: N2_12  and  C10_13 
ROOT
HETATM    1  C6  UNL     1      25.438  -0.843  54.472  1.00  0.00     0.165 A 
HETATM    2  C7  UNL     1      24.628  -0.356  53.429  1.00  0.00     0.074 A 
HETATM    3  C8  UNL     1      23.250  -0.435  53.579  1.00  0.00     0.026 A 
HETATM    4  C9  UNL     1      22.396   0.014  52.581  1.00  0.00     0.068 A 
HETATM    5  C16 UNL     1      21.023  -0.102  52.771  1.00  0.00     0.089 A 
HETATM    6  C17 UNL     1      20.132   0.352  51.740  1.00  0.00     0.103 C 
HETATM    7  N3  UNL     1      19.426   0.700  50.906  1.00  0.00    -0.191 NA
HETATM    8  C18 UNL     1      20.454  -0.648  53.918  1.00  0.00     0.142 A 
HETATM    9  N4  UNL     1      21.315  -1.082  54.883  1.00  0.00    -0.257 NA
HETATM   10  C19 UNL     1      22.648  -0.963  54.686  1.00  0.00     0.086 A 
HETATM   11  C20 UNL     1      23.469  -1.429  55.683  1.00  0.00     0.152 A 
HETATM   12  N5  UNL     1      24.782  -1.350  55.541  1.00  0.00    -0.235 NA
ENDROOT
BRANCH   4  13
HETATM   13  N2  UNL     1      22.876   0.610  51.383  1.00  0.00    -0.354 N 
HETATM   14  H14 UNL     1      23.198   0.127  50.503  1.00  0.00     0.166 HD
BRANCH  13  15
HETATM   15  C10 UNL     1      22.945   2.022  51.311  1.00  0.00     0.033 A 
HETATM   16  C11 UNL     1      23.048   2.801  52.477  1.00  0.00     0.029 A 
HETATM   17  C12 UNL     1      23.120   4.176  52.400  1.00  0.00     0.004 A 
HETATM   18  C13 UNL     1      23.096   4.848  51.199  1.00  0.00     0.019 A 
HETATM   19  C14 UNL     1      22.994   4.115  50.010  1.00  0.00     0.013 A 
HETATM   20 BR1  UNL     1      22.961   5.037  48.362  1.00  0.00    -0.051 Br
HETATM   21  C15 UNL     1      22.925   2.751  50.137  1.00  0.00     0.048 A 
ENDBRANCH  13  15
ENDBRANCH   4  13
BRANCH   1  22
HETATM   22  O1  UNL     1      26.751  -0.682  54.152  1.00  0.00    -0.333 OA
BRANCH  22  23
HETATM   23  C5  UNL     1      27.628   0.209  54.712  1.00  0.00     0.207 C 
BRANCH  23  24
HETATM   24  C4  UNL     1      28.266   1.156  53.784  1.00  0.00     0.296 C 
BRANCH  24  25
HETATM   25  N1  UNL     1      27.850   2.530  53.801  1.00  0.00     0.085 N 
HETATM   26  H8  UNL     1      28.493   3.111  53.141  1.00  0.00     0.315 HD
BRANCH  25  27
HETATM   27  C3  UNL     1      26.602   2.539  52.983  1.00  0.00     0.269 C 
BRANCH  27  28
HETATM   28  C2  UNL     1      26.808   2.057  51.598  1.00  0.00     0.025 C 
HETATM   29  C1  UNL     1      26.526   3.011  50.493  1.00  0.00     0.007 C 
ENDBRANCH  27  28
ENDBRANCH  25  27
ENDBRANCH  24  25
ENDBRANCH  23  24
ENDBRANCH  22  23
ENDBRANCH   1  22
TORSDOF 8
ENDMDL
MODEL 2
REMARK VINA RESULT:      -7.6      2.607      6.161
REMARK  8 active torsions:
REMARK  status: ('A' for Active; 'I' for Inactive)
REMARK    1  A    between atoms: C2_2  and  C3_3 
REMARK    2  A    between atoms: C3_3  and  N1_4 
REMARK    3  A    between atoms: N1_4  and  C4_5 
REMARK    4  A    between atoms: C4_5  and  C5_6 
REMARK    5  A    between atoms: C5_6  and  O1_7 
REMARK    6  A    between atoms: O1_7  and  C6_8 
REMARK    7  A    between atoms: C9_11  and  N2_12 
REMARK    8  A    between atoms: N2_12  and  C10_13 
ROOT
HETATM    1  C6  UNL     1      21.879  -1.368  54.460  1.00  0.00     0.165 A 
HETATM    2  C7  UNL     1      22.607  -0.530  53.594  1.00  0.00     0.074 A 
HETATM    3  C8  UNL     1      23.944  -0.291  53.886  1.00  0.00     0.026 A 
HETATM    4  C9  UNL     1      24.714   0.536  53.081  1.00  0.00     0.068 A 
HETATM    5  C16 UNL     1      26.044   0.758  53.425  1.00  0.00     0.089 A 
HETATM    6  C17 UNL     1      26.846   1.620  52.603  1.00  0.00     0.103 C 
HETATM    7  N3  UNL     1      27.476   2.323  51.952  1.00  0.00    -0.191 NA
HETATM    8  C18 UNL     1      26.649   0.190  54.542  1.00  0.00     0.142 A 
HETATM    9  N4  UNL     1      25.870  -0.621  55.316  1.00  0.00    -0.257 NA
HETATM   10  C19 UNL     1      24.579  -0.827  54.971  1.00  0.00     0.086 A 
HETATM   11  C20 UNL     1      23.837  -1.639  55.793  1.00  0.00     0.152 A 
HETATM   12  N5  UNL     1      22.564  -1.869  55.512  1.00  0.00    -0.235 NA
ENDROOT
BRANCH   4  13
HETATM   13  N2  UNL     1      24.198   1.145  51.905  1.00  0.00    -0.354 N 
HETATM   14  H14 UNL     1      24.320   0.832  50.905  1.00  0.00     0.166 HD
BRANCH  13  15
HETATM   15  C10 UNL     1      23.417   2.318  52.038  1.00  0.00     0.033 A 
HETATM   16  C11 UNL     1      23.992   3.523  52.479  1.00  0.00     0.029 A 
HETATM   17  C12 UNL     1      23.225   4.664  52.603  1.00  0.00     0.004 A 
HETATM   18  C13 UNL     1      21.881   4.682  52.306  1.00  0.00     0.019 A 
HETATM   19  C14 UNL     1      21.264   3.506  51.865  1.00  0.00     0.013 A 
HETATM   20 BR1  UNL     1      19.420   3.531  51.458  1.00  0.00    -0.051 Br
HETATM   21  C15 UNL     1      22.066   2.398  51.757  1.00  0.00     0.048 A 
ENDBRANCH  13  15
ENDBRANCH   4  13
BRANCH   1  22
HETATM   22  O1  UNL     1      20.598  -1.487  54.017  1.00  0.00    -0.333 OA
BRANCH  22  23
HETATM   23  C5  UNL     1      19.768  -0.470  53.623  1.00  0.00     0.207 C 
BRANCH  23  24
HETATM   24  C4  UNL     1      18.514  -0.878  52.970  1.00  0.00     0.296 C 
BRANCH  24  25
HETATM   25  N1  UNL     1      17.431  -1.354  53.784  1.00  0.00     0.085 N 
HETATM   26  H8  UNL     1      16.572  -0.696  53.664  1.00  0.00     0.315 HD
BRANCH  25  27
HETATM   27  C3  UNL     1      16.922  -2.546  53.044  1.00  0.00     0.269 C 
BRANCH  27  28
HETATM   28  C2  UNL     1      17.437  -3.828  53.578  1.00  0.00     0.025 C 
HETATM   29  C1  UNL     1      16.453  -4.920  53.801  1.00  0.00     0.007 C 
ENDBRANCH  27  28
ENDBRANCH  25  27
ENDBRANCH  24  25
ENDBRANCH  23  24
ENDBRANCH  22  23
ENDBRANCH   1  22
TORSDOF 8
ENDMDL
MODEL 3
REMARK VINA RESULT:      -7.6      1.111      1.780
REMARK  8 active torsions:
REMARK  status: ('A' for Active; 'I' for Inactive)
REMARK    1  A    between atoms: C2_2  and  C3_3 
REMARK    2  A    between atoms: C3_3  and  N1_4 
REMARK    3  A    between atoms: N1_4  and  C4_5 
REMARK    4  A    between atoms: C4_5  and  C5_6 
REMARK    5  A    between atoms: C5_6  and  O1_7 
REMARK    6  A    between atoms: O1_7  and  C6_8 
REMARK    7  A    between atoms: C9_11  and  N2_12 
REMARK    8  A    between atoms: N2_12  and  C10_13 
ROOT
HETATM    1  C6  UNL     1      25.265  -0.417  53.795  1.00  0.00     0.165 A 
HETATM    2  C7  UNL     1      24.200  -0.044  52.954  1.00  0.00     0.074 A 
HETATM    3  C8  UNL     1      22.908  -0.357  53.356  1.00  0.00     0.026 A 
HETATM    4  C9  UNL     1      21.815  -0.029  52.566  1.00  0.00     0.068 A 
HETATM    5  C16 UNL     1      20.541  -0.380  53.004  1.00  0.00     0.089 A 
HETATM    6  C17 UNL     1      19.405  -0.053  52.188  1.00  0.00     0.103 C 
HETATM    7  N3  UNL     1      18.504   0.195  51.524  1.00  0.00    -0.191 NA
HETATM    8  C18 UNL     1      20.302  -1.045  54.202  1.00  0.00     0.142 A 
HETATM    9  N4  UNL     1      21.394  -1.355  54.960  1.00  0.00    -0.257 NA
HETATM   10  C19 UNL     1      22.626  -1.009  54.522  1.00  0.00     0.086 A 
HETATM   11  C20 UNL     1      23.689  -1.358  55.318  1.00  0.00     0.152 A 
HETATM   12  N5  UNL     1      24.920  -1.056  54.935  1.00  0.00    -0.235 NA
ENDROOT
BRANCH   4  13
HETATM   13  N2  UNL     1      21.949   0.672  51.336  1.00  0.00    -0.354 N 
HETATM   14  H14 UNL     1      21.738   0.323  50.364  1.00  0.00     0.166 HD
BRANCH  13  15
HETATM   15  C10 UNL     1      22.418   2.008  51.368  1.00  0.00     0.033 A 
HETATM   16  C11 UNL     1      21.793   2.973  52.176  1.00  0.00     0.029 A 
HETATM   17  C12 UNL     1      22.258   4.272  52.206  1.00  0.00     0.004 A 
HETATM   18  C13 UNL     1      23.339   4.684  51.459  1.00  0.00     0.019 A 
HETATM   19  C14 UNL     1      23.992   3.758  50.638  1.00  0.00     0.013 A 
HETATM   20 BR1  UNL     1      25.475   4.323  49.613  1.00  0.00    -0.051 Br
HETATM   21  C15 UNL     1      23.495   2.480  50.642  1.00  0.00     0.048 A 
ENDBRANCH  13  15
ENDBRANCH   4  13
BRANCH   1  22
HETATM   22  O1  UNL     1      26.447  -0.029  53.243  1.00  0.00    -0.333 OA
BRANCH  22  23
HETATM   23  C5  UNL     1      26.616   0.748  52.127  1.00  0.00     0.207 C 
BRANCH  23  24
HETATM   24  C4  UNL     1      27.128   2.107  52.359  1.00  0.00     0.296 C 
BRANCH  24  25
HETATM   25  N1  UNL     1      27.439   2.512  53.701  1.00  0.00     0.085 N 
HETATM   26  H8  UNL     1      27.164   1.715  54.391  1.00  0.00     0.315 HD
BRANCH  25  27
HETATM   27  C3  UNL     1      28.924   2.391  53.778  1.00  0.00     0.269 C 
BRANCH  27  28
HETATM   28  C2  UNL     1      29.375   1.173  54.490  1.00  0.00     0.025 C 
HETATM   29  C1  UNL     1      29.904   0.055  53.666  1.00  0.00     0.007 C 
ENDBRANCH  27  28
ENDBRANCH  25  27
ENDBRANCH  24  25
ENDBRANCH  23  24
ENDBRANCH  22  23
ENDBRANCH   1  22
TORSDOF 8
ENDMDL
MODEL 4
REMARK VINA RESULT:      -7.3      1.775      4.888
REMARK  8 active torsions:
REMARK  status: ('A' for Active; 'I' for Inactive)
REMARK    1  A    between atoms: C2_2  and  C3_3 
REMARK    2  A    between atoms: C3_3  and  N1_4 
REMARK    3  A    between atoms: N1_4  and  C4_5 
REMARK    4  A    between atoms: C4_5  and  C5_6 
REMARK    5  A    between atoms: C5_6  and  O1_7 
REMARK    6  A    between atoms: O1_7  and  C6_8 
REMARK    7  A    between atoms: C9_11  and  N2_12 
REMARK    8  A    between atoms: N2_12  and  C10_13 
ROOT
HETATM    1  C6  UNL     1      21.947  -1.279  54.045  1.00  0.00     0.165 A 
HETATM    2  C7  UNL     1      22.849  -0.514  53.282  1.00  0.00     0.074 A 
HETATM    3  C8  UNL     1      24.117  -0.286  53.802  1.00  0.00     0.026 A 
HETATM    4  C9  UNL     1      25.049   0.472  53.106  1.00  0.00     0.068 A 
HETATM    5  C16 UNL     1      26.300   0.686  53.677  1.00  0.00     0.089 A 
HETATM    6  C17 UNL     1      27.267   1.477  52.968  1.00  0.00     0.103 C 
HETATM    7  N3  UNL     1      28.028   2.124  52.406  1.00  0.00    -0.191 NA
HETATM    8  C18 UNL     1      26.671   0.176  54.917  1.00  0.00     0.142 A 
HETATM    9  N4  UNL     1      25.737  -0.567  55.580  1.00  0.00    -0.257 NA
HETATM   10  C19 UNL     1      24.524  -0.766  55.014  1.00  0.00     0.086 A 
HETATM   11  C20 UNL     1      23.618  -1.508  55.730  1.00  0.00     0.152 A 
HETATM   12  N5  UNL     1      22.411  -1.727  55.233  1.00  0.00    -0.235 NA
ENDROOT
BRANCH   4  13
HETATM   13  N2  UNL     1      24.777   1.017  51.822  1.00  0.00    -0.354 N 
HETATM   14  H14 UNL     1      24.783   0.520  50.892  1.00  0.00     0.166 HD
BRANCH  13  15
HETATM   15  C10 UNL     1      24.452   2.392  51.726  1.00  0.00     0.033 A 
HETATM   16  C11 UNL     1      23.593   2.997  52.660  1.00  0.00     0.029 A 
HETATM   17  C12 UNL     1      23.284   4.338  52.564  1.00  0.00     0.004 A 
HETATM   18  C13 UNL     1      23.791   5.141  51.567  1.00  0.00     0.019 A 
HETATM   19  C14 UNL     1      24.650   4.582  50.613  1.00  0.00     0.013 A 
HETATM   20 BR1  UNL     1      25.346   5.682  49.245  1.00  0.00    -0.051 Br
HETATM   21  C15 UNL     1      24.928   3.246  50.750  1.00  0.00     0.048 A 
ENDBRANCH  13  15
ENDBRANCH   4  13
BRANCH   1  22
HETATM   22  O1  UNL     1      20.766  -1.398  53.380  1.00  0.00    -0.333 OA
BRANCH  22  23
HETATM   23  C5  UNL     1      19.660  -0.602  53.524  1.00  0.00     0.207 C 
BRANCH  23  24
HETATM   24  C4  UNL     1      19.553   0.527  52.586  1.00  0.00     0.296 C 
BRANCH  24  25
HETATM   25  N1  UNL     1      19.454   0.254  51.180  1.00  0.00     0.085 N 
HETATM   26  H8  UNL     1      18.461   0.528  50.828  1.00  0.00     0.315 HD
BRANCH  25  27
HETATM   27  C3  UNL     1      20.242   1.350  50.544  1.00  0.00     0.269 C 
BRANCH  27  28
HETATM   28  C2  UNL     1      21.482   0.874  49.891  1.00  0.00     0.025 C 
HETATM   29  C1  UNL     1      22.106   1.764  48.877  1.00  0.00     0.007 C 
ENDBRANCH  27  28
ENDBRANCH  25  27
ENDBRANCH  24  25
ENDBRANCH  23  24
ENDBRANCH  22  23
ENDBRANCH   1  22
TORSDOF 8
ENDMDL
MODEL 5
REMARK VINA RESULT:      -7.3      1.195      1.461
REMARK  8 active torsions:
REMARK  status: ('A' for Active; 'I' for Inactive)
REMARK    1  A    between atoms: C2_2  and  C3_3 
REMARK    2  A    between atoms: C3_3  and  N1_4 
REMARK    3  A    between atoms: N1_4  and  C4_5 
REMARK    4  A    between atoms: C4_5  and  C5_6 
REMARK    5  A    between atoms: C5_6  and  O1_7 
REMARK    6  A    between atoms: O1_7  and  C6_8 
REMARK    7  A    between atoms: C9_11  and  N2_12 
REMARK    8  A    between atoms: N2_12  and  C10_13 
ROOT
HETATM    1  C6  UNL     1      23.929  -0.971  54.608  1.00  0.00     0.165 A 
HETATM    2  C7  UNL     1      23.649  -0.284  53.412  1.00  0.00     0.074 A 
HETATM    3  C8  UNL     1      22.321  -0.150  53.030  1.00  0.00     0.026 A 
HETATM    4  C9  UNL     1      21.977   0.505  51.855  1.00  0.00     0.068 A 
HETATM    5  C16 UNL     1      20.633   0.598  51.507  1.00  0.00     0.089 A 
HETATM    6  C17 UNL     1      20.270   1.266  50.288  1.00  0.00     0.103 C 
HETATM    7  N3  UNL     1      19.988   1.784  49.305  1.00  0.00    -0.191 NA
HETATM    8  C18 UNL     1      19.605   0.068  52.281  1.00  0.00     0.142 A 
HETATM    9  N4  UNL     1      19.970  -0.569  53.431  1.00  0.00    -0.257 NA
HETATM   10  C19 UNL     1      21.280  -0.654  53.757  1.00  0.00     0.086 A 
HETATM   11  C20 UNL     1      21.590  -1.318  54.918  1.00  0.00     0.152 A 
HETATM   12  N5  UNL     1      22.856  -1.443  55.282  1.00  0.00    -0.235 NA
ENDROOT
BRANCH   4  13
HETATM   13  N2  UNL     1      22.949   1.103  51.007  1.00  0.00    -0.354 N 
HETATM   14  H14 UNL     1      23.506   0.646  50.237  1.00  0.00     0.166 HD
BRANCH  13  15
HETATM   15  C10 UNL     1      23.239   2.478  51.176  1.00  0.00     0.033 A 
HETATM   16  C11 UNL     1      23.041   3.111  52.415  1.00  0.00     0.029 A 
HETATM   17  C12 UNL     1      23.329   4.451  52.574  1.00  0.00     0.004 A 
HETATM   18  C13 UNL     1      23.819   5.225  51.546  1.00  0.00     0.019 A 
HETATM   19  C14 UNL     1      24.032   4.638  50.293  1.00  0.00     0.013 A 
HETATM   20 BR1  UNL     1      24.704   5.700  48.883  1.00  0.00    -0.051 Br
HETATM   21  C15 UNL     1      23.731   3.304  50.184  1.00  0.00     0.048 A 
ENDBRANCH  13  15
ENDBRANCH   4  13
BRANCH   1  22
HETATM   22  O1  UNL     1      25.273  -1.002  54.819  1.00  0.00    -0.333 OA
BRANCH  22  23
HETATM   23  C5  UNL     1      26.041  -0.004  55.360  1.00  0.00     0.207 C 
BRANCH  23  24
HETATM   24  C4  UNL     1      27.371   0.183  54.760  1.00  0.00     0.296 C 
BRANCH  24  25
HETATM   25  N1  UNL     1      27.788   1.509  54.397  1.00  0.00     0.085 N 
HETATM   26  H8  UNL     1      28.470   1.454  53.551  1.00  0.00     0.315 HD
BRANCH  25  27
HETATM   27  C3  UNL     1      26.597   2.084  53.706  1.00  0.00     0.269 C 
BRANCH  27  28
HETATM   28  C2  UNL     1      26.763   2.178  52.238  1.00  0.00     0.025 C 
HETATM   29  C1  UNL     1      26.576   0.933  51.447  1.00  0.00     0.007 C 
ENDBRANCH  27  28
ENDBRANCH  25  27
ENDBRANCH  24  25
ENDBRANCH  23  24
ENDBRANCH  22  23
ENDBRANCH   1  22
TORSDOF 8
ENDMDL
MODEL 6
REMARK VINA RESULT:      -7.0      2.419      3.924
REMARK  8 active torsions:
REMARK  status: ('A' for Active; 'I' for Inactive)
REMARK    1  A    between atoms: C2_2  and  C3_3 
REMARK    2  A    between atoms: C3_3  and  N1_4 
REMARK    3  A    between atoms: N1_4  and  C4_5 
REMARK    4  A    between atoms: C4_5  and  C5_6 
REMARK    5  A    between atoms: C5_6  and  O1_7 
REMARK    6  A    between atoms: O1_7  and  C6_8 
REMARK    7  A    between atoms: C9_11  and  N2_12 
REMARK    8  A    between atoms: N2_12  and  C10_13 
ROOT
HETATM    1  C6  UNL     1      26.924   1.587  52.373  1.00  0.00     0.165 A 
HETATM    2  C7  UNL     1      25.605   1.097  52.360  1.00  0.00     0.074 A 
HETATM    3  C8  UNL     1      25.175   0.346  53.446  1.00  0.00     0.026 A 
HETATM    4  C9  UNL     1      23.891  -0.178  53.490  1.00  0.00     0.068 A 
HETATM    5  C16 UNL     1      23.513  -0.939  54.592  1.00  0.00     0.089 A 
HETATM    6  C17 UNL     1      22.189  -1.493  54.641  1.00  0.00     0.103 C 
HETATM    7  N3  UNL     1      21.136  -1.947  54.666  1.00  0.00    -0.191 NA
HETATM    8  C18 UNL     1      24.360  -1.203  55.664  1.00  0.00     0.142 A 
HETATM    9  N4  UNL     1      25.617  -0.674  55.598  1.00  0.00    -0.257 NA
HETATM   10  C19 UNL     1      25.972   0.062  54.520  1.00  0.00     0.086 A 
HETATM   11  C20 UNL     1      27.252   0.556  54.498  1.00  0.00     0.152 A 
HETATM   12  N5  UNL     1      27.660   1.274  53.463  1.00  0.00    -0.235 NA
ENDROOT
BRANCH   4  13
HETATM   13  N2  UNL     1      22.941   0.054  52.458  1.00  0.00    -0.354 N 
HETATM   14  H14 UNL     1      22.651  -0.602  51.685  1.00  0.00     0.166 HD
BRANCH  13  15
HETATM   15  C10 UNL     1      22.272   1.301  52.422  1.00  0.00     0.033 A 
HETATM   16  C11 UNL     1      20.909   1.399  52.748  1.00  0.00     0.029 A 
HETATM   17  C12 UNL     1      20.264   2.619  52.716  1.00  0.00     0.004 A 
HETATM   18  C13 UNL     1      20.911   3.784  52.369  1.00  0.00     0.019 A 
HETATM   19  C14 UNL     1      22.269   3.735  52.036  1.00  0.00     0.013 A 
HETATM   20 BR1  UNL     1      23.157   5.333  51.561  1.00  0.00    -0.051 Br
HETATM   21  C15 UNL     1      22.867   2.501  52.082  1.00  0.00     0.048 A 
ENDBRANCH  13  15
ENDBRANCH   4  13
BRANCH   1  22
HETATM   22  O1  UNL     1      27.164   2.296  51.236  1.00  0.00    -0.333 OA
BRANCH  22  23
HETATM   23  C5  UNL     1      26.240   2.960  50.473  1.00  0.00     0.207 C 
BRANCH  23  24
HETATM   24  C4  UNL     1      26.778   3.756  49.358  1.00  0.00     0.296 C 
BRANCH  24  25
HETATM   25  N1  UNL     1      27.073   5.144  49.575  1.00  0.00     0.085 N 
HETATM   26  H8  UNL     1      27.819   5.236  50.363  1.00  0.00     0.315 HD
BRANCH  25  27
HETATM   27  C3  UNL     1      27.918   5.519  48.403  1.00  0.00     0.269 C 
BRANCH  27  28
HETATM   28  C2  UNL     1      27.737   6.926  47.979  1.00  0.00     0.025 C 
HETATM   29  C1  UNL     1      28.704   7.473  46.991  1.00  0.00     0.007 C 
ENDBRANCH  27  28
ENDBRANCH  25  27
ENDBRANCH  24  25
ENDBRANCH  23  24
ENDBRANCH  22  23
ENDBRANCH   1  22
TORSDOF 8
ENDMDL
MODEL 7
REMARK VINA RESULT:      -6.9      1.700      2.687
REMARK  8 active torsions:
REMARK  status: ('A' for Active; 'I' for Inactive)
REMARK    1  A    between atoms: C2_2  and  C3_3 
REMARK    2  A    between atoms: C3_3  and  N1_4 
REMARK    3  A    between atoms: N1_4  and  C4_5 
REMARK    4  A    between atoms: C4_5  and  C5_6 
REMARK    5  A    between atoms: C5_6  and  O1_7 
REMARK    6  A    between atoms: O1_7  and  C6_8 
REMARK    7  A    between atoms: C9_11  and  N2_12 
REMARK    8  A    between atoms: N2_12  and  C10_13 
ROOT
HETATM    1  C6  UNL     1      24.887   1.232  53.291  1.00  0.00     0.165 A 
HETATM    2  C7  UNL     1      23.580   1.489  52.837  1.00  0.00     0.074 A 
HETATM    3  C8  UNL     1      22.585   0.574  53.155  1.00  0.00     0.026 A 
HETATM    4  C9  UNL     1      21.278   0.762  52.725  1.00  0.00     0.068 A 
HETATM    5  C16 UNL     1      20.320  -0.193  53.055  1.00  0.00     0.089 A 
HETATM    6  C17 UNL     1      18.968  -0.011  52.606  1.00  0.00     0.103 C 
HETATM    7  N3  UNL     1      17.894   0.130  52.231  1.00  0.00    -0.191 NA
HETATM    8  C18 UNL     1      20.603  -1.333  53.799  1.00  0.00     0.142 A 
HETATM    9  N4  UNL     1      21.895  -1.493  54.210  1.00  0.00    -0.257 NA
HETATM   10  C19 UNL     1      22.816  -0.559  53.882  1.00  0.00     0.086 A 
HETATM   11  C20 UNL     1      24.103  -0.777  54.309  1.00  0.00     0.152 A 
HETATM   12  N5  UNL     1      25.050   0.097  54.008  1.00  0.00    -0.235 NA
ENDROOT
BRANCH   4  13
HETATM   13  N2  UNL     1      20.880   1.905  51.980  1.00  0.00    -0.354 N 
HETATM   14  H14 UNL     1      20.267   2.703  52.296  1.00  0.00     0.166 HD
BRANCH  13  15
HETATM   15  C10 UNL     1      21.339   2.037  50.648  1.00  0.00     0.033 A 
HETATM   16  C11 UNL     1      21.276   0.956  49.752  1.00  0.00     0.029 A 
HETATM   17  C12 UNL     1      21.721   1.092  48.453  1.00  0.00     0.004 A 
HETATM   18  C13 UNL     1      22.241   2.273  47.973  1.00  0.00     0.019 A 
HETATM   19  C14 UNL     1      22.325   3.377  48.829  1.00  0.00     0.013 A 
HETATM   20 BR1  UNL     1      23.038   4.998  48.172  1.00  0.00    -0.051 Br
HETATM   21  C15 UNL     1      21.870   3.194  50.110  1.00  0.00     0.048 A 
ENDBRANCH  13  15
ENDBRANCH   4  13
BRANCH   1  22
HETATM   22  O1  UNL     1      25.720   2.230  52.889  1.00  0.00    -0.333 OA
BRANCH  22  23
HETATM   23  C5  UNL     1      26.911   2.087  52.226  1.00  0.00     0.207 C 
BRANCH  23  24
HETATM   24  C4  UNL     1      28.121   2.106  53.062  1.00  0.00     0.296 C 
BRANCH  24  25
HETATM   25  N1  UNL     1      28.008   1.771  54.454  1.00  0.00     0.085 N 
HETATM   26  H8  UNL     1      26.958   1.635  54.709  1.00  0.00     0.315 HD
BRANCH  25  27
HETATM   27  C3  UNL     1      28.454   0.348  54.518  1.00  0.00     0.269 C 
BRANCH  27  28
HETATM   28  C2  UNL     1      29.593   0.052  53.620  1.00  0.00     0.025 C 
HETATM   29  C1  UNL     1      30.159  -1.322  53.664  1.00  0.00     0.007 C 
ENDBRANCH  27  28
ENDBRANCH  25  27
ENDBRANCH  24  25
ENDBRANCH  23  24
ENDBRANCH  22  23
ENDBRANCH   1  22
TORSDOF 8
ENDMDL
MODEL 8
REMARK VINA RESULT:      -6.9      2.114      2.973
REMARK  8 active torsions:
REMARK  status: ('A' for Active; 'I' for Inactive)
REMARK    1  A    between atoms: C2_2  and  C3_3 
REMARK    2  A    between atoms: C3_3  and  N1_4 
REMARK    3  A    between atoms: N1_4  and  C4_5 
REMARK    4  A    between atoms: C4_5  and  C5_6 
REMARK    5  A    between atoms: C5_6  and  O1_7 
REMARK    6  A    between atoms: O1_7  and  C6_8 
REMARK    7  A    between atoms: C9_11  and  N2_12 
REMARK    8  A    between atoms: N2_12  and  C10_13 
ROOT
HETATM    1  C6  UNL     1      25.055   1.463  53.112  1.00  0.00     0.165 A 
HETATM    2  C7  UNL     1      23.709   1.616  52.731  1.00  0.00     0.074 A 
HETATM    3  C8  UNL     1      22.801   0.646  53.135  1.00  0.00     0.026 A 
HETATM    4  C9  UNL     1      21.461   0.730  52.782  1.00  0.00     0.068 A 
HETATM    5  C16 UNL     1      20.593  -0.277  53.196  1.00  0.00     0.089 A 
HETATM    6  C17 UNL     1      19.207  -0.202  52.827  1.00  0.00     0.103 C 
HETATM    7  N3  UNL     1      18.105  -0.146  52.515  1.00  0.00    -0.191 NA
HETATM    8  C18 UNL     1      20.999  -1.371  53.953  1.00  0.00     0.142 A 
HETATM    9  N4  UNL     1      22.321  -1.430  54.288  1.00  0.00    -0.257 NA
HETATM   10  C19 UNL     1      23.154  -0.446  53.878  1.00  0.00     0.086 A 
HETATM   11  C20 UNL     1      24.476  -0.562  54.230  1.00  0.00     0.152 A 
HETATM   12  N5  UNL     1      25.340   0.365  53.848  1.00  0.00    -0.235 NA
ENDROOT
BRANCH   4  13
HETATM   13  N2  UNL     1      20.940   1.819  52.032  1.00  0.00    -0.354 N 
HETATM   14  H14 UNL     1      20.276   2.571  52.357  1.00  0.00     0.166 HD
BRANCH  13  15
HETATM   15  C10 UNL     1      21.335   1.958  50.679  1.00  0.00     0.033 A 
HETATM   16  C11 UNL     1      21.312   0.859  49.804  1.00  0.00     0.029 A 
HETATM   17  C12 UNL     1      21.693   1.002  48.486  1.00  0.00     0.004 A 
HETATM   18  C13 UNL     1      22.108   2.208  47.967  1.00  0.00     0.019 A 
HETATM   19  C14 UNL     1      22.148   3.331  48.801  1.00  0.00     0.013 A 
HETATM   20 BR1  UNL     1      22.718   4.985  48.090  1.00  0.00    -0.051 Br
HETATM   21  C15 UNL     1      21.760   3.140  50.103  1.00  0.00     0.048 A 
ENDBRANCH  13  15
ENDBRANCH   4  13
BRANCH   1  22
HETATM   22  O1  UNL     1      25.791   2.502  52.632  1.00  0.00    -0.333 OA
BRANCH  22  23
HETATM   23  C5  UNL     1      26.469   2.546  51.441  1.00  0.00     0.207 C 
BRANCH  23  24
HETATM   24  C4  UNL     1      25.830   3.320  50.365  1.00  0.00     0.296 C 
BRANCH  24  25
HETATM   25  N1  UNL     1      25.862   4.754  50.429  1.00  0.00     0.085 N 
HETATM   26  H8  UNL     1      26.737   5.072  50.993  1.00  0.00     0.315 HD
BRANCH  25  27
HETATM   27  C3  UNL     1      26.298   5.165  49.062  1.00  0.00     0.269 C 
BRANCH  27  28
HETATM   28  C2  UNL     1      27.678   4.738  48.736  1.00  0.00     0.025 C 
HETATM   29  C1  UNL     1      28.612   5.775  48.224  1.00  0.00     0.007 C 
ENDBRANCH  27  28
ENDBRANCH  25  27
ENDBRANCH  24  25
ENDBRANCH  23  24
ENDBRANCH  22  23
ENDBRANCH   1  22
TORSDOF 8
ENDMDL
MODEL 9
REMARK VINA RESULT:      -6.7      3.329      5.492
REMARK  8 active torsions:
REMARK  status: ('A' for Active; 'I' for Inactive)
REMARK    1  A    between atoms: C2_2  and  C3_3 
REMARK    2  A    between atoms: C3_3  and  N1_4 
REMARK    3  A    between atoms: N1_4  and  C4_5 
REMARK    4  A    between atoms: C4_5  and  C5_6 
REMARK    5  A    between atoms: C5_6  and  O1_7 
REMARK    6  A    between atoms: O1_7  and  C6_8 
REMARK    7  A    between atoms: C9_11  and  N2_12 
REMARK    8  A    between atoms: N2_12  and  C10_13 
ROOT
HETATM    1  C6  UNL     1      24.349   3.644  50.891  1.00  0.00     0.165 A 
HETATM    2  C7  UNL     1      23.507   2.909  51.746  1.00  0.00     0.074 A 
HETATM    3  C8  UNL     1      23.999   1.732  52.295  1.00  0.00     0.026 A 
HETATM    4  C9  UNL     1      23.215   0.954  53.135  1.00  0.00     0.068 A 
HETATM    5  C16 UNL     1      23.747  -0.227  53.646  1.00  0.00     0.089 A 
HETATM    6  C17 UNL     1      22.939  -1.043  54.508  1.00  0.00     0.103 C 
HETATM    7  N3  UNL     1      22.283  -1.699  55.182  1.00  0.00    -0.191 NA
HETATM    8  C18 UNL     1      25.034  -0.672  53.359  1.00  0.00     0.142 A 
HETATM    9  N4  UNL     1      25.784   0.113  52.531  1.00  0.00    -0.257 NA
HETATM   10  C19 UNL     1      25.254   1.257  52.041  1.00  0.00     0.086 A 
HETATM   11  C20 UNL     1      26.048   2.000  51.202  1.00  0.00     0.152 A 
HETATM   12  N5  UNL     1      25.579   3.123  50.682  1.00  0.00    -0.235 NA
ENDROOT
BRANCH   4  13
HETATM   13  N2  UNL     1      21.897   1.332  53.510  1.00  0.00    -0.354 N 
HETATM   14  H14 UNL     1      21.602   1.934  54.323  1.00  0.00     0.166 HD
BRANCH  13  15
HETATM   15  C10 UNL     1      20.813   0.871  52.724  1.00  0.00     0.033 A 
HETATM   16  C11 UNL     1      20.677   1.261  51.381  1.00  0.00     0.029 A 
HETATM   17  C12 UNL     1      19.620   0.805  50.619  1.00  0.00     0.004 A 
HETATM   18  C13 UNL     1      18.661  -0.043  51.126  1.00  0.00     0.019 A 
HETATM   19  C14 UNL     1      18.754  -0.458  52.459  1.00  0.00     0.013 A 
HETATM   20 BR1  UNL     1      17.438  -1.621  53.154  1.00  0.00    -0.051 Br
HETATM   21  C15 UNL     1      19.821   0.021  53.176  1.00  0.00     0.048 A 
ENDBRANCH  13  15
ENDBRANCH   4  13
BRANCH   1  22
HETATM   22  O1  UNL     1      23.704   4.760  50.454  1.00  0.00    -0.333 OA
BRANCH  22  23
HETATM   23  C5  UNL     1      24.245   5.792  49.734  1.00  0.00     0.207 C 
BRANCH  23  24
HETATM   24  C4  UNL     1      25.004   6.789  50.506  1.00  0.00     0.296 C 
BRANCH  24  25
HETATM   25  N1  UNL     1      26.419   6.905  50.288  1.00  0.00     0.085 N 
HETATM   26  H8  UNL     1      26.865   5.912  50.273  1.00  0.00     0.315 HD
BRANCH  25  27
HETATM   27  C3  UNL     1      26.533   7.240  48.839  1.00  0.00     0.269 C 
BRANCH  27  28
HETATM   28  C2  UNL     1      27.549   6.428  48.130  1.00  0.00     0.025 C 
HETATM   29  C1  UNL     1      27.763   5.035  48.603  1.00  0.00     0.007 C 
ENDBRANCH  27  28
ENDBRANCH  25  27
ENDBRANCH  24  25
ENDBRANCH  23  24
ENDBRANCH  22  23
ENDBRANCH   1  22
TORSDOF 8
ENDMDL
