MODEL 1
REMARK VINA RESULT:      -7.9      0.000      0.000
REMARK  7 active torsions:
REMARK  status: ('A' for Active; 'I' for Inactive)
REMARK       I    between atoms: N1_2  and  C2_3 
REMARK    1  A    between atoms: C2_3  and  C3_5 
REMARK    2  A    between atoms: C6_8  and  N2_9 
REMARK    3  A    between atoms: N2_9  and  C7_10 
REMARK    4  A    between atoms: C7_10  and  C8_11 
REMARK    5  A    between atoms: C10_13  and  O2_14 
REMARK    6  A    between atoms: C13_17  and  O3_18 
REMARK    7  A    between atoms: C16_21  and  O4_22 
ROOT
HETATM    1  C3  UNL     1      21.118  -0.248  53.457  1.00  0.00     0.042 A 
HETATM    2  C4  UNL     1      21.775   0.645  52.747  1.00  0.00     0.028 A 
HETATM    3  C5  UNL     1      23.186   0.913  52.993  1.00  0.00    -0.021 A 
HETATM    4  C6  UNL     1      23.866   1.800  52.297  1.00  0.00     0.094 C 
HETATM    5  C14 UNL     1      23.895   0.187  54.040  1.00  0.00     0.011 A 
HETATM    6  C15 UNL     1      23.136  -0.682  54.687  1.00  0.00     0.010 A 
HETATM    7  C16 UNL     1      21.724  -1.051  54.549  1.00  0.00     0.179 A 
ENDROOT
BRANCH   4   8
HETATM    8  N2  UNL     1      25.239   2.140  52.451  1.00  0.00    -0.394 N 
HETATM    9  H7  UNL     1      25.253   2.828  53.251  1.00  0.00     0.159 HD
BRANCH   8  10
HETATM   10  C7  UNL     1      26.252   1.562  51.596  1.00  0.00     0.160 C 
BRANCH  10  11
HETATM   11  C8  UNL     1      27.154   0.655  52.315  1.00  0.00    -0.005 A 
HETATM   12  C9  UNL     1      27.135  -0.720  52.424  1.00  0.00     0.048 A 
HETATM   13  C10 UNL     1      28.093  -1.382  53.162  1.00  0.00     0.066 A 
HETATM   14  C11 UNL     1      29.104  -0.697  53.818  1.00  0.00     0.039 A 
HETATM   15  C12 UNL     1      29.137   0.671  53.719  1.00  0.00     0.040 A 
HETATM   16  C13 UNL     1      28.170   1.350  52.973  1.00  0.00     0.073 A 
BRANCH  13  17
HETATM   17  O2  UNL     1      27.881  -2.772  53.136  1.00  0.00    -0.361 OA
HETATM   18  H11 UNL     1      28.444  -3.365  53.766  1.00  0.00     0.217 HD
ENDBRANCH  13  17
BRANCH  16  19
HETATM   19  O3  UNL     1      28.355   2.739  52.982  1.00  0.00    -0.360 OA
HETATM   20  H14 UNL     1      27.723   3.351  52.494  1.00  0.00     0.217 HD
ENDBRANCH  16  19
ENDBRANCH  10  11
ENDBRANCH   8  10
ENDBRANCH   4   8
BRANCH   1  21
HETATM   21  C2  UNL     1      19.708  -0.487  53.180  1.00  0.00     0.250 C 
HETATM   22  N1  UNL     1      18.890  -1.462  53.815  1.00  0.00    -0.361 N 
HETATM   23  C1  UNL     1      17.496  -1.646  53.491  1.00  0.00     0.149 C 
HETATM   24  H4  UNL     1      19.314  -2.069  54.545  1.00  0.00     0.162 HD
HETATM   25  O1  UNL     1      19.056   0.175  52.315  1.00  0.00    -0.268 OA
ENDBRANCH   1  21
BRANCH   7  26
HETATM   26  O4  UNL     1      21.501  -2.415  54.373  1.00  0.00    -0.387 OA
HETATM   27  H18 UNL     1      21.653  -2.607  53.404  1.00  0.00     0.210 HD
ENDBRANCH   7  26
TORSDOF 7
ENDMDL
MODEL 2
REMARK VINA RESULT:      -7.8      1.664      2.905
REMARK  7 active torsions:
REMARK  status: ('A' for Active; 'I' for Inactive)
REMARK       I    between atoms: N1_2  and  C2_3 
REMARK    1  A    between atoms: C2_3  and  C3_5 
REMARK    2  A    between atoms: C6_8  and  N2_9 
REMARK    3  A    between atoms: N2_9  and  C7_10 
REMARK    4  A    between atoms: C7_10  and  C8_11 
REMARK    5  A    between atoms: C10_13  and  O2_14 
REMARK    6  A    between atoms: C13_17  and  O3_18 
REMARK    7  A    between atoms: C16_21  and  O4_22 
ROOT
HETATM    1  C3  UNL     1      20.541   0.364  52.725  1.00  0.00     0.042 A 
HETATM    2  C4  UNL     1      21.450  -0.468  53.191  1.00  0.00     0.028 A 
HETATM    3  C5  UNL     1      22.851  -0.077  53.285  1.00  0.00    -0.021 A 
HETATM    4  C6  UNL     1      23.779  -0.888  53.747  1.00  0.00     0.094 C 
HETATM    5  C14 UNL     1      23.267   1.254  52.859  1.00  0.00     0.011 A 
HETATM    6  C15 UNL     1      22.271   2.000  52.409  1.00  0.00     0.010 A 
HETATM    7  C16 UNL     1      20.836   1.742  52.261  1.00  0.00     0.179 A 
ENDROOT
BRANCH   4   8
HETATM    8  N2  UNL     1      25.168  -0.613  53.881  1.00  0.00    -0.394 N 
HETATM    9  H7  UNL     1      25.234  -0.001  54.739  1.00  0.00     0.159 HD
BRANCH   8  10
HETATM   10  C7  UNL     1      26.130  -1.149  52.944  1.00  0.00     0.160 C 
BRANCH  10  11
HETATM   11  C8  UNL     1      27.500  -0.701  53.217  1.00  0.00    -0.005 A 
HETATM   12  C9  UNL     1      27.983   0.554  53.524  1.00  0.00     0.048 A 
HETATM   13  C10 UNL     1      29.330   0.757  53.746  1.00  0.00     0.066 A 
HETATM   14  C11 UNL     1      30.241  -0.285  53.669  1.00  0.00     0.039 A 
HETATM   15  C12 UNL     1      29.776  -1.540  53.365  1.00  0.00     0.040 A 
HETATM   16  C13 UNL     1      28.413  -1.753  53.139  1.00  0.00     0.073 A 
BRANCH  13  17
HETATM   17  O2  UNL     1      29.596   2.105  54.042  1.00  0.00    -0.361 OA
HETATM   18  H11 UNL     1      30.081   2.326  54.926  1.00  0.00     0.217 HD
ENDBRANCH  13  17
BRANCH  16  19
HETATM   19  O3  UNL     1      28.117  -3.090  52.841  1.00  0.00    -0.360 OA
HETATM   20  H14 UNL     1      28.379  -3.497  51.959  1.00  0.00     0.217 HD
ENDBRANCH  16  19
ENDBRANCH  10  11
ENDBRANCH   8  10
ENDBRANCH   4   8
BRANCH   1  21
HETATM   21  C2  UNL     1      19.151  -0.065  52.648  1.00  0.00     0.250 C 
HETATM   22  N1  UNL     1      18.553  -1.089  53.434  1.00  0.00    -0.361 N 
HETATM   23  C1  UNL     1      17.166  -1.465  53.306  1.00  0.00     0.149 C 
HETATM   24  H4  UNL     1      19.140  -1.588  54.132  1.00  0.00     0.162 HD
HETATM   25  O1  UNL     1      18.316   0.452  51.844  1.00  0.00    -0.268 OA
ENDBRANCH   1  21
BRANCH   7  26
HETATM   26  O4  UNL     1      20.016   2.683  52.879  1.00  0.00    -0.387 OA
HETATM   27  H18 UNL     1      19.267   2.871  52.245  1.00  0.00     0.210 HD
ENDBRANCH   7  26
TORSDOF 7
ENDMDL
MODEL 3
REMARK VINA RESULT:      -7.8      2.775      3.905
REMARK  7 active torsions:
REMARK  status: ('A' for Active; 'I' for Inactive)
REMARK       I    between atoms: N1_2  and  C2_3 
REMARK    1  A    between atoms: C2_3  and  C3_5 
REMARK    2  A    between atoms: C6_8  and  N2_9 
REMARK    3  A    between atoms: N2_9  and  C7_10 
REMARK    4  A    between atoms: C7_10  and  C8_11 
REMARK    5  A    between atoms: C10_13  and  O2_14 
REMARK    6  A    between atoms: C13_17  and  O3_18 
REMARK    7  A    between atoms: C16_21  and  O4_22 
ROOT
HETATM    1  C3  UNL     1      22.145   2.946  52.246  1.00  0.00     0.042 A 
HETATM    2  C4  UNL     1      22.333   1.680  52.554  1.00  0.00     0.028 A 
HETATM    3  C5  UNL     1      23.635   1.199  53.000  1.00  0.00    -0.021 A 
HETATM    4  C6  UNL     1      23.849  -0.061  53.315  1.00  0.00     0.094 C 
HETATM    5  C14 UNL     1      24.756   2.125  53.110  1.00  0.00     0.011 A 
HETATM    6  C15 UNL     1      24.451   3.367  52.774  1.00  0.00     0.010 A 
HETATM    7  C16 UNL     1      23.203   3.985  52.315  1.00  0.00     0.179 A 
ENDROOT
BRANCH   4   8
HETATM    8  N2  UNL     1      25.072  -0.637  53.759  1.00  0.00    -0.394 N 
HETATM    9  H7  UNL     1      25.022  -0.586  54.812  1.00  0.00     0.159 HD
BRANCH   8  10
HETATM   10  C7  UNL     1      26.051  -1.131  52.816  1.00  0.00     0.160 C 
BRANCH  10  11
HETATM   11  C8  UNL     1      27.415  -0.692  53.130  1.00  0.00    -0.005 A 
HETATM   12  C9  UNL     1      27.900   0.564  53.429  1.00  0.00     0.048 A 
HETATM   13  C10 UNL     1      29.240   0.757  53.695  1.00  0.00     0.066 A 
HETATM   14  C11 UNL     1      30.142  -0.295  53.673  1.00  0.00     0.039 A 
HETATM   15  C12 UNL     1      29.675  -1.551  53.377  1.00  0.00     0.040 A 
HETATM   16  C13 UNL     1      28.319  -1.755  53.106  1.00  0.00     0.073 A 
BRANCH  13  17
HETATM   17  O2  UNL     1      29.511   2.109  53.972  1.00  0.00    -0.361 OA
HETATM   18  H11 UNL     1      30.490   2.432  53.925  1.00  0.00     0.217 HD
ENDBRANCH  13  17
BRANCH  16  19
HETATM   19  O3  UNL     1      28.019  -3.095  52.825  1.00  0.00    -0.360 OA
HETATM   20  H14 UNL     1      28.460  -3.577  52.061  1.00  0.00     0.217 HD
ENDBRANCH  16  19
ENDBRANCH  10  11
ENDBRANCH   8  10
ENDBRANCH   4   8
BRANCH   1  21
HETATM   21  C2  UNL     1      20.829   3.388  51.804  1.00  0.00     0.250 C 
HETATM   22  N1  UNL     1      19.616   2.661  51.954  1.00  0.00    -0.361 N 
HETATM   23  C1  UNL     1      18.342   3.158  51.493  1.00  0.00     0.149 C 
HETATM   24  H4  UNL     1      19.646   1.730  52.418  1.00  0.00     0.162 HD
HETATM   25  O1  UNL     1      20.635   4.500  51.223  1.00  0.00    -0.268 OA
ENDBRANCH   1  21
BRANCH   7  26
HETATM   26  O4  UNL     1      22.798   5.087  53.066  1.00  0.00    -0.387 OA
HETATM   27  H18 UNL     1      22.527   4.739  53.962  1.00  0.00     0.210 HD
ENDBRANCH   7  26
TORSDOF 7
ENDMDL
MODEL 4
REMARK VINA RESULT:      -7.8      3.615      6.813
REMARK  7 active torsions:
REMARK  status: ('A' for Active; 'I' for Inactive)
REMARK       I    between atoms: N1_2  and  C2_3 
REMARK    1  A    between atoms: C2_3  and  C3_5 
REMARK    2  A    between atoms: C6_8  and  N2_9 
REMARK    3  A    between atoms: N2_9  and  C7_10 
REMARK    4  A    between atoms: C7_10  and  C8_11 
REMARK    5  A    between atoms: C10_13  and  O2_14 
REMARK    6  A    between atoms: C13_17  and  O3_18 
REMARK    7  A    between atoms: C16_21  and  O4_22 
ROOT
HETATM    1  C3  UNL     1      25.887   5.413  49.771  1.00  0.00     0.042 A 
HETATM    2  C4  UNL     1      25.019   4.849  50.585  1.00  0.00     0.028 A 
HETATM    3  C5  UNL     1      25.035   3.411  50.822  1.00  0.00    -0.021 A 
HETATM    4  C6  UNL     1      24.180   2.821  51.631  1.00  0.00     0.094 C 
HETATM    5  C14 UNL     1      26.024   2.572  50.155  1.00  0.00     0.011 A 
HETATM    6  C15 UNL     1      26.841   3.246  49.363  1.00  0.00     0.010 A 
HETATM    7  C16 UNL     1      26.939   4.671  49.033  1.00  0.00     0.179 A 
ENDROOT
BRANCH   4   8
HETATM    8  N2  UNL     1      24.105   1.434  51.935  1.00  0.00    -0.394 N 
HETATM    9  H7  UNL     1      23.742   0.988  51.050  1.00  0.00     0.159 HD
BRANCH   8  10
HETATM   10  C7  UNL     1      24.488   0.932  53.236  1.00  0.00     0.160 C 
BRANCH  10  11
HETATM   11  C8  UNL     1      25.794   0.263  53.226  1.00  0.00    -0.005 A 
HETATM   12  C9  UNL     1      26.125  -1.041  52.926  1.00  0.00     0.048 A 
HETATM   13  C10 UNL     1      27.436  -1.467  52.981  1.00  0.00     0.066 A 
HETATM   14  C11 UNL     1      28.463  -0.606  53.337  1.00  0.00     0.039 A 
HETATM   15  C12 UNL     1      28.150   0.696  53.638  1.00  0.00     0.040 A 
HETATM   16  C13 UNL     1      26.824   1.135  53.585  1.00  0.00     0.073 A 
BRANCH  13  17
HETATM   17  O2  UNL     1      27.542  -2.826  52.638  1.00  0.00    -0.361 OA
HETATM   18  H11 UNL     1      28.476  -3.264  52.654  1.00  0.00     0.217 HD
ENDBRANCH  13  17
BRANCH  16  19
HETATM   19  O3  UNL     1      26.687   2.488  53.923  1.00  0.00    -0.360 OA
HETATM   20  H14 UNL     1      27.493   3.072  54.067  1.00  0.00     0.217 HD
ENDBRANCH  16  19
ENDBRANCH  10  11
ENDBRANCH   8  10
ENDBRANCH   4   8
BRANCH   1  21
HETATM   21  C2  UNL     1      25.838   6.854  49.560  1.00  0.00     0.250 C 
HETATM   22  N1  UNL     1      26.760   7.802  50.084  1.00  0.00    -0.361 N 
HETATM   23  C1  UNL     1      26.652   9.219  49.836  1.00  0.00     0.149 C 
HETATM   24  H4  UNL     1      27.548   7.459  50.670  1.00  0.00     0.162 HD
HETATM   25  O1  UNL     1      24.935   7.417  48.868  1.00  0.00    -0.268 OA
ENDBRANCH   1  21
BRANCH   7  26
HETATM   26  O4  UNL     1      28.202   5.222  49.238  1.00  0.00    -0.387 OA
HETATM   27  H18 UNL     1      28.699   4.587  49.829  1.00  0.00     0.210 HD
ENDBRANCH   7  26
TORSDOF 7
ENDMDL
MODEL 5
REMARK VINA RESULT:      -7.6      4.122      6.378
REMARK  7 active torsions:
REMARK  status: ('A' for Active; 'I' for Inactive)
REMARK       I    between atoms: N1_2  and  C2_3 
REMARK    1  A    between atoms: C2_3  and  C3_5 
REMARK    2  A    between atoms: C6_8  and  N2_9 
REMARK    3  A    between atoms: N2_9  and  C7_10 
REMARK    4  A    between atoms: C7_10  and  C8_11 
REMARK    5  A    between atoms: C10_13  and  O2_14 
REMARK    6  A    between atoms: C13_17  and  O3_18 
REMARK    7  A    between atoms: C16_21  and  O4_22 
ROOT
HETATM    1  C3  UNL     1      25.245   5.557  49.967  1.00  0.00     0.042 A 
HETATM    2  C4  UNL     1      24.713   4.652  50.763  1.00  0.00     0.028 A 
HETATM    3  C5  UNL     1      25.286   3.317  50.872  1.00  0.00    -0.021 A 
HETATM    4  C6  UNL     1      24.775   2.394  51.660  1.00  0.00     0.094 C 
HETATM    5  C14 UNL     1      26.467   2.963  50.093  1.00  0.00     0.011 A 
HETATM    6  C15 UNL     1      26.911   3.948  49.331  1.00  0.00     0.010 A 
HETATM    7  C16 UNL     1      26.443   5.322  49.124  1.00  0.00     0.179 A 
ENDROOT
BRANCH   4   8
HETATM    8  N2  UNL     1      25.249   1.065  51.844  1.00  0.00    -0.394 N 
HETATM    9  H7  UNL     1      25.303   0.666  50.868  1.00  0.00     0.159 HD
BRANCH   8  10
HETATM   10  C7  UNL     1      25.541   0.552  53.164  1.00  0.00     0.160 C 
BRANCH  10  11
HETATM   11  C8  UNL     1      26.824  -0.156  53.229  1.00  0.00    -0.005 A 
HETATM   12  C9  UNL     1      27.125  -1.481  52.986  1.00  0.00     0.048 A 
HETATM   13  C10 UNL     1      28.418  -1.944  53.108  1.00  0.00     0.066 A 
HETATM   14  C11 UNL     1      29.457  -1.103  53.474  1.00  0.00     0.039 A 
HETATM   15  C12 UNL     1      29.175   0.218  53.718  1.00  0.00     0.040 A 
HETATM   16  C13 UNL     1      27.867   0.695  53.597  1.00  0.00     0.073 A 
BRANCH  13  17
HETATM   17  O2  UNL     1      28.493  -3.317  52.816  1.00  0.00    -0.361 OA
HETATM   18  H11 UNL     1      28.211  -3.989  53.547  1.00  0.00     0.217 HD
ENDBRANCH  13  17
BRANCH  16  19
HETATM   19  O3  UNL     1      27.761   2.063  53.883  1.00  0.00    -0.360 OA
HETATM   20  H14 UNL     1      27.016   2.618  53.499  1.00  0.00     0.217 HD
ENDBRANCH  16  19
ENDBRANCH  10  11
ENDBRANCH   8  10
ENDBRANCH   4   8
BRANCH   1  21
HETATM   21  C2  UNL     1      24.642   6.881  49.887  1.00  0.00     0.250 C 
HETATM   22  N1  UNL     1      23.283   7.158  49.574  1.00  0.00    -0.361 N 
HETATM   23  C1  UNL     1      22.751   8.497  49.510  1.00  0.00     0.149 C 
HETATM   24  H4  UNL     1      22.643   6.360  49.383  1.00  0.00     0.162 HD
HETATM   25  O1  UNL     1      25.298   7.949  50.094  1.00  0.00    -0.268 OA
ENDBRANCH   1  21
BRANCH   7  26
HETATM   26  O4  UNL     1      27.417   6.297  49.325  1.00  0.00    -0.387 OA
HETATM   27  H18 UNL     1      27.090   7.126  48.874  1.00  0.00     0.210 HD
ENDBRANCH   7  26
TORSDOF 7
ENDMDL
MODEL 6
REMARK VINA RESULT:      -7.5      2.385      7.761
REMARK  7 active torsions:
REMARK  status: ('A' for Active; 'I' for Inactive)
REMARK       I    between atoms: N1_2  and  C2_3 
REMARK    1  A    between atoms: C2_3  and  C3_5 
REMARK    2  A    between atoms: C6_8  and  N2_9 
REMARK    3  A    between atoms: N2_9  and  C7_10 
REMARK    4  A    between atoms: C7_10  and  C8_11 
REMARK    5  A    between atoms: C10_13  and  O2_14 
REMARK    6  A    between atoms: C13_17  and  O3_18 
REMARK    7  A    between atoms: C16_21  and  O4_22 
ROOT
HETATM    1  C3  UNL     1      25.327  -0.242  54.181  1.00  0.00     0.042 A 
HETATM    2  C4  UNL     1      24.724   0.599  53.367  1.00  0.00     0.028 A 
HETATM    3  C5  UNL     1      23.272   0.615  53.243  1.00  0.00    -0.021 A 
HETATM    4  C6  UNL     1      22.643   1.445  52.438  1.00  0.00     0.094 C 
HETATM    5  C14 UNL     1      22.462  -0.310  54.028  1.00  0.00     0.011 A 
HETATM    6  C15 UNL     1      23.175  -1.105  54.808  1.00  0.00     0.010 A 
HETATM    7  C16 UNL     1      24.619  -1.230  55.031  1.00  0.00     0.179 A 
ENDROOT
BRANCH   4   8
HETATM    8  N2  UNL     1      21.238   1.547  52.239  1.00  0.00    -0.394 N 
HETATM    9  H7  UNL     1      20.905   2.178  53.017  1.00  0.00     0.159 HD
BRANCH   8  10
HETATM   10  C7  UNL     1      20.586   0.859  51.147  1.00  0.00     0.160 C 
BRANCH  10  11
HETATM   11  C8  UNL     1      19.313   0.244  51.541  1.00  0.00    -0.005 A 
HETATM   12  C9  UNL     1      18.963  -0.415  52.700  1.00  0.00     0.048 A 
HETATM   13  C10 UNL     1      17.691  -0.924  52.866  1.00  0.00     0.066 A 
HETATM   14  C11 UNL     1      16.724  -0.792  51.881  1.00  0.00     0.039 A 
HETATM   15  C12 UNL     1      17.058  -0.137  50.722  1.00  0.00     0.040 A 
HETATM   16  C13 UNL     1      18.343   0.381  50.546  1.00  0.00     0.073 A 
BRANCH  13  17
HETATM   17  O2  UNL     1      17.556  -1.553  54.116  1.00  0.00    -0.361 OA
HETATM   18  H11 UNL     1      18.092  -1.177  54.914  1.00  0.00     0.217 HD
ENDBRANCH  13  17
BRANCH  16  19
HETATM   19  O3  UNL     1      18.508   1.014  49.307  1.00  0.00    -0.360 OA
HETATM   20  H14 UNL     1      17.827   1.669  48.964  1.00  0.00     0.217 HD
ENDBRANCH  16  19
ENDBRANCH  10  11
ENDBRANCH   8  10
ENDBRANCH   4   8
BRANCH   1  21
HETATM   21  C2  UNL     1      26.781  -0.226  54.277  1.00  0.00     0.250 C 
HETATM   22  N1  UNL     1      27.674  -1.007  53.493  1.00  0.00    -0.361 N 
HETATM   23  C1  UNL     1      29.108  -0.942  53.640  1.00  0.00     0.149 C 
HETATM   24  H4  UNL     1      27.277  -1.654  52.781  1.00  0.00     0.162 HD
HETATM   25  O1  UNL     1      27.408   0.512  55.098  1.00  0.00    -0.268 OA
ENDBRANCH   1  21
BRANCH   7  26
HETATM   26  O4  UNL     1      25.003  -1.135  56.367  1.00  0.00    -0.387 OA
HETATM   27  H18 UNL     1      24.680  -0.249  56.696  1.00  0.00     0.210 HD
ENDBRANCH   7  26
TORSDOF 7
ENDMDL
MODEL 7
REMARK VINA RESULT:      -7.5      4.131      7.814
REMARK  7 active torsions:
REMARK  status: ('A' for Active; 'I' for Inactive)
REMARK       I    between atoms: N1_2  and  C2_3 
REMARK    1  A    between atoms: C2_3  and  C3_5 
REMARK    2  A    between atoms: C6_8  and  N2_9 
REMARK    3  A    between atoms: N2_9  and  C7_10 
REMARK    4  A    between atoms: C7_10  and  C8_11 
REMARK    5  A    between atoms: C10_13  and  O2_14 
REMARK    6  A    between atoms: C13_17  and  O3_18 
REMARK    7  A    between atoms: C16_21  and  O4_22 
ROOT
HETATM    1  C3  UNL     1      26.383   5.923  49.211  1.00  0.00     0.042 A 
HETATM    2  C4  UNL     1      25.246   5.750  49.852  1.00  0.00     0.028 A 
HETATM    3  C5  UNL     1      24.783   4.418  50.218  1.00  0.00    -0.021 A 
HETATM    4  C6  UNL     1      23.651   4.217  50.859  1.00  0.00     0.094 C 
HETATM    5  C14 UNL     1      25.582   3.248  49.874  1.00  0.00     0.011 A 
HETATM    6  C15 UNL     1      26.701   3.542  49.232  1.00  0.00     0.010 A 
HETATM    7  C16 UNL     1      27.285   4.816  48.805  1.00  0.00     0.179 A 
ENDROOT
BRANCH   4   8
HETATM    8  N2  UNL     1      23.105   2.968  51.263  1.00  0.00    -0.394 N 
HETATM    9  H7  UNL     1      22.766   2.524  50.367  1.00  0.00     0.159 HD
BRANCH   8  10
HETATM   10  C7  UNL     1      23.106   2.567  52.653  1.00  0.00     0.160 C 
BRANCH  10  11
HETATM   11  C8  UNL     1      24.386   1.990  53.078  1.00  0.00    -0.005 A 
HETATM   12  C9  UNL     1      25.552   2.607  53.481  1.00  0.00     0.048 A 
HETATM   13  C10 UNL     1      26.655   1.862  53.843  1.00  0.00     0.066 A 
HETATM   14  C11 UNL     1      26.634   0.477  53.816  1.00  0.00     0.039 A 
HETATM   15  C12 UNL     1      25.482  -0.152  53.418  1.00  0.00     0.040 A 
HETATM   16  C13 UNL     1      24.360   0.594  53.049  1.00  0.00     0.073 A 
BRANCH  13  17
HETATM   17  O2  UNL     1      27.726   2.693  54.217  1.00  0.00    -0.361 OA
HETATM   18  H11 UNL     1      28.194   3.248  53.483  1.00  0.00     0.217 HD
ENDBRANCH  13  17
BRANCH  16  19
HETATM   19  O3  UNL     1      23.275  -0.208  52.670  1.00  0.00    -0.360 OA
HETATM   20  H14 UNL     1      23.391  -1.191  52.497  1.00  0.00     0.217 HD
ENDBRANCH  16  19
ENDBRANCH  10  11
ENDBRANCH   8  10
ENDBRANCH   4   8
BRANCH   1  21
HETATM   21  C2  UNL     1      26.812   7.272  48.864  1.00  0.00     0.250 C 
HETATM   22  N1  UNL     1      27.792   8.036  49.555  1.00  0.00    -0.361 N 
HETATM   23  C1  UNL     1      28.169   9.370  49.156  1.00  0.00     0.149 C 
HETATM   24  H4  UNL     1      28.259   7.615  50.383  1.00  0.00     0.162 HD
HETATM   25  O1  UNL     1      26.331   7.914  47.879  1.00  0.00    -0.268 OA
ENDBRANCH   1  21
BRANCH   7  26
HETATM   26  O4  UNL     1      28.591   5.025  49.243  1.00  0.00    -0.387 OA
HETATM   27  H18 UNL     1      29.069   5.497  48.504  1.00  0.00     0.210 HD
ENDBRANCH   7  26
TORSDOF 7
ENDMDL
MODEL 8
REMARK VINA RESULT:      -7.4      3.792      6.598
REMARK  7 active torsions:
REMARK  status: ('A' for Active; 'I' for Inactive)
REMARK       I    between atoms: N1_2  and  C2_3 
REMARK    1  A    between atoms: C2_3  and  C3_5 
REMARK    2  A    between atoms: C6_8  and  N2_9 
REMARK    3  A    between atoms: N2_9  and  C7_10 
REMARK    4  A    between atoms: C7_10  and  C8_11 
REMARK    5  A    between atoms: C10_13  and  O2_14 
REMARK    6  A    between atoms: C13_17  and  O3_18 
REMARK    7  A    between atoms: C16_21  and  O4_22 
ROOT
HETATM    1  C3  UNL     1      25.641   4.288  49.794  1.00  0.00     0.042 A 
HETATM    2  C4  UNL     1      26.171   3.246  50.400  1.00  0.00     0.028 A 
HETATM    3  C5  UNL     1      25.342   2.305  51.143  1.00  0.00    -0.021 A 
HETATM    4  C6  UNL     1      25.846   1.256  51.757  1.00  0.00     0.094 C 
HETATM    5  C14 UNL     1      23.901   2.509  51.224  1.00  0.00     0.011 A 
HETATM    6  C15 UNL     1      23.482   3.586  50.579  1.00  0.00     0.010 A 
HETATM    7  C16 UNL     1      24.192   4.606  49.801  1.00  0.00     0.179 A 
ENDROOT
BRANCH   4   8
HETATM    8  N2  UNL     1      25.135   0.278  52.507  1.00  0.00    -0.394 N 
HETATM    9  H7  UNL     1      24.194   0.212  52.031  1.00  0.00     0.159 HD
BRANCH   8  10
HETATM   10  C7  UNL     1      25.740  -0.376  53.646  1.00  0.00     0.160 C 
BRANCH  10  11
HETATM   11  C8  UNL     1      27.179  -0.111  53.756  1.00  0.00    -0.005 A 
HETATM   12  C9  UNL     1      27.848   1.006  54.210  1.00  0.00     0.048 A 
HETATM   13  C10 UNL     1      29.227   1.044  54.227  1.00  0.00     0.066 A 
HETATM   14  C11 UNL     1      29.986  -0.031  53.793  1.00  0.00     0.039 A 
HETATM   15  C12 UNL     1      29.335  -1.151  53.338  1.00  0.00     0.040 A 
HETATM   16  C13 UNL     1      27.939  -1.197  53.318  1.00  0.00     0.073 A 
BRANCH  13  17
HETATM   17  O2  UNL     1      29.693   2.273  54.726  1.00  0.00    -0.361 OA
HETATM   18  H11 UNL     1      29.349   3.141  54.286  1.00  0.00     0.217 HD
ENDBRANCH  13  17
BRANCH  16  19
HETATM   19  O3  UNL     1      27.444  -2.412  52.824  1.00  0.00    -0.360 OA
HETATM   20  H14 UNL     1      27.163  -3.150  53.446  1.00  0.00     0.217 HD
ENDBRANCH  16  19
ENDBRANCH  10  11
ENDBRANCH   8  10
ENDBRANCH   4   8
BRANCH   1  21
HETATM   21  C2  UNL     1      26.505   5.205  49.061  1.00  0.00     0.250 C 
HETATM   22  N1  UNL     1      27.917   5.094  48.935  1.00  0.00    -0.361 N 
HETATM   23  C1  UNL     1      28.713   6.041  48.192  1.00  0.00     0.149 C 
HETATM   24  H4  UNL     1      28.397   4.296  49.396  1.00  0.00     0.162 HD
HETATM   25  O1  UNL     1      26.061   6.224  48.447  1.00  0.00    -0.268 OA
ENDBRANCH   1  21
BRANCH   7  26
HETATM   26  O4  UNL     1      23.696   4.794  48.513  1.00  0.00    -0.387 OA
HETATM   27  H18 UNL     1      22.768   5.150  48.613  1.00  0.00     0.210 HD
ENDBRANCH   7  26
TORSDOF 7
ENDMDL
MODEL 9
REMARK VINA RESULT:      -7.3      2.336      2.856
REMARK  7 active torsions:
REMARK  status: ('A' for Active; 'I' for Inactive)
REMARK       I    between atoms: N1_2  and  C2_3 
REMARK    1  A    between atoms: C2_3  and  C3_5 
REMARK    2  A    between atoms: C6_8  and  N2_9 
REMARK    3  A    between atoms: N2_9  and  C7_10 
REMARK    4  A    between atoms: C7_10  and  C8_11 
REMARK    5  A    between atoms: C10_13  and  O2_14 
REMARK    6  A    between atoms: C13_17  and  O3_18 
REMARK    7  A    between atoms: C16_21  and  O4_22 
ROOT
HETATM    1  C3  UNL     1      20.667   2.525  52.149  1.00  0.00     0.042 A 
HETATM    2  C4  UNL     1      21.818   3.164  52.126  1.00  0.00     0.028 A 
HETATM    3  C5  UNL     1      23.037   2.538  52.622  1.00  0.00    -0.021 A 
HETATM    4  C6  UNL     1      24.200   3.154  52.609  1.00  0.00     0.094 C 
HETATM    5  C14 UNL     1      22.995   1.182  53.156  1.00  0.00     0.011 A 
HETATM    6  C15 UNL     1      21.788   0.641  53.130  1.00  0.00     0.010 A 
HETATM    7  C16 UNL     1      20.492   1.145  52.667  1.00  0.00     0.179 A 
ENDROOT
BRANCH   4   8
HETATM    8  N2  UNL     1      25.446   2.641  53.065  1.00  0.00    -0.394 N 
HETATM    9  H7  UNL     1      25.410   2.751  54.114  1.00  0.00     0.159 HD
BRANCH   8  10
HETATM   10  C7  UNL     1      26.426   2.123  52.136  1.00  0.00     0.160 C 
BRANCH  10  11
HETATM   11  C8  UNL     1      27.229   1.034  52.705  1.00  0.00    -0.005 A 
HETATM   12  C9  UNL     1      27.130  -0.331  52.532  1.00  0.00     0.048 A 
HETATM   13  C10 UNL     1      28.002  -1.187  53.172  1.00  0.00     0.066 A 
HETATM   14  C11 UNL     1      29.002  -0.713  54.006  1.00  0.00     0.039 A 
HETATM   15  C12 UNL     1      29.114   0.643  54.187  1.00  0.00     0.040 A 
HETATM   16  C13 UNL     1      28.235   1.518  53.543  1.00  0.00     0.073 A 
BRANCH  13  17
HETATM   17  O2  UNL     1      27.718  -2.527  52.854  1.00  0.00    -0.361 OA
HETATM   18  H11 UNL     1      28.353  -3.022  52.208  1.00  0.00     0.217 HD
ENDBRANCH  13  17
BRANCH  16  19
HETATM   19  O3  UNL     1      28.493   2.863  53.841  1.00  0.00    -0.360 OA
HETATM   20  H14 UNL     1      29.092   3.119  54.607  1.00  0.00     0.217 HD
ENDBRANCH  16  19
ENDBRANCH  10  11
ENDBRANCH   8  10
ENDBRANCH   4   8
BRANCH   1  21
HETATM   21  C2  UNL     1      19.471   3.186  51.643  1.00  0.00     0.250 C 
HETATM   22  N1  UNL     1      19.435   4.160  50.608  1.00  0.00    -0.361 N 
HETATM   23  C1  UNL     1      18.212   4.777  50.154  1.00  0.00     0.149 C 
HETATM   24  H4  UNL     1      20.329   4.440  50.156  1.00  0.00     0.162 HD
HETATM   25  O1  UNL     1      18.309   2.947  52.097  1.00  0.00    -0.268 OA
ENDBRANCH   1  21
BRANCH   7  26
HETATM   26  O4  UNL     1      19.853   0.322  51.742  1.00  0.00    -0.387 OA
HETATM   27  H18 UNL     1      19.993   0.737  50.844  1.00  0.00     0.210 HD
ENDBRANCH   7  26
TORSDOF 7
ENDMDL
