MODEL 1
REMARK VINA RESULT:      -7.5      0.000      0.000
REMARK  7 active torsions:
REMARK  status: ('A' for Active; 'I' for Inactive)
REMARK    1  A    between atoms: O1_2  and  C2_3 
REMARK    2  A    between atoms: C9_11  and  N2_12 
REMARK    3  A    between atoms: N2_12  and  C10_13 
REMARK    4  A    between atoms: C11_14  and  C12_15 
REMARK    5  A    between atoms: C13_16  and  C14_17 
REMARK    6  A    between atoms: C14_17  and  C15_18 
REMARK    7  A    between atoms: C15_18  and  N3_19 
ROOT
HETATM    1  C2  UNL     1      23.136  -0.715  53.833  1.00  0.00     0.069 A 
HETATM    2  C3  UNL     1      24.250  -0.977  54.598  1.00  0.00     0.039 A 
HETATM    3  C4  UNL     1      25.294  -0.092  54.496  1.00  0.00     0.040 A 
HETATM    4  C5  UNL     1      25.312   1.020  53.697  1.00  0.00     0.085 A 
HETATM    5  C6  UNL     1      24.211   1.322  52.908  1.00  0.00    -0.004 A 
HETATM    6  C7  UNL     1      23.153   0.409  53.024  1.00  0.00     0.048 A 
HETATM    7  C8  UNL     1      23.814   2.353  51.963  1.00  0.00     0.159 C 
HETATM    8  N1  UNL     1      24.766   3.311  51.550  1.00  0.00    -0.380 N 
HETATM    9  C9  UNL     1      25.907   2.844  50.828  1.00  0.00     0.308 C 
HETATM   10  N4  UNL     1      26.793   2.051  51.639  1.00  0.00    -0.238 NA
HETATM   11  C16 UNL     1      26.793   0.788  51.769  1.00  0.00     0.233 C 
HETATM   12  N5  UNL     1      27.868   0.498  52.692  1.00  0.00    -0.230 NA
HETATM   13  C17 UNL     1      27.703   1.056  53.878  1.00  0.00     0.260 C 
HETATM   14  O2  UNL     1      26.479   1.753  53.768  1.00  0.00    -0.303 OA
HETATM   15  H9  UNL     1      24.900   4.117  52.166  1.00  0.00     0.157 HD
ENDROOT
BRANCH   9  16
HETATM   16  N2  UNL     1      26.703   4.028  50.440  1.00  0.00    -0.361 N 
HETATM   17  H11 UNL     1      27.704   4.135  50.783  1.00  0.00     0.162 HD
BRANCH  16  18
HETATM   18  C10 UNL     1      26.133   5.032  49.608  1.00  0.00     0.086 C 
HETATM   19  C11 UNL     1      26.869   5.581  48.638  1.00  0.00     0.017 C 
BRANCH  19  20
HETATM   20  C12 UNL     1      28.244   5.148  48.443  1.00  0.00     0.002 C 
HETATM   21  C13 UNL     1      29.196   6.048  48.245  1.00  0.00     0.010 C 
BRANCH  21  22
HETATM   22  C14 UNL     1      28.807   7.475  48.232  1.00  0.00     0.078 C 
BRANCH  22  23
HETATM   23  C15 UNL     1      29.720   8.236  48.820  1.00  0.00    -0.001 C 
BRANCH  23  24
HETATM   24  N3  UNL     1      30.774   8.880  49.199  1.00  0.00    -0.133 NA
HETATM   25 CL1  UNL     1      30.742  10.633  49.048  1.00  0.00     0.046 Cl
ENDBRANCH  23  24
ENDBRANCH  22  23
ENDBRANCH  21  22
ENDBRANCH  19  20
ENDBRANCH  16  18
ENDBRANCH   9  16
BRANCH   1  26
HETATM   26  O1  UNL     1      22.087  -1.625  53.951  1.00  0.00    -0.356 OA
HETATM   27  C1  UNL     1      20.774  -1.153  54.221  1.00  0.00     0.210 C 
ENDBRANCH   1  26
TORSDOF 7
ENDMDL
MODEL 2
REMARK VINA RESULT:      -7.3      4.646      6.622
REMARK  7 active torsions:
REMARK  status: ('A' for Active; 'I' for Inactive)
REMARK    1  A    between atoms: O1_2  and  C2_3 
REMARK    2  A    between atoms: C9_11  and  N2_12 
REMARK    3  A    between atoms: N2_12  and  C10_13 
REMARK    4  A    between atoms: C11_14  and  C12_15 
REMARK    5  A    between atoms: C13_16  and  C14_17 
REMARK    6  A    between atoms: C14_17  and  C15_18 
REMARK    7  A    between atoms: C15_18  and  N3_19 
ROOT
HETATM    1  C2  UNL     1      19.002  -0.485  52.753  1.00  0.00     0.069 A 
HETATM    2  C3  UNL     1      18.511   0.148  51.634  1.00  0.00     0.039 A 
HETATM    3  C4  UNL     1      19.393   0.922  50.922  1.00  0.00     0.040 A 
HETATM    4  C5  UNL     1      20.711   1.110  51.239  1.00  0.00     0.085 A 
HETATM    5  C6  UNL     1      21.249   0.491  52.359  1.00  0.00    -0.004 A 
HETATM    6  C7  UNL     1      20.335  -0.295  53.075  1.00  0.00     0.048 A 
HETATM    7  C8  UNL     1      22.535   0.411  53.031  1.00  0.00     0.159 C 
HETATM    8  N1  UNL     1      23.592   1.242  52.596  1.00  0.00    -0.380 N 
HETATM    9  C9  UNL     1      23.419   2.654  52.721  1.00  0.00     0.308 C 
HETATM   10  N4  UNL     1      22.410   3.172  51.835  1.00  0.00    -0.238 NA
HETATM   11  C16 UNL     1      21.179   3.350  52.091  1.00  0.00     0.233 C 
HETATM   12  N5  UNL     1      20.607   3.880  50.874  1.00  0.00    -0.230 NA
HETATM   13  C17 UNL     1      20.721   3.061  49.844  1.00  0.00     0.260 C 
HETATM   14  O2  UNL     1      21.394   1.934  50.367  1.00  0.00    -0.303 OA
HETATM   15  H9  UNL     1      24.139   0.906  51.800  1.00  0.00     0.157 HD
ENDROOT
BRANCH   9  16
HETATM   16  N2  UNL     1      24.677   3.296  52.283  1.00  0.00    -0.361 N 
HETATM   17  H11 UNL     1      25.122   4.060  52.875  1.00  0.00     0.162 HD
BRANCH  16  18
HETATM   18  C10 UNL     1      25.299   2.896  51.066  1.00  0.00     0.086 C 
HETATM   19  C11 UNL     1      26.487   2.287  51.102  1.00  0.00     0.017 C 
BRANCH  19  20
HETATM   20  C12 UNL     1      27.132   2.038  52.381  1.00  0.00     0.002 C 
HETATM   21  C13 UNL     1      27.231   0.799  52.839  1.00  0.00     0.010 C 
BRANCH  21  22
HETATM   22  C14 UNL     1      26.669  -0.291  52.011  1.00  0.00     0.078 C 
BRANCH  22  23
HETATM   23  C15 UNL     1      27.002  -1.485  52.482  1.00  0.00    -0.001 C 
BRANCH  23  24
HETATM   24  N3  UNL     1      27.572  -2.534  52.977  1.00  0.00    -0.133 NA
HETATM   25 CL1  UNL     1      29.295  -2.427  53.314  1.00  0.00     0.046 Cl
ENDBRANCH  23  24
ENDBRANCH  22  23
ENDBRANCH  21  22
ENDBRANCH  19  20
ENDBRANCH  16  18
ENDBRANCH   9  16
BRANCH   1  26
HETATM   26  O1  UNL     1      18.090  -1.266  53.462  1.00  0.00    -0.356 OA
HETATM   27  C1  UNL     1      16.910  -1.726  52.818  1.00  0.00     0.210 C 
ENDBRANCH   1  26
TORSDOF 7
ENDMDL
MODEL 3
REMARK VINA RESULT:      -7.2      5.765      9.020
REMARK  7 active torsions:
REMARK  status: ('A' for Active; 'I' for Inactive)
REMARK    1  A    between atoms: O1_2  and  C2_3 
REMARK    2  A    between atoms: C9_11  and  N2_12 
REMARK    3  A    between atoms: N2_12  and  C10_13 
REMARK    4  A    between atoms: C11_14  and  C12_15 
REMARK    5  A    between atoms: C13_16  and  C14_17 
REMARK    6  A    between atoms: C14_17  and  C15_18 
REMARK    7  A    between atoms: C15_18  and  N3_19 
ROOT
HETATM    1  C2  UNL     1      28.373   0.825  53.888  1.00  0.00     0.069 A 
HETATM    2  C3  UNL     1      28.136   2.127  53.506  1.00  0.00     0.039 A 
HETATM    3  C4  UNL     1      26.824   2.523  53.439  1.00  0.00     0.040 A 
HETATM    4  C5  UNL     1      25.744   1.730  53.718  1.00  0.00     0.085 A 
HETATM    5  C6  UNL     1      25.936   0.411  54.106  1.00  0.00    -0.004 A 
HETATM    6  C7  UNL     1      27.282   0.022  54.171  1.00  0.00     0.048 A 
HETATM    7  C8  UNL     1      25.119  -0.729  54.487  1.00  0.00     0.159 C 
HETATM    8  N1  UNL     1      23.715  -0.645  54.353  1.00  0.00    -0.380 N 
HETATM    9  C9  UNL     1      23.183  -0.482  53.037  1.00  0.00     0.308 C 
HETATM   10  N4  UNL     1      23.493   0.801  52.466  1.00  0.00    -0.238 NA
HETATM   11  C16 UNL     1      24.482   1.096  51.725  1.00  0.00     0.233 C 
HETATM   12  N5  UNL     1      24.335   2.503  51.430  1.00  0.00    -0.230 NA
HETATM   13  C17 UNL     1      24.358   3.268  52.507  1.00  0.00     0.260 C 
HETATM   14  O2  UNL     1      24.524   2.359  53.577  1.00  0.00    -0.303 OA
HETATM   15  H9  UNL     1      23.208  -0.197  55.121  1.00  0.00     0.157 HD
ENDROOT
BRANCH   9  16
HETATM   16  N2  UNL     1      21.709  -0.504  53.148  1.00  0.00    -0.361 N 
HETATM   17  H11 UNL     1      21.170  -1.394  52.927  1.00  0.00     0.162 HD
BRANCH  16  18
HETATM   18  C10 UNL     1      21.004   0.665  53.550  1.00  0.00     0.086 C 
HETATM   19  C11 UNL     1      20.025   1.143  52.777  1.00  0.00     0.017 C 
BRANCH  19  20
HETATM   20  C12 UNL     1      19.689   0.464  51.535  1.00  0.00     0.002 C 
HETATM   21  C13 UNL     1      18.610  -0.303  51.475  1.00  0.00     0.010 C 
BRANCH  21  22
HETATM   22  C14 UNL     1      17.785  -0.433  52.696  1.00  0.00     0.078 C 
BRANCH  22  23
HETATM   23  C15 UNL     1      18.006  -1.585  53.314  1.00  0.00    -0.001 C 
BRANCH  23  24
HETATM   24  N3  UNL     1      17.959  -2.758  53.856  1.00  0.00    -0.133 NA
HETATM   25 CL1  UNL     1      16.688  -3.844  53.309  1.00  0.00     0.046 Cl
ENDBRANCH  23  24
ENDBRANCH  22  23
ENDBRANCH  21  22
ENDBRANCH  19  20
ENDBRANCH  16  18
ENDBRANCH   9  16
BRANCH   1  26
HETATM   26  O1  UNL     1      29.712   0.443  53.951  1.00  0.00    -0.356 OA
HETATM   27  C1  UNL     1      30.084  -0.876  53.576  1.00  0.00     0.210 C 
ENDBRANCH   1  26
TORSDOF 7
ENDMDL
MODEL 4
REMARK VINA RESULT:      -7.1      3.100      3.932
REMARK  7 active torsions:
REMARK  status: ('A' for Active; 'I' for Inactive)
REMARK    1  A    between atoms: O1_2  and  C2_3 
REMARK    2  A    between atoms: C9_11  and  N2_12 
REMARK    3  A    between atoms: N2_12  and  C10_13 
REMARK    4  A    between atoms: C11_14  and  C12_15 
REMARK    5  A    between atoms: C13_16  and  C14_17 
REMARK    6  A    between atoms: C14_17  and  C15_18 
REMARK    7  A    between atoms: C15_18  and  N3_19 
ROOT
HETATM    1  C2  UNL     1      23.072  -0.871  54.216  1.00  0.00     0.069 A 
HETATM    2  C3  UNL     1      24.201  -1.233  54.916  1.00  0.00     0.039 A 
HETATM    3  C4  UNL     1      25.305  -0.431  54.771  1.00  0.00     0.040 A 
HETATM    4  C5  UNL     1      25.369   0.690  53.989  1.00  0.00     0.085 A 
HETATM    5  C6  UNL     1      24.255   1.092  53.264  1.00  0.00    -0.004 A 
HETATM    6  C7  UNL     1      23.135   0.262  53.423  1.00  0.00     0.048 A 
HETATM    7  C8  UNL     1      23.892   2.168  52.356  1.00  0.00     0.159 C 
HETATM    8  N1  UNL     1      24.894   3.057  51.907  1.00  0.00    -0.380 N 
HETATM    9  C9  UNL     1      25.955   2.516  51.118  1.00  0.00     0.308 C 
HETATM   10  N4  UNL     1      26.816   1.641  51.869  1.00  0.00    -0.238 NA
HETATM   11  C16 UNL     1      26.724   0.379  51.981  1.00  0.00     0.233 C 
HETATM   12  N5  UNL     1      27.820  -0.010  52.840  1.00  0.00    -0.230 NA
HETATM   13  C17 UNL     1      27.761   0.537  54.041  1.00  0.00     0.260 C 
HETATM   14  O2  UNL     1      26.591   1.329  54.007  1.00  0.00    -0.303 OA
HETATM   15  H9  UNL     1      25.123   3.838  52.526  1.00  0.00     0.157 HD
ENDROOT
BRANCH   9  16
HETATM   16  N2  UNL     1      26.820   3.641  50.705  1.00  0.00    -0.361 N 
HETATM   17  H11 UNL     1      27.371   4.186  51.433  1.00  0.00     0.162 HD
BRANCH  16  18
HETATM   18  C10 UNL     1      26.919   4.001  49.332  1.00  0.00     0.086 C 
HETATM   19  C11 UNL     1      26.369   5.143  48.908  1.00  0.00     0.017 C 
BRANCH  19  20
HETATM   20  C12 UNL     1      25.678   6.005  49.853  1.00  0.00     0.002 C 
HETATM   21  C13 UNL     1      24.358   6.118  49.798  1.00  0.00     0.010 C 
BRANCH  21  22
HETATM   22  C14 UNL     1      23.641   5.348  48.757  1.00  0.00     0.078 C 
BRANCH  22  23
HETATM   23  C15 UNL     1      22.783   4.489  49.290  1.00  0.00    -0.001 C 
BRANCH  23  24
HETATM   24  N3  UNL     1      21.759   3.835  49.732  1.00  0.00    -0.133 NA
HETATM   25 CL1  UNL     1      20.287   4.753  50.027  1.00  0.00     0.046 Cl
ENDBRANCH  23  24
ENDBRANCH  22  23
ENDBRANCH  21  22
ENDBRANCH  19  20
ENDBRANCH  16  18
ENDBRANCH   9  16
BRANCH   1  26
HETATM   26  O1  UNL     1      21.963  -1.699  54.377  1.00  0.00    -0.356 OA
HETATM   27  C1  UNL     1      20.663  -1.190  54.114  1.00  0.00     0.210 C 
ENDBRANCH   1  26
TORSDOF 7
ENDMDL
MODEL 5
REMARK VINA RESULT:      -7.1      5.889      9.748
REMARK  7 active torsions:
REMARK  status: ('A' for Active; 'I' for Inactive)
REMARK    1  A    between atoms: O1_2  and  C2_3 
REMARK    2  A    between atoms: C9_11  and  N2_12 
REMARK    3  A    between atoms: N2_12  and  C10_13 
REMARK    4  A    between atoms: C11_14  and  C12_15 
REMARK    5  A    between atoms: C13_16  and  C14_17 
REMARK    6  A    between atoms: C14_17  and  C15_18 
REMARK    7  A    between atoms: C15_18  and  N3_19 
ROOT
HETATM    1  C2  UNL     1      27.010  -0.315  53.478  1.00  0.00     0.069 A 
HETATM    2  C3  UNL     1      27.322   0.990  53.168  1.00  0.00     0.039 A 
HETATM    3  C4  UNL     1      26.275   1.874  53.083  1.00  0.00     0.040 A 
HETATM    4  C5  UNL     1      24.958   1.558  53.280  1.00  0.00     0.085 A 
HETATM    5  C6  UNL     1      24.598   0.255  53.594  1.00  0.00    -0.004 A 
HETATM    6  C7  UNL     1      25.678  -0.635  53.677  1.00  0.00     0.048 A 
HETATM    7  C8  UNL     1      23.381  -0.487  53.880  1.00  0.00     0.159 C 
HETATM    8  N1  UNL     1      22.131   0.149  53.707  1.00  0.00    -0.380 N 
HETATM    9  C9  UNL     1      21.775   0.565  52.387  1.00  0.00     0.308 C 
HETATM   10  N4  UNL     1      22.593   1.646  51.905  1.00  0.00    -0.238 NA
HETATM   11  C16 UNL     1      23.655   1.558  51.214  1.00  0.00     0.233 C 
HETATM   12  N5  UNL     1      24.086   2.922  51.000  1.00  0.00    -0.230 NA
HETATM   13  C17 UNL     1      24.350   3.568  52.121  1.00  0.00     0.260 C 
HETATM   14  O2  UNL     1      24.091   2.622  53.139  1.00  0.00    -0.303 OA
HETATM   15  H9  UNL     1      21.801   0.727  54.484  1.00  0.00     0.157 HD
ENDROOT
BRANCH   9  16
HETATM   16  N2  UNL     1      20.406   1.120  52.450  1.00  0.00    -0.361 N 
HETATM   17  H11 UNL     1      20.136   1.788  53.233  1.00  0.00     0.162 HD
BRANCH  16  18
HETATM   18  C10 UNL     1      19.443   0.764  51.465  1.00  0.00     0.086 C 
HETATM   19  C11 UNL     1      18.545  -0.189  51.734  1.00  0.00     0.017 C 
BRANCH  19  20
HETATM   20  C12 UNL     1      18.561  -0.849  53.030  1.00  0.00     0.002 C 
HETATM   21  C13 UNL     1      17.525  -1.585  53.407  1.00  0.00     0.010 C 
BRANCH  21  22
HETATM   22  C14 UNL     1      16.383  -1.700  52.474  1.00  0.00     0.078 C 
BRANCH  22  23
HETATM   23  C15 UNL     1      15.775  -2.873  52.587  1.00  0.00    -0.001 C 
BRANCH  23  24
HETATM   24  N3  UNL     1      15.404  -4.084  52.843  1.00  0.00    -0.133 NA
HETATM   25 CL1  UNL     1      16.569  -5.127  53.649  1.00  0.00     0.046 Cl
ENDBRANCH  23  24
ENDBRANCH  22  23
ENDBRANCH  21  22
ENDBRANCH  19  20
ENDBRANCH  16  18
ENDBRANCH   9  16
BRANCH   1  26
HETATM   26  O1  UNL     1      28.087  -1.196  53.559  1.00  0.00    -0.356 OA
HETATM   27  C1  UNL     1      29.399  -0.687  53.757  1.00  0.00     0.210 C 
ENDBRANCH   1  26
TORSDOF 7
ENDMDL
MODEL 6
REMARK VINA RESULT:      -7.0      4.625      7.240
REMARK  7 active torsions:
REMARK  status: ('A' for Active; 'I' for Inactive)
REMARK    1  A    between atoms: O1_2  and  C2_3 
REMARK    2  A    between atoms: C9_11  and  N2_12 
REMARK    3  A    between atoms: N2_12  and  C10_13 
REMARK    4  A    between atoms: C11_14  and  C12_15 
REMARK    5  A    between atoms: C13_16  and  C14_17 
REMARK    6  A    between atoms: C14_17  and  C15_18 
REMARK    7  A    between atoms: C15_18  and  N3_19 
ROOT
HETATM    1  C2  UNL     1      28.436   0.769  53.729  1.00  0.00     0.069 A 
HETATM    2  C3  UNL     1      28.159   2.072  53.383  1.00  0.00     0.039 A 
HETATM    3  C4  UNL     1      26.843   2.459  53.427  1.00  0.00     0.040 A 
HETATM    4  C5  UNL     1      25.795   1.654  53.784  1.00  0.00     0.085 A 
HETATM    5  C6  UNL     1      26.028   0.333  54.141  1.00  0.00    -0.004 A 
HETATM    6  C7  UNL     1      27.377  -0.046  54.091  1.00  0.00     0.048 A 
HETATM    7  C8  UNL     1      25.253  -0.818  54.574  1.00  0.00     0.159 C 
HETATM    8  N1  UNL     1      23.842  -0.744  54.556  1.00  0.00    -0.380 N 
HETATM    9  C9  UNL     1      23.203  -0.571  53.289  1.00  0.00     0.308 C 
HETATM   10  N4  UNL     1      23.457   0.721  52.710  1.00  0.00    -0.238 NA
HETATM   11  C16 UNL     1      24.380   1.031  51.894  1.00  0.00     0.233 C 
HETATM   12  N5  UNL     1      24.199   2.441  51.628  1.00  0.00    -0.230 NA
HETATM   13  C17 UNL     1      24.304   3.194  52.708  1.00  0.00     0.260 C 
HETATM   14  O2  UNL     1      24.563   2.275  53.750  1.00  0.00    -0.303 OA
HETATM   15  H9  UNL     1      23.397  -0.308  55.367  1.00  0.00     0.157 HD
ENDROOT
BRANCH   9  16
HETATM   16  N2  UNL     1      21.743  -0.606  53.520  1.00  0.00    -0.361 N 
HETATM   17  H11 UNL     1      21.213  -1.525  53.450  1.00  0.00     0.162 HD
BRANCH  16  18
HETATM   18  C10 UNL     1      21.040   0.591  53.835  1.00  0.00     0.086 C 
HETATM   19  C11 UNL     1      19.943   0.912  53.143  1.00  0.00     0.017 C 
BRANCH  19  20
HETATM   20  C12 UNL     1      19.479   0.038  52.078  1.00  0.00     0.002 C 
HETATM   21  C13 UNL     1      19.629   0.403  50.813  1.00  0.00     0.010 C 
BRANCH  21  22
HETATM   22  C14 UNL     1      20.273   1.707  50.542  1.00  0.00     0.078 C 
BRANCH  22  23
HETATM   23  C15 UNL     1      21.234   1.599  49.635  1.00  0.00    -0.001 C 
BRANCH  23  24
HETATM   24  N3  UNL     1      21.961   1.478  48.573  1.00  0.00    -0.133 NA
HETATM   25 CL1  UNL     1      23.094   2.778  48.225  1.00  0.00     0.046 Cl
ENDBRANCH  23  24
ENDBRANCH  22  23
ENDBRANCH  21  22
ENDBRANCH  19  20
ENDBRANCH  16  18
ENDBRANCH   9  16
BRANCH   1  26
HETATM   26  O1  UNL     1      29.779   0.396  53.679  1.00  0.00    -0.356 OA
HETATM   27  C1  UNL     1      30.130  -0.977  53.763  1.00  0.00     0.210 C 
ENDBRANCH   1  26
TORSDOF 7
ENDMDL
MODEL 7
REMARK VINA RESULT:      -7.0      5.617      9.325
REMARK  7 active torsions:
REMARK  status: ('A' for Active; 'I' for Inactive)
REMARK    1  A    between atoms: O1_2  and  C2_3 
REMARK    2  A    between atoms: C9_11  and  N2_12 
REMARK    3  A    between atoms: N2_12  and  C10_13 
REMARK    4  A    between atoms: C11_14  and  C12_15 
REMARK    5  A    between atoms: C13_16  and  C14_17 
REMARK    6  A    between atoms: C14_17  and  C15_18 
REMARK    7  A    between atoms: C15_18  and  N3_19 
ROOT
HETATM    1  C2  UNL     1      28.177   0.673  53.649  1.00  0.00     0.069 A 
HETATM    2  C3  UNL     1      27.971   1.988  53.297  1.00  0.00     0.039 A 
HETATM    3  C4  UNL     1      26.675   2.438  53.313  1.00  0.00     0.040 A 
HETATM    4  C5  UNL     1      25.581   1.686  53.648  1.00  0.00     0.085 A 
HETATM    5  C6  UNL     1      25.742   0.355  54.009  1.00  0.00    -0.004 A 
HETATM    6  C7  UNL     1      27.072  -0.090  53.988  1.00  0.00     0.048 A 
HETATM    7  C8  UNL     1      24.903  -0.756  54.426  1.00  0.00     0.159 C 
HETATM    8  N1  UNL     1      23.498  -0.614  54.378  1.00  0.00    -0.380 N 
HETATM    9  C9  UNL     1      22.895  -0.411  53.099  1.00  0.00     0.308 C 
HETATM   10  N4  UNL     1      23.224   0.867  52.524  1.00  0.00    -0.238 NA
HETATM   11  C16 UNL     1      24.178   1.130  51.728  1.00  0.00     0.233 C 
HETATM   12  N5  UNL     1      24.071   2.547  51.458  1.00  0.00    -0.230 NA
HETATM   13  C17 UNL     1      24.190   3.295  52.541  1.00  0.00     0.260 C 
HETATM   14  O2  UNL     1      24.382   2.365  53.588  1.00  0.00    -0.303 OA
HETATM   15  H9  UNL     1      23.057  -0.156  55.180  1.00  0.00     0.157 HD
ENDROOT
BRANCH   9  16
HETATM   16  N2  UNL     1      21.431  -0.375  53.298  1.00  0.00    -0.361 N 
HETATM   17  H11 UNL     1      20.994  -0.858  54.139  1.00  0.00     0.162 HD
BRANCH  16  18
HETATM   18  C10 UNL     1      20.598   0.306  52.366  1.00  0.00     0.086 C 
HETATM   19  C11 UNL     1      19.298   0.007  52.302  1.00  0.00     0.017 C 
BRANCH  19  20
HETATM   20  C12 UNL     1      18.747  -1.008  53.185  1.00  0.00     0.002 C 
HETATM   21  C13 UNL     1      17.463  -1.328  53.102  1.00  0.00     0.010 C 
BRANCH  21  22
HETATM   22  C14 UNL     1      16.639  -0.622  52.096  1.00  0.00     0.078 C 
BRANCH  22  23
HETATM   23  C15 UNL     1      15.576  -0.052  52.647  1.00  0.00    -0.001 C 
BRANCH  23  24
HETATM   24  N3  UNL     1      14.653   0.418  53.420  1.00  0.00    -0.133 NA
HETATM   25 CL1  UNL     1      13.944   1.965  52.973  1.00  0.00     0.046 Cl
ENDBRANCH  23  24
ENDBRANCH  22  23
ENDBRANCH  21  22
ENDBRANCH  19  20
ENDBRANCH  16  18
ENDBRANCH   9  16
BRANCH   1  26
HETATM   26  O1  UNL     1      29.500   0.235  53.627  1.00  0.00    -0.356 OA
HETATM   27  C1  UNL     1      29.781  -1.145  53.442  1.00  0.00     0.210 C 
ENDBRANCH   1  26
TORSDOF 7
ENDMDL
MODEL 8
REMARK VINA RESULT:      -6.9      5.077      8.245
REMARK  7 active torsions:
REMARK  status: ('A' for Active; 'I' for Inactive)
REMARK    1  A    between atoms: O1_2  and  C2_3 
REMARK    2  A    between atoms: C9_11  and  N2_12 
REMARK    3  A    between atoms: N2_12  and  C10_13 
REMARK    4  A    between atoms: C11_14  and  C12_15 
REMARK    5  A    between atoms: C13_16  and  C14_17 
REMARK    6  A    between atoms: C14_17  and  C15_18 
REMARK    7  A    between atoms: C15_18  and  N3_19 
ROOT
HETATM    1  C2  UNL     1      26.517  -0.129  53.693  1.00  0.00     0.069 A 
HETATM    2  C3  UNL     1      26.681   1.235  53.594  1.00  0.00     0.039 A 
HETATM    3  C4  UNL     1      25.548   1.981  53.382  1.00  0.00     0.040 A 
HETATM    4  C5  UNL     1      24.282   1.477  53.261  1.00  0.00     0.085 A 
HETATM    5  C6  UNL     1      24.070   0.109  53.354  1.00  0.00    -0.004 A 
HETATM    6  C7  UNL     1      25.236  -0.640  53.571  1.00  0.00     0.048 A 
HETATM    7  C8  UNL     1      22.947  -0.813  53.296  1.00  0.00     0.159 C 
HETATM    8  N1  UNL     1      21.673  -0.325  52.930  1.00  0.00    -0.380 N 
HETATM    9  C9  UNL     1      21.523   0.214  51.615  1.00  0.00     0.308 C 
HETATM   10  N4  UNL     1      22.245   1.445  51.432  1.00  0.00    -0.238 NA
HETATM   11  C16 UNL     1      23.422   1.587  50.977  1.00  0.00     0.233 C 
HETATM   12  N5  UNL     1      23.675   3.010  51.002  1.00  0.00    -0.230 NA
HETATM   13  C17 UNL     1      23.613   3.530  52.216  1.00  0.00     0.260 C 
HETATM   14  O2  UNL     1      23.307   2.431  53.050  1.00  0.00    -0.303 OA
HETATM   15  H9  UNL     1      21.114   0.098  53.675  1.00  0.00     0.157 HD
ENDROOT
BRANCH   9  16
HETATM   16  N2  UNL     1      20.100   0.578  51.444  1.00  0.00    -0.361 N 
HETATM   17  H11 UNL     1      19.829   1.397  50.823  1.00  0.00     0.162 HD
BRANCH  16  18
HETATM   18  C10 UNL     1      19.086  -0.166  52.111  1.00  0.00     0.086 C 
HETATM   19  C11 UNL     1      17.904  -0.349  51.517  1.00  0.00     0.017 C 
BRANCH  19  20
HETATM   20  C12 UNL     1      17.665   0.211  50.197  1.00  0.00     0.002 C 
HETATM   21  C13 UNL     1      16.797   1.201  50.048  1.00  0.00     0.010 C 
BRANCH  21  22
HETATM   22  C14 UNL     1      16.099   1.695  51.255  1.00  0.00     0.078 C 
BRANCH  22  23
HETATM   23  C15 UNL     1      16.572   2.871  51.646  1.00  0.00    -0.001 C 
BRANCH  23  24
HETATM   24  N3  UNL     1      17.272   3.916  51.943  1.00  0.00    -0.133 NA
HETATM   25 CL1  UNL     1      18.986   3.872  51.545  1.00  0.00     0.046 Cl
ENDBRANCH  23  24
ENDBRANCH  22  23
ENDBRANCH  21  22
ENDBRANCH  19  20
ENDBRANCH  16  18
ENDBRANCH   9  16
BRANCH   1  26
HETATM   26  O1  UNL     1      27.678  -0.869  53.909  1.00  0.00    -0.356 OA
HETATM   27  C1  UNL     1      28.914  -0.195  54.105  1.00  0.00     0.210 C 
ENDBRANCH   1  26
TORSDOF 7
ENDMDL
MODEL 9
REMARK VINA RESULT:      -6.9      2.244      3.520
REMARK  7 active torsions:
REMARK  status: ('A' for Active; 'I' for Inactive)
REMARK    1  A    between atoms: O1_2  and  C2_3 
REMARK    2  A    between atoms: C9_11  and  N2_12 
REMARK    3  A    between atoms: N2_12  and  C10_13 
REMARK    4  A    between atoms: C11_14  and  C12_15 
REMARK    5  A    between atoms: C13_16  and  C14_17 
REMARK    6  A    between atoms: C14_17  and  C15_18 
REMARK    7  A    between atoms: C15_18  and  N3_19 
ROOT
HETATM    1  C2  UNL     1      21.654   0.316  52.913  1.00  0.00     0.069 A 
HETATM    2  C3  UNL     1      20.969   0.264  51.720  1.00  0.00     0.039 A 
HETATM    3  C4  UNL     1      21.549   0.887  50.644  1.00  0.00     0.040 A 
HETATM    4  C5  UNL     1      22.746   1.552  50.667  1.00  0.00     0.085 A 
HETATM    5  C6  UNL     1      23.470   1.630  51.849  1.00  0.00    -0.004 A 
HETATM    6  C7  UNL     1      22.864   0.988  52.938  1.00  0.00     0.048 A 
HETATM    7  C8  UNL     1      24.727   2.200  52.305  1.00  0.00     0.159 C 
HETATM    8  N1  UNL     1      25.460   3.037  51.433  1.00  0.00    -0.380 N 
HETATM    9  C9  UNL     1      24.852   4.263  51.024  1.00  0.00     0.308 C 
HETATM   10  N4  UNL     1      23.716   4.061  50.164  1.00  0.00    -0.238 NA
HETATM   11  C16 UNL     1      22.496   3.976  50.507  1.00  0.00     0.233 C 
HETATM   12  N5  UNL     1      21.765   3.771  49.277  1.00  0.00    -0.230 NA
HETATM   13  C17 UNL     1      22.114   2.667  48.640  1.00  0.00     0.260 C 
HETATM   14  O2  UNL     1      23.118   2.097  49.456  1.00  0.00    -0.303 OA
HETATM   15  H9  UNL     1      26.072   2.570  50.758  1.00  0.00     0.157 HD
ENDROOT
BRANCH   9  16
HETATM   16  N2  UNL     1      25.834   4.991  50.193  1.00  0.00    -0.361 N 
HETATM   17  H11 UNL     1      25.813   6.053  50.149  1.00  0.00     0.162 HD
BRANCH  16  18
HETATM   18  C10 UNL     1      26.813   4.274  49.449  1.00  0.00     0.086 C 
HETATM   19  C11 UNL     1      27.597   4.929  48.588  1.00  0.00     0.017 C 
BRANCH  19  20
HETATM   20  C12 UNL     1      27.444   6.366  48.422  1.00  0.00     0.002 C 
HETATM   21  C13 UNL     1      28.502   7.113  48.143  1.00  0.00     0.010 C 
BRANCH  21  22
HETATM   22  C14 UNL     1      29.812   6.436  48.012  1.00  0.00     0.078 C 
BRANCH  22  23
HETATM   23  C15 UNL     1      30.750   7.046  48.723  1.00  0.00    -0.001 C 
BRANCH  23  24
HETATM   24  N3  UNL     1      31.716   7.389  49.511  1.00  0.00    -0.133 NA
HETATM   25 CL1  UNL     1      33.299   7.629  48.781  1.00  0.00     0.046 Cl
ENDBRANCH  23  24
ENDBRANCH  22  23
ENDBRANCH  21  22
ENDBRANCH  19  20
ENDBRANCH  16  18
ENDBRANCH   9  16
BRANCH   1  26
HETATM   26  O1  UNL     1      21.048  -0.323  53.993  1.00  0.00    -0.356 OA
HETATM   27  C1  UNL     1      21.850  -1.007  54.946  1.00  0.00     0.210 C 
ENDBRANCH   1  26
TORSDOF 7
ENDMDL
