MODEL 1
REMARK VINA RESULT:      -7.1      0.000      0.000
REMARK  5 active torsions:
REMARK  status: ('A' for Active; 'I' for Inactive)
REMARK    1  A    between atoms: C4_4  and  C5_5 
REMARK    2  A    between atoms: C6_6  and  N1_7 
REMARK    3  A    between atoms: N1_7  and  C7_8 
REMARK    4  A    between atoms: C12_14  and  O1_15 
REMARK    5  A    between atoms: O1_15  and  C13_16 
ROOT
HETATM    1  C1  UNL     1      22.727   2.495  47.945  1.00  0.00     0.017 C 
HETATM    2  C2  UNL     1      22.968   3.322  48.798  1.00  0.00    -0.089 C 
HETATM    3  C3  UNL     1      23.259   4.296  49.817  1.00  0.00     0.063 C 
HETATM    4  C4  UNL     1      24.531   4.583  50.050  1.00  0.00     0.010 C 
ENDROOT
BRANCH   4   5
HETATM    5  C5  UNL     1      25.564   3.924  49.293  1.00  0.00     0.018 C 
HETATM    6  C6  UNL     1      26.448   3.204  49.923  1.00  0.00     0.088 C 
BRANCH   6   7
HETATM    7  N1  UNL     1      26.344   3.105  51.345  1.00  0.00    -0.365 N 
HETATM    8  H6  UNL     1      26.001   3.929  51.873  1.00  0.00     0.165 HD
BRANCH   7   9
HETATM    9  C7  UNL     1      26.586   2.139  52.365  1.00  0.00     0.046 A 
HETATM   10  C8  UNL     1      27.785   2.049  53.049  1.00  0.00     0.049 A 
HETATM   11  C9  UNL     1      27.850   1.051  54.011  1.00  0.00     0.119 A 
HETATM   12  N2  UNL     1      26.824   0.221  54.270  1.00  0.00    -0.260 NA
HETATM   13  C10 UNL     1      25.662   0.322  53.593  1.00  0.00     0.071 A 
HETATM   14  C11 UNL     1      24.619  -0.543  53.875  1.00  0.00     0.070 A 
HETATM   15  C17 UNL     1      25.517   1.293  52.616  1.00  0.00     0.021 A 
HETATM   16  C12 UNL     1      23.419  -0.462  53.199  1.00  0.00     0.088 A 
HETATM   17  C15 UNL     1      23.270   0.516  52.212  1.00  0.00     0.045 A 
HETATM   18 BR1  UNL     1      21.675   0.749  51.196  1.00  0.00    -0.048 Br
HETATM   19  C16 UNL     1      24.314   1.389  51.925  1.00  0.00     0.038 A 
BRANCH  16  20
HETATM   20  O1  UNL     1      22.305  -1.240  53.364  1.00  0.00    -0.350 OA
BRANCH  20  21
HETATM   21  C13 UNL     1      21.439  -1.240  54.457  1.00  0.00     0.171 C 
HETATM   22  C14 UNL     1      20.997   0.150  54.856  1.00  0.00     0.034 C 
ENDBRANCH  20  21
ENDBRANCH  16  20
ENDBRANCH   7   9
ENDBRANCH   6   7
ENDBRANCH   4   5
TORSDOF 5
ENDMDL
MODEL 2
REMARK VINA RESULT:      -6.7      2.845      4.830
REMARK  5 active torsions:
REMARK  status: ('A' for Active; 'I' for Inactive)
REMARK    1  A    between atoms: C4_4  and  C5_5 
REMARK    2  A    between atoms: C6_6  and  N1_7 
REMARK    3  A    between atoms: N1_7  and  C7_8 
REMARK    4  A    between atoms: C12_14  and  O1_15 
REMARK    5  A    between atoms: O1_15  and  C13_16 
ROOT
HETATM    1  C1  UNL     1      20.739   3.773  48.175  1.00  0.00     0.017 C 
HETATM    2  C2  UNL     1      21.205   2.704  48.507  1.00  0.00    -0.089 C 
HETATM    3  C3  UNL     1      21.763   1.440  48.912  1.00  0.00     0.063 C 
HETATM    4  C4  UNL     1      21.231   0.842  49.967  1.00  0.00     0.010 C 
ENDROOT
BRANCH   4   5
HETATM    5  C5  UNL     1      20.133   1.461  50.664  1.00  0.00     0.018 C 
HETATM    6  C6  UNL     1      20.287   1.799  51.911  1.00  0.00     0.088 C 
BRANCH   6   7
HETATM    7  N1  UNL     1      21.549   1.536  52.528  1.00  0.00    -0.365 N 
HETATM    8  H6  UNL     1      22.326   2.205  52.366  1.00  0.00     0.165 HD
BRANCH   7   9
HETATM    9  C7  UNL     1      22.136   0.552  53.377  1.00  0.00     0.046 A 
HETATM   10  C8  UNL     1      21.398  -0.237  54.240  1.00  0.00     0.049 A 
HETATM   11  C9  UNL     1      22.128  -1.144  54.993  1.00  0.00     0.119 A 
HETATM   12  N2  UNL     1      23.465  -1.258  54.899  1.00  0.00    -0.260 NA
HETATM   13  C10 UNL     1      24.171  -0.481  54.052  1.00  0.00     0.071 A 
HETATM   14  C11 UNL     1      25.546  -0.615  53.972  1.00  0.00     0.070 A 
HETATM   15  C17 UNL     1      23.514   0.450  53.265  1.00  0.00     0.021 A 
HETATM   16  C12 UNL     1      26.292   0.167  53.114  1.00  0.00     0.088 A 
HETATM   17  C15 UNL     1      25.632   1.107  52.319  1.00  0.00     0.045 A 
HETATM   18 BR1  UNL     1      26.527   2.256  51.089  1.00  0.00    -0.048 Br
HETATM   19  C16 UNL     1      24.250   1.246  52.395  1.00  0.00     0.038 A 
BRANCH  16  20
HETATM   20  O1  UNL     1      27.647   0.151  52.924  1.00  0.00    -0.350 OA
BRANCH  20  21
HETATM   21  C13 UNL     1      28.631   0.105  53.911  1.00  0.00     0.171 C 
HETATM   22  C14 UNL     1      29.727  -0.890  53.601  1.00  0.00     0.034 C 
ENDBRANCH  20  21
ENDBRANCH  16  20
ENDBRANCH   7   9
ENDBRANCH   6   7
ENDBRANCH   4   5
TORSDOF 5
ENDMDL
MODEL 3
REMARK VINA RESULT:      -6.4      2.303      4.540
REMARK  5 active torsions:
REMARK  status: ('A' for Active; 'I' for Inactive)
REMARK    1  A    between atoms: C4_4  and  C5_5 
REMARK    2  A    between atoms: C6_6  and  N1_7 
REMARK    3  A    between atoms: N1_7  and  C7_8 
REMARK    4  A    between atoms: C12_14  and  O1_15 
REMARK    5  A    between atoms: O1_15  and  C13_16 
ROOT
HETATM    1  C1  UNL     1      20.353   0.128  51.740  1.00  0.00     0.017 C 
HETATM    2  C2  UNL     1      20.383   1.287  52.093  1.00  0.00    -0.089 C 
HETATM    3  C3  UNL     1      20.432   2.665  52.509  1.00  0.00     0.063 C 
HETATM    4  C4  UNL     1      20.515   3.590  51.565  1.00  0.00     0.010 C 
ENDROOT
BRANCH   4   5
HETATM    5  C5  UNL     1      20.556   3.199  50.179  1.00  0.00     0.018 C 
HETATM    6  C6  UNL     1      21.676   3.308  49.525  1.00  0.00     0.088 C 
BRANCH   6   7
HETATM    7  N1  UNL     1      22.815   3.814  50.222  1.00  0.00    -0.365 N 
HETATM    8  H6  UNL     1      22.659   4.390  51.071  1.00  0.00     0.165 HD
BRANCH   7   9
HETATM    9  C7  UNL     1      24.236   3.775  50.110  1.00  0.00     0.046 A 
HETATM   10  C8  UNL     1      24.954   4.642  49.307  1.00  0.00     0.049 A 
HETATM   11  C9  UNL     1      26.330   4.465  49.316  1.00  0.00     0.119 A 
HETATM   12  N2  UNL     1      26.937   3.517  50.052  1.00  0.00    -0.260 NA
HETATM   13  C10 UNL     1      26.222   2.678  50.830  1.00  0.00     0.071 A 
HETATM   14  C11 UNL     1      26.867   1.709  51.579  1.00  0.00     0.070 A 
HETATM   15  C17 UNL     1      24.843   2.790  50.876  1.00  0.00     0.021 A 
HETATM   16  C12 UNL     1      26.161   0.839  52.383  1.00  0.00     0.088 A 
HETATM   17  C15 UNL     1      24.769   0.949  52.431  1.00  0.00     0.045 A 
HETATM   18 BR1  UNL     1      23.661  -0.180  53.494  1.00  0.00    -0.048 Br
HETATM   19  C16 UNL     1      24.115   1.921  51.681  1.00  0.00     0.038 A 
BRANCH  16  20
HETATM   20  O1  UNL     1      26.653  -0.163  53.175  1.00  0.00    -0.350 OA
BRANCH  20  21
HETATM   21  C13 UNL     1      27.424  -0.017  54.329  1.00  0.00     0.171 C 
HETATM   22  C14 UNL     1      28.892  -0.292  54.092  1.00  0.00     0.034 C 
ENDBRANCH  20  21
ENDBRANCH  16  20
ENDBRANCH   7   9
ENDBRANCH   6   7
ENDBRANCH   4   5
TORSDOF 5
ENDMDL
MODEL 4
REMARK VINA RESULT:      -6.3      1.721      2.395
REMARK  5 active torsions:
REMARK  status: ('A' for Active; 'I' for Inactive)
REMARK    1  A    between atoms: C4_4  and  C5_5 
REMARK    2  A    between atoms: C6_6  and  N1_7 
REMARK    3  A    between atoms: N1_7  and  C7_8 
REMARK    4  A    between atoms: C12_14  and  O1_15 
REMARK    5  A    between atoms: O1_15  and  C13_16 
ROOT
HETATM    1  C1  UNL     1      27.424   5.959  48.214  1.00  0.00     0.017 C 
HETATM    2  C2  UNL     1      26.510   5.680  48.961  1.00  0.00    -0.089 C 
HETATM    3  C3  UNL     1      25.420   5.342  49.839  1.00  0.00     0.063 C 
HETATM    4  C4  UNL     1      25.367   4.103  50.305  1.00  0.00     0.010 C 
ENDROOT
BRANCH   4   5
HETATM    5  C5  UNL     1      26.379   3.150  49.926  1.00  0.00     0.018 C 
HETATM    6  C6  UNL     1      26.701   2.206  50.761  1.00  0.00     0.088 C 
BRANCH   6   7
HETATM    7  N1  UNL     1      26.027   2.162  52.020  1.00  0.00    -0.365 N 
HETATM    8  H6  UNL     1      25.667   3.051  52.418  1.00  0.00     0.165 HD
BRANCH   7   9
HETATM    9  C7  UNL     1      25.657   1.192  52.998  1.00  0.00     0.046 A 
HETATM   10  C8  UNL     1      26.520   0.745  53.981  1.00  0.00     0.049 A 
HETATM   11  C9  UNL     1      25.997  -0.201  54.850  1.00  0.00     0.119 A 
HETATM   12  N2  UNL     1      24.736  -0.661  54.753  1.00  0.00    -0.260 NA
HETATM   13  C10 UNL     1      23.907  -0.214  53.787  1.00  0.00     0.071 A 
HETATM   14  C11 UNL     1      22.614  -0.701  53.705  1.00  0.00     0.070 A 
HETATM   15  C17 UNL     1      24.354   0.731  52.880  1.00  0.00     0.021 A 
HETATM   16  C12 UNL     1      21.745  -0.262  52.728  1.00  0.00     0.088 A 
HETATM   17  C15 UNL     1      22.193   0.692  51.811  1.00  0.00     0.045 A 
HETATM   18 BR1  UNL     1      21.110   1.392  50.408  1.00  0.00    -0.048 Br
HETATM   19  C16 UNL     1      23.492   1.185  51.889  1.00  0.00     0.038 A 
BRANCH  16  20
HETATM   20  O1  UNL     1      20.447  -0.645  52.521  1.00  0.00    -0.350 OA
BRANCH  20  21
HETATM   21  C13 UNL     1      19.346  -0.344  53.322  1.00  0.00     0.171 C 
HETATM   22  C14 UNL     1      18.262  -1.396  53.249  1.00  0.00     0.034 C 
ENDBRANCH  20  21
ENDBRANCH  16  20
ENDBRANCH   7   9
ENDBRANCH   6   7
ENDBRANCH   4   5
TORSDOF 5
ENDMDL
MODEL 5
REMARK VINA RESULT:      -6.0      2.721      4.528
REMARK  5 active torsions:
REMARK  status: ('A' for Active; 'I' for Inactive)
REMARK    1  A    between atoms: C4_4  and  C5_5 
REMARK    2  A    between atoms: C6_6  and  N1_7 
REMARK    3  A    between atoms: N1_7  and  C7_8 
REMARK    4  A    between atoms: C12_14  and  O1_15 
REMARK    5  A    between atoms: O1_15  and  C13_16 
ROOT
HETATM    1  C1  UNL     1      24.789   7.039  47.956  1.00  0.00     0.017 C 
HETATM    2  C2  UNL     1      25.006   6.642  49.080  1.00  0.00    -0.089 C 
HETATM    3  C3  UNL     1      25.255   6.175  50.420  1.00  0.00     0.063 C 
HETATM    4  C4  UNL     1      24.350   5.382  50.974  1.00  0.00     0.010 C 
ENDROOT
BRANCH   4   5
HETATM    5  C5  UNL     1      23.168   5.018  50.235  1.00  0.00     0.018 C 
HETATM    6  C6  UNL     1      22.579   3.889  50.504  1.00  0.00     0.088 C 
BRANCH   6   7
HETATM    7  N1  UNL     1      23.140   3.064  51.526  1.00  0.00    -0.365 N 
HETATM    8  H6  UNL     1      23.909   3.451  52.106  1.00  0.00     0.165 HD
BRANCH   7   9
HETATM    9  C7  UNL     1      22.963   1.750  52.052  1.00  0.00     0.046 A 
HETATM   10  C8  UNL     1      21.748   1.090  52.039  1.00  0.00     0.049 A 
HETATM   11  C9  UNL     1      21.753  -0.182  52.593  1.00  0.00     0.119 A 
HETATM   12  N2  UNL     1      22.859  -0.746  53.110  1.00  0.00    -0.260 NA
HETATM   13  C10 UNL     1      24.037  -0.089  53.115  1.00  0.00     0.071 A 
HETATM   14  C11 UNL     1      25.163  -0.688  53.652  1.00  0.00     0.070 A 
HETATM   15  C17 UNL     1      24.115   1.186  52.580  1.00  0.00     0.021 A 
HETATM   16  C12 UNL     1      26.380  -0.039  53.670  1.00  0.00     0.088 A 
HETATM   17  C15 UNL     1      26.461   1.248  53.132  1.00  0.00     0.045 A 
HETATM   18 BR1  UNL     1      28.070   2.268  53.086  1.00  0.00    -0.048 Br
HETATM   19  C16 UNL     1      25.333   1.856  52.590  1.00  0.00     0.038 A 
BRANCH  16  20
HETATM   20  O1  UNL     1      27.572  -0.497  54.163  1.00  0.00    -0.350 OA
BRANCH  20  21
HETATM   21  C13 UNL     1      28.512  -1.276  53.489  1.00  0.00     0.171 C 
HETATM   22  C14 UNL     1      29.937  -0.861  53.783  1.00  0.00     0.034 C 
ENDBRANCH  20  21
ENDBRANCH  16  20
ENDBRANCH   7   9
ENDBRANCH   6   7
ENDBRANCH   4   5
TORSDOF 5
ENDMDL
MODEL 6
REMARK VINA RESULT:      -5.9      2.752      3.620
REMARK  5 active torsions:
REMARK  status: ('A' for Active; 'I' for Inactive)
REMARK    1  A    between atoms: C4_4  and  C5_5 
REMARK    2  A    between atoms: C6_6  and  N1_7 
REMARK    3  A    between atoms: N1_7  and  C7_8 
REMARK    4  A    between atoms: C12_14  and  O1_15 
REMARK    5  A    between atoms: O1_15  and  C13_16 
ROOT
HETATM    1  C1  UNL     1      28.473   6.632  47.851  1.00  0.00     0.017 C 
HETATM    2  C2  UNL     1      27.408   6.489  48.411  1.00  0.00    -0.089 C 
HETATM    3  C3  UNL     1      26.139   6.311  49.067  1.00  0.00     0.063 C 
HETATM    4  C4  UNL     1      25.811   5.088  49.455  1.00  0.00     0.010 C 
ENDROOT
BRANCH   4   5
HETATM    5  C5  UNL     1      26.716   3.994  49.213  1.00  0.00     0.018 C 
HETATM    6  C6  UNL     1      26.694   2.968  50.014  1.00  0.00     0.088 C 
BRANCH   6   7
HETATM    7  N1  UNL     1      25.765   2.982  51.100  1.00  0.00    -0.365 N 
HETATM    8  H6  UNL     1      25.454   3.899  51.471  1.00  0.00     0.165 HD
BRANCH   7   9
HETATM    9  C7  UNL     1      25.064   2.044  51.914  1.00  0.00     0.046 A 
HETATM   10  C8  UNL     1      25.598   1.497  53.066  1.00  0.00     0.049 A 
HETATM   11  C9  UNL     1      24.779   0.601  53.737  1.00  0.00     0.119 A 
HETATM   12  N2  UNL     1      23.547   0.277  53.306  1.00  0.00    -0.260 NA
HETATM   13  C10 UNL     1      23.041   0.819  52.179  1.00  0.00     0.071 A 
HETATM   14  C11 UNL     1      21.770   0.472  51.753  1.00  0.00     0.070 A 
HETATM   15  C17 UNL     1      23.796   1.723  51.452  1.00  0.00     0.021 A 
HETATM   16  C12 UNL     1      21.228   1.011  50.605  1.00  0.00     0.088 A 
HETATM   17  C15 UNL     1      21.988   1.923  49.869  1.00  0.00     0.045 A 
HETATM   18 BR1  UNL     1      21.374   2.749  48.265  1.00  0.00    -0.048 Br
HETATM   19  C16 UNL     1      23.265   2.277  50.292  1.00  0.00     0.038 A 
BRANCH  16  20
HETATM   20  O1  UNL     1      19.996   0.767  50.061  1.00  0.00    -0.350 OA
BRANCH  20  21
HETATM   21  C13 UNL     1      18.763   1.188  50.558  1.00  0.00     0.171 C 
HETATM   22  C14 UNL     1      17.629   0.262  50.177  1.00  0.00     0.034 C 
ENDBRANCH  20  21
ENDBRANCH  16  20
ENDBRANCH   7   9
ENDBRANCH   6   7
ENDBRANCH   4   5
TORSDOF 5
ENDMDL
MODEL 7
REMARK VINA RESULT:      -5.8      2.838      4.687
REMARK  5 active torsions:
REMARK  status: ('A' for Active; 'I' for Inactive)
REMARK    1  A    between atoms: C4_4  and  C5_5 
REMARK    2  A    between atoms: C6_6  and  N1_7 
REMARK    3  A    between atoms: N1_7  and  C7_8 
REMARK    4  A    between atoms: C12_14  and  O1_15 
REMARK    5  A    between atoms: O1_15  and  C13_16 
ROOT
HETATM    1  C1  UNL     1      21.160   7.873  50.707  1.00  0.00     0.017 C 
HETATM    2  C2  UNL     1      21.969   6.982  50.851  1.00  0.00    -0.089 C 
HETATM    3  C3  UNL     1      22.927   5.924  51.035  1.00  0.00     0.063 C 
HETATM    4  C4  UNL     1      22.476   4.748  51.445  1.00  0.00     0.010 C 
ENDROOT
BRANCH   4   5
HETATM    5  C5  UNL     1      21.069   4.567  51.692  1.00  0.00     0.018 C 
HETATM    6  C6  UNL     1      20.619   3.370  51.935  1.00  0.00     0.088 C 
BRANCH   6   7
HETATM    7  N1  UNL     1      21.554   2.289  51.943  1.00  0.00    -0.365 N 
HETATM    8  H6  UNL     1      22.300   2.276  51.222  1.00  0.00     0.165 HD
BRANCH   7   9
HETATM    9  C7  UNL     1      21.811   1.109  52.701  1.00  0.00     0.046 A 
HETATM   10  C8  UNL     1      20.820   0.406  53.360  1.00  0.00     0.049 A 
HETATM   11  C9  UNL     1      21.245  -0.720  54.051  1.00  0.00     0.119 A 
HETATM   12  N2  UNL     1      22.532  -1.111  54.086  1.00  0.00    -0.260 NA
HETATM   13  C10 UNL     1      23.486  -0.412  53.437  1.00  0.00     0.071 A 
HETATM   14  C11 UNL     1      24.804  -0.831  53.486  1.00  0.00     0.070 A 
HETATM   15  C17 UNL     1      23.143   0.724  52.724  1.00  0.00     0.021 A 
HETATM   16  C12 UNL     1      25.801  -0.137  52.832  1.00  0.00     0.088 A 
HETATM   17  C15 UNL     1      25.457   1.010  52.113  1.00  0.00     0.045 A 
HETATM   18 BR1  UNL     1      26.722   2.072  51.161  1.00  0.00    -0.048 Br
HETATM   19  C16 UNL     1      24.134   1.437  52.060  1.00  0.00     0.038 A 
BRANCH  16  20
HETATM   20  O1  UNL     1      27.138  -0.425  52.788  1.00  0.00    -0.350 OA
BRANCH  20  21
HETATM   21  C13 UNL     1      28.066  -0.254  53.815  1.00  0.00     0.171 C 
HETATM   22  C14 UNL     1      27.541   0.606  54.943  1.00  0.00     0.034 C 
ENDBRANCH  20  21
ENDBRANCH  16  20
ENDBRANCH   7   9
ENDBRANCH   6   7
ENDBRANCH   4   5
TORSDOF 5
ENDMDL
MODEL 8
REMARK VINA RESULT:      -5.8      2.832      4.232
REMARK  5 active torsions:
REMARK  status: ('A' for Active; 'I' for Inactive)
REMARK    1  A    between atoms: C4_4  and  C5_5 
REMARK    2  A    between atoms: C6_6  and  N1_7 
REMARK    3  A    between atoms: N1_7  and  C7_8 
REMARK    4  A    between atoms: C12_14  and  O1_15 
REMARK    5  A    between atoms: O1_15  and  C13_16 
ROOT
HETATM    1  C1  UNL     1      22.637   6.105  47.677  1.00  0.00     0.017 C 
HETATM    2  C2  UNL     1      23.480   5.452  48.253  1.00  0.00    -0.089 C 
HETATM    3  C3  UNL     1      24.491   4.685  48.934  1.00  0.00     0.063 C 
HETATM    4  C4  UNL     1      24.959   5.161  50.078  1.00  0.00     0.010 C 
ENDROOT
BRANCH   4   5
HETATM    5  C5  UNL     1      24.454   6.407  50.595  1.00  0.00     0.018 C 
HETATM    6  C6  UNL     1      23.900   6.424  51.773  1.00  0.00     0.088 C 
BRANCH   6   7
HETATM    7  N1  UNL     1      23.822   5.195  52.497  1.00  0.00    -0.365 N 
HETATM    8  H6  UNL     1      24.486   5.040  53.280  1.00  0.00     0.165 HD
BRANCH   7   9
HETATM    9  C7  UNL     1      23.047   3.998  52.484  1.00  0.00     0.046 A 
HETATM   10  C8  UNL     1      21.683   3.985  52.259  1.00  0.00     0.049 A 
HETATM   11  C9  UNL     1      21.085   2.733  52.281  1.00  0.00     0.119 A 
HETATM   12  N2  UNL     1      21.776   1.601  52.505  1.00  0.00    -0.260 NA
HETATM   13  C10 UNL     1      23.107   1.631  52.723  1.00  0.00     0.071 A 
HETATM   14  C11 UNL     1      23.798   0.453  52.951  1.00  0.00     0.070 A 
HETATM   15  C17 UNL     1      23.777   2.842  52.717  1.00  0.00     0.021 A 
HETATM   16  C12 UNL     1      25.158   0.455  53.176  1.00  0.00     0.088 A 
HETATM   17  C15 UNL     1      25.838   1.675  53.172  1.00  0.00     0.045 A 
HETATM   18 BR1  UNL     1      27.713   1.836  53.467  1.00  0.00    -0.048 Br
HETATM   19  C16 UNL     1      25.149   2.862  52.942  1.00  0.00     0.038 A 
BRANCH  16  20
HETATM   20  O1  UNL     1      25.974  -0.619  53.415  1.00  0.00    -0.350 OA
BRANCH  20  21
HETATM   21  C13 UNL     1      26.446  -1.537  52.477  1.00  0.00     0.171 C 
HETATM   22  C14 UNL     1      27.717  -2.226  52.920  1.00  0.00     0.034 C 
ENDBRANCH  20  21
ENDBRANCH  16  20
ENDBRANCH   7   9
ENDBRANCH   6   7
ENDBRANCH   4   5
TORSDOF 5
ENDMDL
MODEL 9
REMARK VINA RESULT:      -5.6      2.812      4.756
REMARK  5 active torsions:
REMARK  status: ('A' for Active; 'I' for Inactive)
REMARK    1  A    between atoms: C4_4  and  C5_5 
REMARK    2  A    between atoms: C6_6  and  N1_7 
REMARK    3  A    between atoms: N1_7  and  C7_8 
REMARK    4  A    between atoms: C12_14  and  O1_15 
REMARK    5  A    between atoms: O1_15  and  C13_16 
ROOT
HETATM    1  C1  UNL     1      19.503   9.330  50.099  1.00  0.00     0.017 C 
HETATM    2  C2  UNL     1      20.327   8.747  49.428  1.00  0.00    -0.089 C 
HETATM    3  C3  UNL     1      21.316   8.059  48.639  1.00  0.00     0.063 C 
HETATM    4  C4  UNL     1      22.016   7.101  49.227  1.00  0.00     0.010 C 
ENDROOT
BRANCH   4   5
HETATM    5  C5  UNL     1      21.774   6.783  50.611  1.00  0.00     0.018 C 
HETATM    6  C6  UNL     1      22.281   5.691  51.106  1.00  0.00     0.088 C 
BRANCH   6   7
HETATM    7  N1  UNL     1      23.059   4.859  50.243  1.00  0.00    -0.365 N 
HETATM    8  H6  UNL     1      22.565   4.292  49.528  1.00  0.00     0.165 HD
BRANCH   7   9
HETATM    9  C7  UNL     1      24.430   4.529  50.032  1.00  0.00     0.046 A 
HETATM   10  C8  UNL     1      25.272   5.279  49.232  1.00  0.00     0.049 A 
HETATM   11  C9  UNL     1      26.576   4.815  49.137  1.00  0.00     0.119 A 
HETATM   12  N2  UNL     1      27.005   3.712  49.777  1.00  0.00    -0.260 NA
HETATM   13  C10 UNL     1      26.170   2.992  50.554  1.00  0.00     0.071 A 
HETATM   14  C11 UNL     1      26.632   1.859  51.203  1.00  0.00     0.070 A 
HETATM   15  C17 UNL     1      24.852   3.389  50.700  1.00  0.00     0.021 A 
HETATM   16  C12 UNL     1      25.800   1.105  52.004  1.00  0.00     0.088 A 
HETATM   17  C15 UNL     1      24.469   1.503  52.152  1.00  0.00     0.045 A 
HETATM   18 BR1  UNL     1      23.204   0.563  53.224  1.00  0.00    -0.048 Br
HETATM   19  C16 UNL     1      24.000   2.640  51.503  1.00  0.00     0.038 A 
BRANCH  16  20
HETATM   20  O1  UNL     1      26.108  -0.030  52.704  1.00  0.00    -0.350 OA
BRANCH  20  21
HETATM   21  C13 UNL     1      27.362  -0.401  53.188  1.00  0.00     0.171 C 
HETATM   22  C14 UNL     1      27.637   0.131  54.577  1.00  0.00     0.034 C 
ENDBRANCH  20  21
ENDBRANCH  16  20
ENDBRANCH   7   9
ENDBRANCH   6   7
ENDBRANCH   4   5
TORSDOF 5
ENDMDL
