MODEL 1
REMARK VINA RESULT:      -7.6      0.000      0.000
REMARK  4 active torsions:
REMARK  status: ('A' for Active; 'I' for Inactive)
REMARK    1  A    between atoms: O1_2  and  C2_3 
REMARK    2  A    between atoms: C5_6  and  C6_7 
REMARK    3  A    between atoms: C10_13  and  N3_14 
REMARK    4  A    between atoms: C10_13  and  O2_15 
ROOT
HETATM    1  C6  UNL     1      24.033   0.378  52.940  1.00  0.00     0.065 C 
HETATM    2  N1  UNL     1      24.065   1.182  51.829  1.00  0.00    -0.282 NA
HETATM    3  C7  UNL     1      25.270   1.797  51.378  1.00  0.00     0.372 C 
HETATM    4  N2  UNL     1      26.085   1.886  52.303  1.00  0.00     0.048 NA
HETATM    5  C8  UNL     1      27.340   2.310  52.638  1.00  0.00     0.675 C 
HETATM    6  C9  UNL     1      27.899   1.261  53.317  1.00  0.00     0.100 C 
HETATM    7  C10 UNL     1      27.701  -0.191  53.856  1.00  0.00     0.267 C 
HETATM    8  C12 UNL     1      26.205  -0.333  54.048  1.00  0.00     0.069 C 
HETATM    9  C13 UNL     1      24.848  -0.389  54.106  1.00  0.00     0.107 C 
ENDROOT
BRANCH   1  10
HETATM   10  C5  UNL     1      22.596  -0.062  53.080  1.00  0.00    -0.033 A 
HETATM   11  C4  UNL     1      21.554   0.440  52.304  1.00  0.00     0.012 A 
HETATM   12  C3  UNL     1      20.211   0.085  52.479  1.00  0.00     0.037 A 
HETATM   13  C2  UNL     1      19.798  -0.818  53.471  1.00  0.00     0.068 A 
HETATM   14  C15 UNL     1      20.894  -1.281  54.208  1.00  0.00     0.037 A 
HETATM   15  C14 UNL     1      22.175  -0.941  54.034  1.00  0.00     0.012 A 
BRANCH  13  16
HETATM   16  O1  UNL     1      18.501  -0.989  53.463  1.00  0.00    -0.356 OA
HETATM   17  C1  UNL     1      17.829  -2.215  53.519  1.00  0.00     0.210 C 
ENDBRANCH  13  16
ENDBRANCH   1  10
BRANCH   7  18
HETATM   18  N3  UNL     1      28.362  -0.191  55.146  1.00  0.00     0.114 N 
HETATM   19  H9  UNL     1      28.197  -1.071  55.671  1.00  0.00     0.316 HD
HETATM   20  H10 UNL     1      29.353   0.092  55.109  1.00  0.00     0.316 HD
ENDBRANCH   7  18
BRANCH   7  21
HETATM   21  O2  UNL     1      28.236  -1.114  53.068  1.00  0.00    -0.357 OA
HETATM   22  C11 UNL     1      29.563  -1.338  53.319  1.00  0.00     0.204 C 
ENDBRANCH   7  21
TORSDOF 4
ENDMDL
MODEL 2
REMARK VINA RESULT:      -7.5      3.505      6.704
REMARK  4 active torsions:
REMARK  status: ('A' for Active; 'I' for Inactive)
REMARK    1  A    between atoms: O1_2  and  C2_3 
REMARK    2  A    between atoms: C5_6  and  C6_7 
REMARK    3  A    between atoms: C10_13  and  N3_14 
REMARK    4  A    between atoms: C10_13  and  O2_15 
ROOT
HETATM    1  C6  UNL     1      25.331   2.468  51.452  1.00  0.00     0.065 C 
HETATM    2  N1  UNL     1      24.103   2.815  51.956  1.00  0.00    -0.282 NA
HETATM    3  C7  UNL     1      23.410   1.988  52.889  1.00  0.00     0.372 C 
HETATM    4  N2  UNL     1      23.806   0.819  52.810  1.00  0.00     0.048 NA
HETATM    5  C8  UNL     1      23.651  -0.440  53.318  1.00  0.00     0.675 C 
HETATM    6  C9  UNL     1      24.922  -0.875  53.579  1.00  0.00     0.100 C 
HETATM    7  C10 UNL     1      26.446  -0.535  53.538  1.00  0.00     0.267 C 
HETATM    8  C12 UNL     1      26.586   0.489  52.430  1.00  0.00     0.069 C 
HETATM    9  C13 UNL     1      26.593   1.461  51.479  1.00  0.00     0.107 C 
ENDROOT
BRANCH   1  10
HETATM   10  C5  UNL     1      25.712   3.586  50.511  1.00  0.00    -0.033 A 
HETATM   11  C4  UNL     1      26.837   3.555  49.690  1.00  0.00     0.012 A 
HETATM   12  C3  UNL     1      27.231   4.618  48.869  1.00  0.00     0.037 A 
HETATM   13  C2  UNL     1      26.513   5.823  48.807  1.00  0.00     0.068 A 
HETATM   14  C15 UNL     1      25.399   5.781  49.653  1.00  0.00     0.037 A 
HETATM   15  C14 UNL     1      25.026   4.762  50.434  1.00  0.00     0.012 A 
BRANCH  13  16
HETATM   16  O1  UNL     1      27.070   6.679  47.989  1.00  0.00    -0.356 OA
HETATM   17  C1  UNL     1      28.442   6.859  47.790  1.00  0.00     0.210 C 
ENDBRANCH  13  16
ENDBRANCH   1  10
BRANCH   7  18
HETATM   18  N3  UNL     1      27.082  -1.776  53.141  1.00  0.00     0.114 N 
HETATM   19  H9  UNL     1      27.371  -1.765  52.143  1.00  0.00     0.316 HD
HETATM   20  H10 UNL     1      27.821  -2.093  53.785  1.00  0.00     0.316 HD
ENDBRANCH   7  18
BRANCH   7  21
HETATM   21  O2  UNL     1      26.919  -0.133  54.710  1.00  0.00    -0.357 OA
HETATM   22  C11 UNL     1      28.251   0.184  54.676  1.00  0.00     0.204 C 
ENDBRANCH   7  21
TORSDOF 4
ENDMDL
MODEL 3
REMARK VINA RESULT:      -7.4      3.551      6.509
REMARK  4 active torsions:
REMARK  status: ('A' for Active; 'I' for Inactive)
REMARK    1  A    between atoms: O1_2  and  C2_3 
REMARK    2  A    between atoms: C5_6  and  C6_7 
REMARK    3  A    between atoms: C10_13  and  N3_14 
REMARK    4  A    between atoms: C10_13  and  O2_15 
ROOT
HETATM    1  C6  UNL     1      25.376   2.481  51.521  1.00  0.00     0.065 C 
HETATM    2  N1  UNL     1      24.155   2.826  52.042  1.00  0.00    -0.282 NA
HETATM    3  C7  UNL     1      23.461   1.984  52.960  1.00  0.00     0.372 C 
HETATM    4  N2  UNL     1      23.846   0.814  52.852  1.00  0.00     0.048 NA
HETATM    5  C8  UNL     1      23.684  -0.455  53.332  1.00  0.00     0.675 C 
HETATM    6  C9  UNL     1      24.953  -0.906  53.574  1.00  0.00     0.100 C 
HETATM    7  C10 UNL     1      26.479  -0.579  53.531  1.00  0.00     0.267 C 
HETATM    8  C12 UNL     1      26.621   0.469  52.446  1.00  0.00     0.069 C 
HETATM    9  C13 UNL     1      26.631   1.462  51.517  1.00  0.00     0.107 C 
ENDROOT
BRANCH   1  10
HETATM   10  C5  UNL     1      25.761   3.616  50.603  1.00  0.00    -0.033 A 
HETATM   11  C4  UNL     1      25.005   4.775  50.449  1.00  0.00     0.012 A 
HETATM   12  C3  UNL     1      25.323   5.798  49.547  1.00  0.00     0.037 A 
HETATM   13  C2  UNL     1      26.447   5.735  48.709  1.00  0.00     0.068 A 
HETATM   14  C15 UNL     1      27.158   4.548  48.920  1.00  0.00     0.037 A 
HETATM   15  C14 UNL     1      26.850   3.575  49.784  1.00  0.00     0.012 A 
BRANCH  13  16
HETATM   16  O1  UNL     1      26.540   6.789  47.939  1.00  0.00    -0.356 OA
HETATM   17  C1  UNL     1      25.600   7.820  47.834  1.00  0.00     0.210 C 
ENDBRANCH  13  16
ENDBRANCH   1  10
BRANCH   7  18
HETATM   18  N3  UNL     1      27.102  -1.815  53.102  1.00  0.00     0.114 N 
HETATM   19  H9  UNL     1      26.679  -2.646  53.559  1.00  0.00     0.316 HD
HETATM   20  H10 UNL     1      27.195  -1.905  52.080  1.00  0.00     0.316 HD
ENDBRANCH   7  18
BRANCH   7  21
HETATM   21  O2  UNL     1      26.963  -0.207  54.709  1.00  0.00    -0.357 OA
HETATM   22  C11 UNL     1      28.294   0.116  54.670  1.00  0.00     0.204 C 
ENDBRANCH   7  21
TORSDOF 4
ENDMDL
MODEL 4
REMARK VINA RESULT:      -6.9      2.996      6.974
REMARK  4 active torsions:
REMARK  status: ('A' for Active; 'I' for Inactive)
REMARK    1  A    between atoms: O1_2  and  C2_3 
REMARK    2  A    between atoms: C5_6  and  C6_7 
REMARK    3  A    between atoms: C10_13  and  N3_14 
REMARK    4  A    between atoms: C10_13  and  O2_15 
ROOT
HETATM    1  C6  UNL     1      23.909   1.442  52.682  1.00  0.00     0.065 C 
HETATM    2  N1  UNL     1      22.989   0.432  52.557  1.00  0.00    -0.282 NA
HETATM    3  C7  UNL     1      21.633   0.687  52.197  1.00  0.00     0.372 C 
HETATM    4  N2  UNL     1      21.326   1.855  52.463  1.00  0.00     0.048 NA
HETATM    5  C8  UNL     1      20.314   2.772  52.420  1.00  0.00     0.675 C 
HETATM    6  C9  UNL     1      20.875   3.893  51.872  1.00  0.00     0.100 C 
HETATM    7  C10 UNL     1      22.167   4.545  51.285  1.00  0.00     0.267 C 
HETATM    8  C12 UNL     1      23.311   3.795  51.936  1.00  0.00     0.069 C 
HETATM    9  C13 UNL     1      24.262   3.009  52.508  1.00  0.00     0.107 C 
ENDROOT
BRANCH   1  10
HETATM   10  C5  UNL     1      25.201   0.767  53.074  1.00  0.00    -0.033 A 
HETATM   11  C4  UNL     1      25.815   0.934  54.314  1.00  0.00     0.012 A 
HETATM   12  C3  UNL     1      27.048   0.365  54.654  1.00  0.00     0.037 A 
HETATM   13  C2  UNL     1      27.779  -0.431  53.758  1.00  0.00     0.068 A 
HETATM   14  C15 UNL     1      27.103  -0.556  52.539  1.00  0.00     0.037 A 
HETATM   15  C14 UNL     1      25.924  -0.012  52.220  1.00  0.00     0.012 A 
BRANCH  13  16
HETATM   16  O1  UNL     1      28.906  -0.842  54.281  1.00  0.00    -0.356 OA
HETATM   17  C1  UNL     1      30.124  -0.989  53.608  1.00  0.00     0.210 C 
ENDBRANCH  13  16
ENDBRANCH   1  10
BRANCH   7  18
HETATM   18  N3  UNL     1      22.136   5.910  51.773  1.00  0.00     0.114 N 
HETATM   19  H9  UNL     1      21.766   5.971  52.742  1.00  0.00     0.316 HD
HETATM   20  H10 UNL     1      23.016   6.426  51.631  1.00  0.00     0.316 HD
ENDBRANCH   7  18
BRANCH   7  21
HETATM   21  O2  UNL     1      22.197   4.534  49.959  1.00  0.00    -0.357 OA
HETATM   22  C11 UNL     1      22.451   3.295  49.434  1.00  0.00     0.204 C 
ENDBRANCH   7  21
TORSDOF 4
ENDMDL
MODEL 5
REMARK VINA RESULT:      -6.7      1.702      2.170
REMARK  4 active torsions:
REMARK  status: ('A' for Active; 'I' for Inactive)
REMARK    1  A    between atoms: O1_2  and  C2_3 
REMARK    2  A    between atoms: C5_6  and  C6_7 
REMARK    3  A    between atoms: C10_13  and  N3_14 
REMARK    4  A    between atoms: C10_13  and  O2_15 
ROOT
HETATM    1  C6  UNL     1      24.661   1.184  52.072  1.00  0.00     0.065 C 
HETATM    2  N1  UNL     1      25.231   1.961  51.095  1.00  0.00    -0.282 NA
HETATM    3  C7  UNL     1      26.604   2.345  51.141  1.00  0.00     0.372 C 
HETATM    4  N2  UNL     1      27.030   2.292  52.301  1.00  0.00     0.048 NA
HETATM    5  C8  UNL     1      28.131   2.485  53.086  1.00  0.00     0.675 C 
HETATM    6  C9  UNL     1      28.218   1.358  53.857  1.00  0.00     0.100 C 
HETATM    7  C10 UNL     1      27.593  -0.031  54.204  1.00  0.00     0.267 C 
HETATM    8  C12 UNL     1      26.128   0.101  53.840  1.00  0.00     0.069 C 
HETATM    9  C13 UNL     1      24.854   0.292  53.405  1.00  0.00     0.107 C 
ENDROOT
BRANCH   1  10
HETATM   10  C5  UNL     1      23.218   1.012  51.663  1.00  0.00    -0.033 A 
HETATM   11  C4  UNL     1      22.667   1.580  50.517  1.00  0.00     0.012 A 
HETATM   12  C3  UNL     1      21.313   1.480  50.172  1.00  0.00     0.037 A 
HETATM   13  C2  UNL     1      20.387   0.790  50.969  1.00  0.00     0.068 A 
HETATM   14  C15 UNL     1      21.010   0.246  52.098  1.00  0.00     0.037 A 
HETATM   15  C14 UNL     1      22.303   0.343  52.421  1.00  0.00     0.012 A 
BRANCH  13  16
HETATM   16  O1  UNL     1      19.180   0.839  50.465  1.00  0.00    -0.356 OA
HETATM   17  C1  UNL     1      18.648   1.879  49.696  1.00  0.00     0.210 C 
ENDBRANCH  13  16
ENDBRANCH   1  10
BRANCH   7  18
HETATM   18  N3  UNL     1      27.732  -0.140  55.643  1.00  0.00     0.114 N 
HETATM   19  H9  UNL     1      28.515  -0.766  55.914  1.00  0.00     0.316 HD
HETATM   20  H10 UNL     1      27.734   0.766  56.134  1.00  0.00     0.316 HD
ENDBRANCH   7  18
BRANCH   7  21
HETATM   21  O2  UNL     1      28.211  -1.041  53.607  1.00  0.00    -0.357 OA
HETATM   22  C11 UNL     1      29.576  -0.941  53.647  1.00  0.00     0.204 C 
ENDBRANCH   7  21
TORSDOF 4
ENDMDL
MODEL 6
REMARK VINA RESULT:      -6.6      8.298     10.773
REMARK  4 active torsions:
REMARK  status: ('A' for Active; 'I' for Inactive)
REMARK    1  A    between atoms: O1_2  and  C2_3 
REMARK    2  A    between atoms: C5_6  and  C6_7 
REMARK    3  A    between atoms: C10_13  and  N3_14 
REMARK    4  A    between atoms: C10_13  and  O2_15 
ROOT
HETATM    1  C6  UNL     1      31.212   6.910  48.167  1.00  0.00     0.065 C 
HETATM    2  N1  UNL     1      31.337   7.986  47.325  1.00  0.00    -0.282 NA
HETATM    3  C7  UNL     1      32.612   8.491  46.931  1.00  0.00     0.372 C 
HETATM    4  N2  UNL     1      33.479   8.165  47.750  1.00  0.00     0.048 NA
HETATM    5  C8  UNL     1      34.810   8.253  48.048  1.00  0.00     0.675 C 
HETATM    6  C9  UNL     1      35.191   6.973  48.345  1.00  0.00     0.100 C 
HETATM    7  C10 UNL     1      34.745   5.483  48.481  1.00  0.00     0.267 C 
HETATM    8  C12 UNL     1      33.263   5.548  48.790  1.00  0.00     0.069 C 
HETATM    9  C13 UNL     1      31.926   5.710  48.979  1.00  0.00     0.107 C 
ENDROOT
BRANCH   1  10
HETATM   10  C5  UNL     1      29.727   6.700  48.338  1.00  0.00    -0.033 A 
HETATM   11  C4  UNL     1      29.124   5.445  48.387  1.00  0.00     0.012 A 
HETATM   12  C3  UNL     1      27.741   5.249  48.476  1.00  0.00     0.037 A 
HETATM   13  C2  UNL     1      26.834   6.319  48.519  1.00  0.00     0.068 A 
HETATM   14  C15 UNL     1      27.508   7.544  48.467  1.00  0.00     0.037 A 
HETATM   15  C14 UNL     1      28.830   7.726  48.385  1.00  0.00     0.012 A 
BRANCH  13  16
HETATM   16  O1  UNL     1      25.594   5.903  48.584  1.00  0.00    -0.356 OA
HETATM   17  C1  UNL     1      25.138   4.771  49.266  1.00  0.00     0.210 C 
ENDBRANCH  13  16
ENDBRANCH   1  10
BRANCH   7  18
HETATM   18  N3  UNL     1      35.465   4.994  49.640  1.00  0.00     0.114 N 
HETATM   19  H9  UNL     1      35.427   5.662  50.435  1.00  0.00     0.316 HD
HETATM   20  H10 UNL     1      35.234   4.024  49.900  1.00  0.00     0.316 HD
ENDBRANCH   7  18
BRANCH   7  21
HETATM   21  O2  UNL     1      35.044   4.753  47.415  1.00  0.00    -0.357 OA
HETATM   22  C11 UNL     1      34.792   3.417  47.585  1.00  0.00     0.204 C 
ENDBRANCH   7  21
TORSDOF 4
ENDMDL
MODEL 7
REMARK VINA RESULT:      -6.5      3.931      5.540
REMARK  4 active torsions:
REMARK  status: ('A' for Active; 'I' for Inactive)
REMARK    1  A    between atoms: O1_2  and  C2_3 
REMARK    2  A    between atoms: C5_6  and  C6_7 
REMARK    3  A    between atoms: C10_13  and  N3_14 
REMARK    4  A    between atoms: C10_13  and  O2_15 
ROOT
HETATM    1  C6  UNL     1      23.577   2.911  50.235  1.00  0.00     0.065 C 
HETATM    2  N1  UNL     1      22.755   2.753  49.148  1.00  0.00    -0.282 NA
HETATM    3  C7  UNL     1      22.744   3.684  48.068  1.00  0.00     0.372 C 
HETATM    4  N2  UNL     1      23.176   4.782  48.438  1.00  0.00     0.048 NA
HETATM    5  C8  UNL     1      23.454   6.058  48.033  1.00  0.00     0.675 C 
HETATM    6  C9  UNL     1      24.717   6.308  48.494  1.00  0.00     0.100 C 
HETATM    7  C10 UNL     1      25.950   5.751  49.274  1.00  0.00     0.267 C 
HETATM    8  C12 UNL     1      25.378   4.702  50.206  1.00  0.00     0.069 C 
HETATM    9  C13 UNL     1      24.781   3.726  50.941  1.00  0.00     0.107 C 
ENDROOT
BRANCH   1  10
HETATM   10  C5  UNL     1      23.286   1.737  51.138  1.00  0.00    -0.033 A 
HETATM   11  C4  UNL     1      22.089   1.024  51.117  1.00  0.00     0.012 A 
HETATM   12  C3  UNL     1      21.789  -0.020  52.000  1.00  0.00     0.037 A 
HETATM   13  C2  UNL     1      22.684  -0.436  52.998  1.00  0.00     0.068 A 
HETATM   14  C15 UNL     1      23.860   0.321  52.959  1.00  0.00     0.037 A 
HETATM   15  C14 UNL     1      24.142   1.315  52.112  1.00  0.00     0.012 A 
BRANCH  13  16
HETATM   16  O1  UNL     1      22.191  -1.413  53.716  1.00  0.00    -0.356 OA
HETATM   17  C1  UNL     1      20.979  -1.394  54.415  1.00  0.00     0.210 C 
ENDBRANCH  13  16
ENDBRANCH   1  10
BRANCH   7  18
HETATM   18  N3  UNL     1      26.430   6.881  50.045  1.00  0.00     0.114 N 
HETATM   19  H9  UNL     1      25.711   7.240  50.703  1.00  0.00     0.316 HD
HETATM   20  H10 UNL     1      27.353   6.731  50.479  1.00  0.00     0.316 HD
ENDBRANCH   7  18
BRANCH   7  21
HETATM   21  O2  UNL     1      26.909   5.301  48.476  1.00  0.00    -0.357 OA
HETATM   22  C11 UNL     1      27.953   6.177  48.337  1.00  0.00     0.204 C 
ENDBRANCH   7  21
TORSDOF 4
ENDMDL
MODEL 8
REMARK VINA RESULT:      -6.4      5.108      8.848
REMARK  4 active torsions:
REMARK  status: ('A' for Active; 'I' for Inactive)
REMARK    1  A    between atoms: O1_2  and  C2_3 
REMARK    2  A    between atoms: C5_6  and  C6_7 
REMARK    3  A    between atoms: C10_13  and  N3_14 
REMARK    4  A    between atoms: C10_13  and  O2_15 
ROOT
HETATM    1  C6  UNL     1      25.636   4.421  49.398  1.00  0.00     0.065 C 
HETATM    2  N1  UNL     1      24.433   4.924  48.970  1.00  0.00    -0.282 NA
HETATM    3  C7  UNL     1      23.191   4.339  49.357  1.00  0.00     0.372 C 
HETATM    4  N2  UNL     1      23.353   3.160  49.694  1.00  0.00     0.048 NA
HETATM    5  C8  UNL     1      22.716   2.040  50.148  1.00  0.00     0.675 C 
HETATM    6  C9  UNL     1      23.472   1.604  51.201  1.00  0.00     0.100 C 
HETATM    7  C10 UNL     1      24.737   1.853  52.083  1.00  0.00     0.267 C 
HETATM    8  C12 UNL     1      25.689   2.622  51.190  1.00  0.00     0.069 C 
HETATM    9  C13 UNL     1      26.433   3.378  50.340  1.00  0.00     0.107 C 
ENDROOT
BRANCH   1  10
HETATM   10  C5  UNL     1      26.689   5.303  48.772  1.00  0.00    -0.033 A 
HETATM   11  C4  UNL     1      28.020   4.923  48.610  1.00  0.00     0.012 A 
HETATM   12  C3  UNL     1      29.012   5.764  48.094  1.00  0.00     0.037 A 
HETATM   13  C2  UNL     1      28.744   7.083  47.694  1.00  0.00     0.068 A 
HETATM   14  C15 UNL     1      27.392   7.393  47.883  1.00  0.00     0.037 A 
HETATM   15  C14 UNL     1      26.448   6.585  48.374  1.00  0.00     0.012 A 
BRANCH  13  16
HETATM   16  O1  UNL     1      29.820   7.688  47.260  1.00  0.00    -0.356 OA
HETATM   17  C1  UNL     1      30.106   8.010  45.929  1.00  0.00     0.210 C 
ENDBRANCH  13  16
ENDBRANCH   1  10
BRANCH   7  18
HETATM   18  N3  UNL     1      25.267   0.527  52.336  1.00  0.00     0.114 N 
HETATM   19  H9  UNL     1      25.861   0.188  51.555  1.00  0.00     0.316 HD
HETATM   20  H10 UNL     1      25.699   0.419  53.265  1.00  0.00     0.316 HD
ENDBRANCH   7  18
BRANCH   7  21
HETATM   21  O2  UNL     1      24.459   2.461  53.229  1.00  0.00    -0.357 OA
HETATM   22  C11 UNL     1      24.021   3.748  53.066  1.00  0.00     0.204 C 
ENDBRANCH   7  21
TORSDOF 4
ENDMDL
MODEL 9
REMARK VINA RESULT:      -6.4      5.167      9.293
REMARK  4 active torsions:
REMARK  status: ('A' for Active; 'I' for Inactive)
REMARK    1  A    between atoms: O1_2  and  C2_3 
REMARK    2  A    between atoms: C5_6  and  C6_7 
REMARK    3  A    between atoms: C10_13  and  N3_14 
REMARK    4  A    between atoms: C10_13  and  O2_15 
ROOT
HETATM    1  C6  UNL     1      26.030   4.227  49.579  1.00  0.00     0.065 C 
HETATM    2  N1  UNL     1      26.917   3.387  50.203  1.00  0.00    -0.282 NA
HETATM    3  C7  UNL     1      26.481   2.299  51.016  1.00  0.00     0.372 C 
HETATM    4  N2  UNL     1      25.331   2.498  51.426  1.00  0.00     0.048 NA
HETATM    5  C8  UNL     1      24.318   1.975  52.179  1.00  0.00     0.675 C 
HETATM    6  C9  UNL     1      23.199   2.097  51.401  1.00  0.00     0.100 C 
HETATM    7  C10 UNL     1      22.613   2.574  50.034  1.00  0.00     0.267 C 
HETATM    8  C12 UNL     1      23.552   3.668  49.569  1.00  0.00     0.069 C 
HETATM    9  C13 UNL     1      24.497   4.573  49.201  1.00  0.00     0.107 C 
ENDROOT
BRANCH   1  10
HETATM   10  C5  UNL     1      26.877   5.231  48.835  1.00  0.00    -0.033 A 
HETATM   11  C4  UNL     1      28.227   5.040  48.547  1.00  0.00     0.012 A 
HETATM   12  C3  UNL     1      29.031   5.998  47.918  1.00  0.00     0.037 A 
HETATM   13  C2  UNL     1      28.536   7.250  47.524  1.00  0.00     0.068 A 
HETATM   14  C15 UNL     1      27.178   7.370  47.842  1.00  0.00     0.037 A 
HETATM   15  C14 UNL     1      26.414   6.451  48.441  1.00  0.00     0.012 A 
BRANCH  13  16
HETATM   16  O1  UNL     1      29.465   7.989  46.973  1.00  0.00    -0.356 OA
HETATM   17  C1  UNL     1      30.833   7.943  47.257  1.00  0.00     0.210 C 
ENDBRANCH  13  16
ENDBRANCH   1  10
BRANCH   7  18
HETATM   18  N3  UNL     1      21.325   3.147  50.374  1.00  0.00     0.114 N 
HETATM   19  H9  UNL     1      20.934   2.739  51.246  1.00  0.00     0.316 HD
HETATM   20  H10 UNL     1      21.305   4.177  50.351  1.00  0.00     0.316 HD
ENDBRANCH   7  18
BRANCH   7  21
HETATM   21  O2  UNL     1      22.458   1.586  49.163  1.00  0.00    -0.357 OA
HETATM   22  C11 UNL     1      21.166   1.143  49.071  1.00  0.00     0.204 C 
ENDBRANCH   7  21
TORSDOF 4
ENDMDL
