MODEL 1
REMARK VINA RESULT:      -8.4      0.000      0.000
REMARK  5 active torsions:
REMARK  status: ('A' for Active; 'I' for Inactive)
REMARK    1  A    between atoms: C4_6  and  N3_7 
REMARK    2  A    between atoms: N3_7  and  C5_8 
REMARK    3  A    between atoms: C12_16  and  C13_17 
REMARK    4  A    between atoms: C13_17  and  N4_18 
REMARK       I    between atoms: N4_18  and  C14_19 
REMARK    5  A    between atoms: C14_19  and  C15_21 
ROOT
HETATM    1  N1  UNL     1      28.735  -2.251  53.360  1.00  0.00    -0.192 NA
HETATM    2  C1  UNL     1      28.010  -1.347  53.183  1.00  0.00     0.097 C 
HETATM    3  C2  UNL     1      27.122  -0.216  52.982  1.00  0.00     0.044 A 
HETATM    4  C3  UNL     1      27.700   0.915  52.621  1.00  0.00     0.137 A 
HETATM    5  N2  UNL     1      26.889   2.060  52.408  1.00  0.00    -0.242 NA
HETATM    6  C4  UNL     1      25.612   1.980  52.568  1.00  0.00     0.134 A 
HETATM    7  C11 UNL     1      24.934   0.754  52.966  1.00  0.00    -0.009 A 
HETATM    8  C12 UNL     1      23.615   0.679  53.131  1.00  0.00     0.004 C 
HETATM    9  C19 UNL     1      25.693  -0.498  53.213  1.00  0.00     0.093 A 
ENDROOT
BRANCH   6  10
HETATM   10  N3  UNL     1      24.856   3.165  52.340  1.00  0.00    -0.341 N 
HETATM   11  H2  UNL     1      24.614   3.769  53.154  1.00  0.00     0.167 HD
BRANCH  10  12
HETATM   12  C5  UNL     1      24.404   3.580  51.048  1.00  0.00     0.035 A 
HETATM   13  C6  UNL     1      24.705   4.880  50.699  1.00  0.00     0.029 A 
HETATM   14  C7  UNL     1      24.331   5.417  49.483  1.00  0.00     0.004 A 
HETATM   15  C8  UNL     1      23.629   4.627  48.576  1.00  0.00     0.019 A 
HETATM   16  C9  UNL     1      23.322   3.316  48.922  1.00  0.00     0.013 A 
HETATM   17 BR1  UNL     1      22.364   2.174  47.735  1.00  0.00    -0.051 Br
HETATM   18  C10 UNL     1      23.702   2.776  50.154  1.00  0.00     0.048 A 
ENDBRANCH  10  12
ENDBRANCH   6  10
BRANCH   8  19
HETATM   19  C13 UNL     1      22.900  -0.548  53.532  1.00  0.00     0.150 C 
BRANCH  19  20
HETATM   20  N4  UNL     1      21.559  -0.641  52.941  1.00  0.00    -0.353 N 
HETATM   21  C14 UNL     1      20.603  -1.153  53.879  1.00  0.00     0.253 C 
HETATM   22  O1  UNL     1      21.138  -1.399  54.980  1.00  0.00    -0.268 OA
HETATM   23  H10 UNL     1      21.317  -0.372  51.959  1.00  0.00     0.163 HD
BRANCH  21  24
HETATM   24  C15 UNL     1      19.216  -1.317  53.470  1.00  0.00     0.056 A 
HETATM   25  C16 UNL     1      18.170  -2.220  53.695  1.00  0.00     0.043 A 
HETATM   26  C17 UNL     1      17.078  -1.760  52.969  1.00  0.00     0.142 A 
HETATM   27  O2  UNL     1      17.429  -0.668  52.352  1.00  0.00    -0.334 OA
HETATM   28  C18 UNL     1      18.671  -0.358  52.608  1.00  0.00     0.158 A 
ENDBRANCH  21  24
ENDBRANCH  19  20
ENDBRANCH   8  19
TORSDOF 5
ENDMDL
MODEL 2
REMARK VINA RESULT:      -8.1      4.184      7.436
REMARK  5 active torsions:
REMARK  status: ('A' for Active; 'I' for Inactive)
REMARK    1  A    between atoms: C4_6  and  N3_7 
REMARK    2  A    between atoms: N3_7  and  C5_8 
REMARK    3  A    between atoms: C12_16  and  C13_17 
REMARK    4  A    between atoms: C13_17  and  N4_18 
REMARK       I    between atoms: N4_18  and  C14_19 
REMARK    5  A    between atoms: C14_19  and  C15_21 
ROOT
HETATM    1  N1  UNL     1      28.571  -1.672  53.283  1.00  0.00    -0.192 NA
HETATM    2  C1  UNL     1      27.610  -1.014  53.149  1.00  0.00     0.097 C 
HETATM    3  C2  UNL     1      26.410  -0.216  52.971  1.00  0.00     0.044 A 
HETATM    4  C3  UNL     1      25.331  -0.650  53.596  1.00  0.00     0.137 A 
HETATM    5  N2  UNL     1      24.122   0.083  53.463  1.00  0.00    -0.242 NA
HETATM    6  C4  UNL     1      24.096   1.151  52.743  1.00  0.00     0.134 A 
HETATM    7  C11 UNL     1      25.262   1.664  52.036  1.00  0.00    -0.009 A 
HETATM    8  C12 UNL     1      25.228   2.768  51.293  1.00  0.00     0.004 C 
HETATM    9  C19 UNL     1      26.572   0.970  52.111  1.00  0.00     0.093 A 
ENDROOT
BRANCH   6  10
HETATM   10  N3  UNL     1      22.853   1.840  52.651  1.00  0.00    -0.341 N 
HETATM   11  H2  UNL     1      22.740   2.738  53.167  1.00  0.00     0.167 HD
BRANCH  10  12
HETATM   12  C5  UNL     1      21.740   1.367  51.887  1.00  0.00     0.035 A 
HETATM   13  C6  UNL     1      21.814   1.586  50.527  1.00  0.00     0.029 A 
HETATM   14  C7  UNL     1      20.812   1.184  49.666  1.00  0.00     0.004 A 
HETATM   15  C8  UNL     1      19.691   0.538  50.179  1.00  0.00     0.019 A 
HETATM   16  C9  UNL     1      19.610   0.315  51.549  1.00  0.00     0.013 A 
HETATM   17 BR1  UNL     1      18.108  -0.563  52.326  1.00  0.00    -0.051 Br
HETATM   18  C10 UNL     1      20.626   0.723  52.418  1.00  0.00     0.048 A 
ENDBRANCH  10  12
ENDBRANCH   6  10
BRANCH   8  19
HETATM   19  C13 UNL     1      26.391   3.312  50.567  1.00  0.00     0.150 C 
BRANCH  19  20
HETATM   20  N4  UNL     1      26.170   4.684  50.090  1.00  0.00    -0.353 N 
HETATM   21  C14 UNL     1      27.053   5.016  49.010  1.00  0.00     0.253 C 
HETATM   22  O1  UNL     1      27.804   4.058  48.729  1.00  0.00    -0.268 OA
HETATM   23  H10 UNL     1      25.461   5.347  50.480  1.00  0.00     0.163 HD
BRANCH  21  24
HETATM   24  C15 UNL     1      26.981   6.339  48.407  1.00  0.00     0.056 A 
HETATM   25  C16 UNL     1      27.841   7.224  47.747  1.00  0.00     0.043 A 
HETATM   26  C17 UNL     1      27.092   8.351  47.428  1.00  0.00     0.142 A 
HETATM   27  O2  UNL     1      25.876   8.167  47.859  1.00  0.00    -0.334 OA
HETATM   28  C18 UNL     1      25.750   7.006  48.441  1.00  0.00     0.158 A 
ENDBRANCH  21  24
ENDBRANCH  19  20
ENDBRANCH   8  19
TORSDOF 5
ENDMDL
MODEL 3
REMARK VINA RESULT:      -8.1      4.586      8.929
REMARK  5 active torsions:
REMARK  status: ('A' for Active; 'I' for Inactive)
REMARK    1  A    between atoms: C4_6  and  N3_7 
REMARK    2  A    between atoms: N3_7  and  C5_8 
REMARK    3  A    between atoms: C12_16  and  C13_17 
REMARK    4  A    between atoms: C13_17  and  N4_18 
REMARK       I    between atoms: N4_18  and  C14_19 
REMARK    5  A    between atoms: C14_19  and  C15_21 
ROOT
HETATM    1  N1  UNL     1      21.956   3.640  45.211  1.00  0.00    -0.192 NA
HETATM    2  C1  UNL     1      22.043   3.469  46.368  1.00  0.00     0.097 C 
HETATM    3  C2  UNL     1      22.128   3.261  47.802  1.00  0.00     0.044 A 
HETATM    4  C3  UNL     1      21.516   2.188  48.268  1.00  0.00     0.137 A 
HETATM    5  N2  UNL     1      21.559   1.927  49.662  1.00  0.00    -0.242 NA
HETATM    6  C4  UNL     1      22.191   2.732  50.446  1.00  0.00     0.134 A 
HETATM    7  C11 UNL     1      22.879   3.926  49.976  1.00  0.00    -0.009 A 
HETATM    8  C12 UNL     1      23.529   4.754  50.791  1.00  0.00     0.004 C 
HETATM    9  C19 UNL     1      22.892   4.288  48.536  1.00  0.00     0.093 A 
ENDROOT
BRANCH   6  10
HETATM   10  N3  UNL     1      22.196   2.412  51.834  1.00  0.00    -0.341 N 
HETATM   11  H2  UNL     1      21.569   2.946  52.473  1.00  0.00     0.167 HD
BRANCH  10  12
HETATM   12  C5  UNL     1      23.018   1.393  52.409  1.00  0.00     0.035 A 
HETATM   13  C6  UNL     1      22.380   0.530  53.277  1.00  0.00     0.029 A 
HETATM   14  C7  UNL     1      23.049  -0.501  53.906  1.00  0.00     0.004 A 
HETATM   15  C8  UNL     1      24.408  -0.682  53.662  1.00  0.00     0.019 A 
HETATM   16  C9  UNL     1      25.057   0.184  52.789  1.00  0.00     0.013 A 
HETATM   17 BR1  UNL     1      26.913   0.001  52.405  1.00  0.00    -0.051 Br
HETATM   18  C10 UNL     1      24.377   1.227  52.154  1.00  0.00     0.048 A 
ENDBRANCH  10  12
ENDBRANCH   6  10
BRANCH   8  19
HETATM   19  C13 UNL     1      24.235   5.969  50.345  1.00  0.00     0.150 C 
BRANCH  19  20
HETATM   20  N4  UNL     1      25.668   5.742  50.119  1.00  0.00    -0.353 N 
HETATM   21  C14 UNL     1      26.105   6.314  48.880  1.00  0.00     0.253 C 
HETATM   22  O1  UNL     1      25.161   6.873  48.282  1.00  0.00    -0.268 OA
HETATM   23  H10 UNL     1      26.303   5.226  50.772  1.00  0.00     0.163 HD
BRANCH  21  24
HETATM   24  C15 UNL     1      27.500   6.187  48.484  1.00  0.00     0.056 A 
HETATM   25  C16 UNL     1      28.520   7.017  48.005  1.00  0.00     0.043 A 
HETATM   26  C17 UNL     1      29.642   6.216  47.830  1.00  0.00     0.142 A 
HETATM   27  O2  UNL     1      29.332   4.998  48.174  1.00  0.00    -0.334 OA
HETATM   28  C18 UNL     1      28.090   4.920  48.567  1.00  0.00     0.158 A 
ENDBRANCH  21  24
ENDBRANCH  19  20
ENDBRANCH   8  19
TORSDOF 5
ENDMDL
MODEL 4
REMARK VINA RESULT:      -8.0      2.251      2.650
REMARK  5 active torsions:
REMARK  status: ('A' for Active; 'I' for Inactive)
REMARK    1  A    between atoms: C4_6  and  N3_7 
REMARK    2  A    between atoms: N3_7  and  C5_8 
REMARK    3  A    between atoms: C12_16  and  C13_17 
REMARK    4  A    between atoms: C13_17  and  N4_18 
REMARK       I    between atoms: N4_18  and  C14_19 
REMARK    5  A    between atoms: C14_19  and  C15_21 
ROOT
HETATM    1  N1  UNL     1      28.090  -0.173  55.352  1.00  0.00    -0.192 NA
HETATM    2  C1  UNL     1      27.556   0.367  54.459  1.00  0.00     0.097 C 
HETATM    3  C2  UNL     1      26.898   1.057  53.363  1.00  0.00     0.044 A 
HETATM    4  C3  UNL     1      27.675   1.808  52.604  1.00  0.00     0.137 A 
HETATM    5  N2  UNL     1      27.096   2.510  51.516  1.00  0.00    -0.242 NA
HETATM    6  C4  UNL     1      25.832   2.406  51.285  1.00  0.00     0.134 A 
HETATM    7  C11 UNL     1      24.939   1.590  52.096  1.00  0.00    -0.009 A 
HETATM    8  C12 UNL     1      23.634   1.487  51.853  1.00  0.00     0.004 C 
HETATM    9  C19 UNL     1      25.447   0.817  53.257  1.00  0.00     0.093 A 
ENDROOT
BRANCH   6  10
HETATM   10  N3  UNL     1      25.313   3.137  50.178  1.00  0.00    -0.341 N 
HETATM   11  H2  UNL     1      24.520   2.729  49.637  1.00  0.00     0.167 HD
BRANCH  10  12
HETATM   12  C5  UNL     1      25.820   4.406  49.759  1.00  0.00     0.035 A 
HETATM   13  C6  UNL     1      26.955   4.366  48.975  1.00  0.00     0.029 A 
HETATM   14  C7  UNL     1      27.556   5.515  48.499  1.00  0.00     0.004 A 
HETATM   15  C8  UNL     1      27.005   6.754  48.815  1.00  0.00     0.019 A 
HETATM   16  C9  UNL     1      25.861   6.801  49.604  1.00  0.00     0.013 A 
HETATM   17 BR1  UNL     1      25.049   8.457  50.079  1.00  0.00    -0.051 Br
HETATM   18  C10 UNL     1      25.256   5.636  50.085  1.00  0.00     0.048 A 
ENDBRANCH  10  12
ENDBRANCH   6  10
BRANCH   8  19
HETATM   19  C13 UNL     1      22.705   0.669  52.656  1.00  0.00     0.150 C 
BRANCH  19  20
HETATM   20  N4  UNL     1      21.458   0.363  51.943  1.00  0.00    -0.353 N 
HETATM   21  C14 UNL     1      20.365   0.168  52.849  1.00  0.00     0.253 C 
HETATM   22  O1  UNL     1      20.732   0.305  54.036  1.00  0.00    -0.268 OA
HETATM   23  H10 UNL     1      21.364   0.292  50.903  1.00  0.00     0.163 HD
BRANCH  21  24
HETATM   24  C15 UNL     1      19.045  -0.146  52.323  1.00  0.00     0.056 A 
HETATM   25  C16 UNL     1      18.280   0.165  51.193  1.00  0.00     0.043 A 
HETATM   26  C17 UNL     1      17.065  -0.496  51.334  1.00  0.00     0.142 A 
HETATM   27  O2  UNL     1      17.089  -1.155  52.458  1.00  0.00    -0.334 OA
HETATM   28  C18 UNL     1      18.223  -0.989  53.081  1.00  0.00     0.158 A 
ENDBRANCH  21  24
ENDBRANCH  19  20
ENDBRANCH   8  19
TORSDOF 5
ENDMDL
MODEL 5
REMARK VINA RESULT:      -8.0      3.228      6.270
REMARK  5 active torsions:
REMARK  status: ('A' for Active; 'I' for Inactive)
REMARK    1  A    between atoms: C4_6  and  N3_7 
REMARK    2  A    between atoms: N3_7  and  C5_8 
REMARK    3  A    between atoms: C12_16  and  C13_17 
REMARK    4  A    between atoms: C13_17  and  N4_18 
REMARK       I    between atoms: N4_18  and  C14_19 
REMARK    5  A    between atoms: C14_19  and  C15_21 
ROOT
HETATM    1  N1  UNL     1      22.180  -1.675  55.283  1.00  0.00    -0.192 NA
HETATM    2  C1  UNL     1      22.257  -0.989  54.336  1.00  0.00     0.097 C 
HETATM    3  C2  UNL     1      22.354  -0.159  53.149  1.00  0.00     0.044 A 
HETATM    4  C3  UNL     1      21.307  -0.177  52.345  1.00  0.00     0.137 A 
HETATM    5  N2  UNL     1      21.336   0.612  51.165  1.00  0.00    -0.242 NA
HETATM    6  C4  UNL     1      22.374   1.329  50.899  1.00  0.00     0.134 A 
HETATM    7  C11 UNL     1      23.550   1.378  51.757  1.00  0.00    -0.009 A 
HETATM    8  C12 UNL     1      24.619   2.120  51.476  1.00  0.00     0.004 C 
HETATM    9  C19 UNL     1      23.618   0.589  53.013  1.00  0.00     0.093 A 
ENDROOT
BRANCH   6  10
HETATM   10  N3  UNL     1      22.339   2.097  49.700  1.00  0.00    -0.341 N 
HETATM   11  H2  UNL     1      22.390   1.599  48.786  1.00  0.00     0.167 HD
BRANCH  10  12
HETATM   12  C5  UNL     1      22.239   3.523  49.676  1.00  0.00     0.035 A 
HETATM   13  C6  UNL     1      21.224   4.063  50.440  1.00  0.00     0.029 A 
HETATM   14  C7  UNL     1      21.008   5.425  50.511  1.00  0.00     0.004 A 
HETATM   15  C8  UNL     1      21.836   6.285  49.794  1.00  0.00     0.019 A 
HETATM   16  C9  UNL     1      22.860   5.748  49.022  1.00  0.00     0.013 A 
HETATM   17 BR1  UNL     1      24.032   6.859  48.013  1.00  0.00    -0.051 Br
HETATM   18  C10 UNL     1      23.076   4.368  48.952  1.00  0.00     0.048 A 
ENDBRANCH  10  12
ENDBRANCH   6  10
BRANCH   8  19
HETATM   19  C13 UNL     1      25.823   2.191  52.325  1.00  0.00     0.150 C 
BRANCH  19  20
HETATM   20  N4  UNL     1      26.709   1.033  52.148  1.00  0.00    -0.353 N 
HETATM   21  C14 UNL     1      27.282   0.612  53.393  1.00  0.00     0.253 C 
HETATM   22  O1  UNL     1      26.891   1.330  54.337  1.00  0.00    -0.268 OA
HETATM   23  H10 UNL     1      26.908   0.565  51.234  1.00  0.00     0.163 HD
BRANCH  21  24
HETATM   24  C15 UNL     1      28.192  -0.525  53.415  1.00  0.00     0.056 A 
HETATM   25  C16 UNL     1      29.533  -0.771  53.729  1.00  0.00     0.043 A 
HETATM   26  C17 UNL     1      29.753  -2.128  53.520  1.00  0.00     0.142 A 
HETATM   27  O2  UNL     1      28.637  -2.663  53.113  1.00  0.00    -0.334 OA
HETATM   28  C18 UNL     1      27.686  -1.773  53.032  1.00  0.00     0.158 A 
ENDBRANCH  21  24
ENDBRANCH  19  20
ENDBRANCH   8  19
TORSDOF 5
ENDMDL
MODEL 6
REMARK VINA RESULT:      -7.9      4.952      9.050
REMARK  5 active torsions:
REMARK  status: ('A' for Active; 'I' for Inactive)
REMARK    1  A    between atoms: C4_6  and  N3_7 
REMARK    2  A    between atoms: N3_7  and  C5_8 
REMARK    3  A    between atoms: C12_16  and  C13_17 
REMARK    4  A    between atoms: C13_17  and  N4_18 
REMARK       I    between atoms: N4_18  and  C14_19 
REMARK    5  A    between atoms: C14_19  and  C15_21 
ROOT
HETATM    1  N1  UNL     1      20.978   1.979  48.885  1.00  0.00    -0.192 NA
HETATM    2  C1  UNL     1      21.888   2.077  49.618  1.00  0.00     0.097 C 
HETATM    3  C2  UNL     1      23.003   2.216  50.537  1.00  0.00     0.044 A 
HETATM    4  C3  UNL     1      22.776   1.838  51.782  1.00  0.00     0.137 A 
HETATM    5  N2  UNL     1      23.824   1.948  52.732  1.00  0.00    -0.242 NA
HETATM    6  C4  UNL     1      24.972   2.411  52.371  1.00  0.00     0.134 A 
HETATM    7  C11 UNL     1      25.265   2.841  51.010  1.00  0.00    -0.009 A 
HETATM    8  C12 UNL     1      26.452   3.318  50.643  1.00  0.00     0.004 C 
HETATM    9  C19 UNL     1      24.236   2.765  49.943  1.00  0.00     0.093 A 
ENDROOT
BRANCH   6  10
HETATM   10  N3  UNL     1      25.981   2.496  53.373  1.00  0.00    -0.341 N 
HETATM   11  H2  UNL     1      25.928   3.269  54.070  1.00  0.00     0.167 HD
BRANCH  10  12
HETATM   12  C5  UNL     1      27.071   1.577  53.479  1.00  0.00     0.035 A 
HETATM   13  C6  UNL     1      28.261   2.113  53.927  1.00  0.00     0.029 A 
HETATM   14  C7  UNL     1      29.398   1.344  54.078  1.00  0.00     0.004 A 
HETATM   15  C8  UNL     1      29.349  -0.013  53.771  1.00  0.00     0.019 A 
HETATM   16  C9  UNL     1      28.153  -0.559  53.319  1.00  0.00     0.013 A 
HETATM   17 BR1  UNL     1      28.007  -2.407  52.880  1.00  0.00    -0.051 Br
HETATM   18  C10 UNL     1      27.003   0.222  53.167  1.00  0.00     0.048 A 
ENDBRANCH  10  12
ENDBRANCH   6  10
BRANCH   8  19
HETATM   19  C13 UNL     1      26.779   3.760  49.274  1.00  0.00     0.150 C 
BRANCH  19  20
HETATM   20  N4  UNL     1      26.792   5.222  49.139  1.00  0.00    -0.353 N 
HETATM   21  C14 UNL     1      27.981   5.681  48.482  1.00  0.00     0.253 C 
HETATM   22  O1  UNL     1      28.727   4.726  48.178  1.00  0.00    -0.268 OA
HETATM   23  H10 UNL     1      26.036   5.862  49.477  1.00  0.00     0.163 HD
BRANCH  21  24
HETATM   24  C15 UNL     1      28.172   7.107  48.259  1.00  0.00     0.056 A 
HETATM   25  C16 UNL     1      29.000   7.933  47.491  1.00  0.00     0.043 A 
HETATM   26  C17 UNL     1      28.633   9.244  47.771  1.00  0.00     0.142 A 
HETATM   27  O2  UNL     1      27.660   9.218  48.638  1.00  0.00    -0.334 OA
HETATM   28  C18 UNL     1      27.347   7.994  48.961  1.00  0.00     0.158 A 
ENDBRANCH  21  24
ENDBRANCH  19  20
ENDBRANCH   8  19
TORSDOF 5
ENDMDL
MODEL 7
REMARK VINA RESULT:      -7.8      5.415      9.756
REMARK  5 active torsions:
REMARK  status: ('A' for Active; 'I' for Inactive)
REMARK    1  A    between atoms: C4_6  and  N3_7 
REMARK    2  A    between atoms: N3_7  and  C5_8 
REMARK    3  A    between atoms: C12_16  and  C13_17 
REMARK    4  A    between atoms: C13_17  and  N4_18 
REMARK       I    between atoms: N4_18  and  C14_19 
REMARK    5  A    between atoms: C14_19  and  C15_21 
ROOT
HETATM    1  N1  UNL     1      21.207   4.526  47.794  1.00  0.00    -0.192 NA
HETATM    2  C1  UNL     1      22.006   4.246  48.605  1.00  0.00     0.097 C 
HETATM    3  C2  UNL     1      22.987   3.918  49.624  1.00  0.00     0.044 A 
HETATM    4  C3  UNL     1      22.503   3.501  50.780  1.00  0.00     0.137 A 
HETATM    5  N2  UNL     1      23.409   3.164  51.819  1.00  0.00    -0.242 NA
HETATM    6  C4  UNL     1      24.679   3.268  51.622  1.00  0.00     0.134 A 
HETATM    7  C11 UNL     1      25.255   3.724  50.365  1.00  0.00    -0.009 A 
HETATM    8  C12 UNL     1      26.568   3.830  50.167  1.00  0.00     0.004 C 
HETATM    9  C19 UNL     1      24.393   4.100  49.216  1.00  0.00     0.093 A 
ENDROOT
BRANCH   6  10
HETATM   10  N3  UNL     1      25.533   2.915  52.706  1.00  0.00    -0.341 N 
HETATM   11  H2  UNL     1      25.739   3.632  53.434  1.00  0.00     0.167 HD
BRANCH  10  12
HETATM   12  C5  UNL     1      26.131   1.625  52.855  1.00  0.00     0.035 A 
HETATM   13  C6  UNL     1      25.266   0.553  52.768  1.00  0.00     0.029 A 
HETATM   14  C7  UNL     1      25.703  -0.752  52.893  1.00  0.00     0.004 A 
HETATM   15  C8  UNL     1      27.055  -1.000  53.114  1.00  0.00     0.019 A 
HETATM   16  C9  UNL     1      27.931   0.076  53.203  1.00  0.00     0.013 A 
HETATM   17 BR1  UNL     1      29.794  -0.183  53.504  1.00  0.00    -0.051 Br
HETATM   18  C10 UNL     1      27.486   1.395  53.076  1.00  0.00     0.048 A 
ENDBRANCH  10  12
ENDBRANCH   6  10
BRANCH   8  19
HETATM   19  C13 UNL     1      27.181   4.287  48.906  1.00  0.00     0.150 C 
BRANCH  19  20
HETATM   20  N4  UNL     1      27.559   5.705  48.942  1.00  0.00    -0.353 N 
HETATM   21  C14 UNL     1      28.870   5.915  48.403  1.00  0.00     0.253 C 
HETATM   22  O1  UNL     1      29.383   4.840  48.028  1.00  0.00    -0.268 OA
HETATM   23  H10 UNL     1      26.958   6.477  49.313  1.00  0.00     0.163 HD
BRANCH  21  24
HETATM   24  C15 UNL     1      29.419   7.264  48.356  1.00  0.00     0.056 A 
HETATM   25  C16 UNL     1      28.991   8.543  47.984  1.00  0.00     0.043 A 
HETATM   26  C17 UNL     1      30.059   9.404  48.202  1.00  0.00     0.142 A 
HETATM   27  O2  UNL     1      31.056   8.707  48.670  1.00  0.00    -0.334 OA
HETATM   28  C18 UNL     1      30.740   7.446  48.782  1.00  0.00     0.158 A 
ENDBRANCH  21  24
ENDBRANCH  19  20
ENDBRANCH   8  19
TORSDOF 5
ENDMDL
MODEL 8
REMARK VINA RESULT:      -7.7      3.689      8.036
REMARK  5 active torsions:
REMARK  status: ('A' for Active; 'I' for Inactive)
REMARK    1  A    between atoms: C4_6  and  N3_7 
REMARK    2  A    between atoms: N3_7  and  C5_8 
REMARK    3  A    between atoms: C12_16  and  C13_17 
REMARK    4  A    between atoms: C13_17  and  N4_18 
REMARK       I    between atoms: N4_18  and  C14_19 
REMARK    5  A    between atoms: C14_19  and  C15_21 
ROOT
HETATM    1  N1  UNL     1      21.996   7.499  47.670  1.00  0.00    -0.192 NA
HETATM    2  C1  UNL     1      22.005   6.383  48.028  1.00  0.00     0.097 C 
HETATM    3  C2  UNL     1      21.995   5.004  48.483  1.00  0.00     0.044 A 
HETATM    4  C3  UNL     1      21.019   4.248  48.015  1.00  0.00     0.137 A 
HETATM    5  N2  UNL     1      20.951   2.890  48.421  1.00  0.00    -0.242 NA
HETATM    6  C4  UNL     1      21.834   2.418  49.233  1.00  0.00     0.134 A 
HETATM    7  C11 UNL     1      22.926   3.216  49.774  1.00  0.00    -0.009 A 
HETATM    8  C12 UNL     1      23.835   2.723  50.612  1.00  0.00     0.004 C 
HETATM    9  C19 UNL     1      23.085   4.647  49.411  1.00  0.00     0.093 A 
ENDROOT
BRANCH   6  10
HETATM   10  N3  UNL     1      21.709   1.048  49.601  1.00  0.00    -0.341 N 
HETATM   11  H2  UNL     1      22.163   0.326  49.002  1.00  0.00     0.167 HD
BRANCH  10  12
HETATM   12  C5  UNL     1      20.990   0.600  50.752  1.00  0.00     0.035 A 
HETATM   13  C6  UNL     1      19.615   0.615  50.641  1.00  0.00     0.029 A 
HETATM   14  C7  UNL     1      18.792   0.211  51.674  1.00  0.00     0.004 A 
HETATM   15  C8  UNL     1      19.361  -0.228  52.866  1.00  0.00     0.019 A 
HETATM   16  C9  UNL     1      20.746  -0.246  52.986  1.00  0.00     0.013 A 
HETATM   17 BR1  UNL     1      21.598  -0.832  54.585  1.00  0.00    -0.051 Br
HETATM   18  C10 UNL     1      21.576   0.165  51.938  1.00  0.00     0.048 A 
ENDBRANCH  10  12
ENDBRANCH   6  10
BRANCH   8  19
HETATM   19  C13 UNL     1      24.952   3.506  51.176  1.00  0.00     0.150 C 
BRANCH  19  20
HETATM   20  N4  UNL     1      25.577   2.849  52.331  1.00  0.00    -0.353 N 
HETATM   21  C14 UNL     1      26.890   2.369  52.018  1.00  0.00     0.253 C 
HETATM   22  O1  UNL     1      27.195   2.622  50.834  1.00  0.00    -0.268 OA
HETATM   23  H10 UNL     1      25.131   2.738  53.271  1.00  0.00     0.163 HD
BRANCH  21  24
HETATM   24  C15 UNL     1      27.667   1.686  53.044  1.00  0.00     0.056 A 
HETATM   25  C16 UNL     1      27.769   0.397  53.578  1.00  0.00     0.043 A 
HETATM   26  C17 UNL     1      28.746   0.447  54.566  1.00  0.00     0.142 A 
HETATM   27  O2  UNL     1      29.200   1.667  54.628  1.00  0.00    -0.334 OA
HETATM   28  C18 UNL     1      28.607   2.438  53.759  1.00  0.00     0.158 A 
ENDBRANCH  21  24
ENDBRANCH  19  20
ENDBRANCH   8  19
TORSDOF 5
ENDMDL
MODEL 9
REMARK VINA RESULT:      -7.6      3.401      6.609
REMARK  5 active torsions:
REMARK  status: ('A' for Active; 'I' for Inactive)
REMARK    1  A    between atoms: C4_6  and  N3_7 
REMARK    2  A    between atoms: N3_7  and  C5_8 
REMARK    3  A    between atoms: C12_16  and  C13_17 
REMARK    4  A    between atoms: C13_17  and  N4_18 
REMARK       I    between atoms: N4_18  and  C14_19 
REMARK    5  A    between atoms: C14_19  and  C15_21 
ROOT
HETATM    1  N1  UNL     1      22.595  -1.621  55.556  1.00  0.00    -0.192 NA
HETATM    2  C1  UNL     1      22.522  -0.997  54.566  1.00  0.00     0.097 C 
HETATM    3  C2  UNL     1      22.432  -0.244  53.328  1.00  0.00     0.044 A 
HETATM    4  C3  UNL     1      21.354  -0.460  52.597  1.00  0.00     0.137 A 
HETATM    5  N2  UNL     1      21.205   0.243  51.373  1.00  0.00    -0.242 NA
HETATM    6  C4  UNL     1      22.114   1.076  50.997  1.00  0.00     0.134 A 
HETATM    7  C11 UNL     1      23.318   1.345  51.771  1.00  0.00    -0.009 A 
HETATM    8  C12 UNL     1      24.254   2.205  51.377  1.00  0.00     0.004 C 
HETATM    9  C19 UNL     1      23.568   0.659  53.065  1.00  0.00     0.093 A 
ENDROOT
BRANCH   6  10
HETATM   10  N3  UNL     1      21.903   1.749  49.760  1.00  0.00    -0.341 N 
HETATM   11  H2  UNL     1      22.556   1.558  48.969  1.00  0.00     0.167 HD
BRANCH  10  12
HETATM   12  C5  UNL     1      20.843   2.681  49.535  1.00  0.00     0.035 A 
HETATM   13  C6  UNL     1      20.740   3.703  50.457  1.00  0.00     0.029 A 
HETATM   14  C7  UNL     1      19.763   4.674  50.367  1.00  0.00     0.004 A 
HETATM   15  C8  UNL     1      18.851   4.628  49.316  1.00  0.00     0.019 A 
HETATM   16  C9  UNL     1      18.948   3.601  48.384  1.00  0.00     0.013 A 
HETATM   17 BR1  UNL     1      17.736   3.470  46.920  1.00  0.00    -0.051 Br
HETATM   18  C10 UNL     1      19.938   2.618  48.479  1.00  0.00     0.048 A 
ENDBRANCH  10  12
ENDBRANCH   6  10
BRANCH   8  19
HETATM   19  C13 UNL     1      25.482   2.498  52.139  1.00  0.00     0.150 C 
BRANCH  19  20
HETATM   20  N4  UNL     1      26.487   1.434  52.026  1.00  0.00    -0.353 N 
HETATM   21  C14 UNL     1      27.169   1.216  53.267  1.00  0.00     0.253 C 
HETATM   22  O1  UNL     1      26.746   1.985  54.157  1.00  0.00    -0.268 OA
HETATM   23  H10 UNL     1      26.692   0.894  51.153  1.00  0.00     0.163 HD
BRANCH  21  24
HETATM   24  C15 UNL     1      28.205   0.195  53.347  1.00  0.00     0.056 A 
HETATM   25  C16 UNL     1      28.312  -1.187  53.158  1.00  0.00     0.043 A 
HETATM   26  C17 UNL     1      29.637  -1.526  53.410  1.00  0.00     0.142 A 
HETATM   27  O2  UNL     1      30.282  -0.439  53.728  1.00  0.00    -0.334 OA
HETATM   28  C18 UNL     1      29.495   0.602  53.707  1.00  0.00     0.158 A 
ENDBRANCH  21  24
ENDBRANCH  19  20
ENDBRANCH   8  19
TORSDOF 5
ENDMDL
