MODEL 1
REMARK VINA RESULT:      -7.8      0.000      0.000
REMARK  7 active torsions:
REMARK  status: ('A' for Active; 'I' for Inactive)
REMARK    1  A    between atoms: N1_1  and  C1_2 
REMARK    2  A    between atoms: C6_7  and  C7_8 
REMARK    3  A    between atoms: C7_8  and  C8_9 
REMARK    4  A    between atoms: C8_9  and  N2_10 
REMARK    5  A    between atoms: C8_9  and  C9_11 
REMARK       I    between atoms: C9_11  and  N3_13 
REMARK    6  A    between atoms: N3_13  and  C10_14 
REMARK    7  A    between atoms: C10_14  and  C11_15 
ROOT
HETATM    1  C8  UNL     1      25.229  -0.987  53.803  1.00  0.00     0.313 C 
ENDROOT
BRANCH   1   2
HETATM    2  C7  UNL     1      26.224  -1.178  52.711  1.00  0.00     0.086 C 
BRANCH   2   3
HETATM    3  C6  UNL     1      27.612  -0.829  53.046  1.00  0.00    -0.029 A 
HETATM    4  C1  UNL     1      28.618  -1.751  53.228  1.00  0.00     0.032 A 
HETATM    5  C2  UNL     1      29.876  -1.260  53.550  1.00  0.00     0.029 A 
HETATM    6  C3  UNL     1      30.135   0.096  53.686  1.00  0.00     0.002 A 
HETATM    7  C4  UNL     1      29.126   1.017  53.503  1.00  0.00     0.001 A 
HETATM    8  C5  UNL     1      27.857   0.533  53.179  1.00  0.00     0.009 A 
BRANCH   4   9
HETATM    9  N1  UNL     1      28.346  -3.137  53.080  1.00  0.00    -0.399 N 
HETATM   10  H1  UNL     1      28.520  -3.734  53.934  1.00  0.00     0.156 HD
HETATM   11  H2  UNL     1      27.990  -3.587  52.195  1.00  0.00     0.156 HD
ENDBRANCH   4   9
ENDBRANCH   2   3
ENDBRANCH   1   2
BRANCH   1  12
HETATM   12  N2  UNL     1      25.753  -0.640  55.082  1.00  0.00     0.092 N 
HETATM   13  H10 UNL     1      25.080  -0.793  55.858  1.00  0.00     0.313 HD
HETATM   14  H11 UNL     1      26.213   0.273  55.154  1.00  0.00     0.313 HD
ENDBRANCH   1  12
BRANCH   1  15
HETATM   15  C9  UNL     1      24.149  -0.021  53.421  1.00  0.00     0.251 C 
HETATM   16  O1  UNL     1      23.015  -0.326  53.862  1.00  0.00    -0.271 OA
HETATM   17  N3  UNL     1      24.304   1.149  52.639  1.00  0.00    -0.355 N 
HETATM   18  H12 UNL     1      25.283   1.321  52.324  1.00  0.00     0.162 HD
BRANCH  17  19
HETATM   19  C10 UNL     1      23.269   2.065  52.275  1.00  0.00     0.161 C 
BRANCH  19  20
HETATM   20  C11 UNL     1      22.818   1.957  50.869  1.00  0.00    -0.041 A 
HETATM   21  C12 UNL     1      23.315   2.702  49.824  1.00  0.00     0.009 A 
HETATM   22  C13 UNL     1      22.892   2.598  48.516  1.00  0.00     0.001 A 
HETATM   23  C14 UNL     1      21.899   1.687  48.215  1.00  0.00     0.000 A 
HETATM   24  C15 UNL     1      21.384   0.929  49.234  1.00  0.00     0.001 A 
HETATM   25  C16 UNL     1      21.823   1.046  50.553  1.00  0.00     0.009 A 
ENDBRANCH  19  20
ENDBRANCH  17  19
ENDBRANCH   1  15
TORSDOF 7
ENDMDL
MODEL 2
REMARK VINA RESULT:      -7.7      3.419      5.252
REMARK  7 active torsions:
REMARK  status: ('A' for Active; 'I' for Inactive)
REMARK    1  A    between atoms: N1_1  and  C1_2 
REMARK    2  A    between atoms: C6_7  and  C7_8 
REMARK    3  A    between atoms: C7_8  and  C8_9 
REMARK    4  A    between atoms: C8_9  and  N2_10 
REMARK    5  A    between atoms: C8_9  and  C9_11 
REMARK       I    between atoms: C9_11  and  N3_13 
REMARK    6  A    between atoms: N3_13  and  C10_14 
REMARK    7  A    between atoms: C10_14  and  C11_15 
ROOT
HETATM    1  C8  UNL     1      26.056   1.619  53.411  1.00  0.00     0.313 C 
ENDROOT
BRANCH   1   2
HETATM    2  C7  UNL     1      25.988   0.200  53.863  1.00  0.00     0.086 C 
BRANCH   2   3
HETATM    3  C6  UNL     1      24.641  -0.310  54.154  1.00  0.00    -0.029 A 
HETATM    4  C1  UNL     1      24.311  -1.017  55.289  1.00  0.00     0.032 A 
HETATM    5  C2  UNL     1      22.995  -1.438  55.412  1.00  0.00     0.029 A 
HETATM    6  C3  UNL     1      22.033  -1.172  54.448  1.00  0.00     0.002 A 
HETATM    7  C4  UNL     1      22.365  -0.465  53.313  1.00  0.00     0.001 A 
HETATM    8  C5  UNL     1      23.687  -0.036  53.180  1.00  0.00     0.009 A 
BRANCH   4   9
HETATM    9  N1  UNL     1      25.301  -1.279  56.273  1.00  0.00    -0.399 N 
HETATM   10  H1  UNL     1      26.145  -0.645  56.258  1.00  0.00     0.156 HD
HETATM   11  H2  UNL     1      25.241  -2.047  56.996  1.00  0.00     0.156 HD
ENDBRANCH   4   9
ENDBRANCH   2   3
ENDBRANCH   1   2
BRANCH   1  12
HETATM   12  N2  UNL     1      26.924   2.475  54.147  1.00  0.00     0.092 N 
HETATM   13  H10 UNL     1      27.109   3.380  53.672  1.00  0.00     0.313 HD
HETATM   14  H11 UNL     1      27.786   2.052  54.506  1.00  0.00     0.313 HD
ENDBRANCH   1  12
BRANCH   1  15
HETATM   15  C9  UNL     1      26.356   1.731  51.948  1.00  0.00     0.251 C 
HETATM   16  O1  UNL     1      26.735   0.657  51.422  1.00  0.00    -0.271 OA
HETATM   17  N3  UNL     1      26.249   2.899  51.153  1.00  0.00    -0.355 N 
HETATM   18  H12 UNL     1      25.921   3.738  51.677  1.00  0.00     0.162 HD
BRANCH  17  19
HETATM   19  C10 UNL     1      26.539   3.001  49.758  1.00  0.00     0.161 C 
BRANCH  19  20
HETATM   20  C11 UNL     1      26.718   4.386  49.266  1.00  0.00    -0.041 A 
HETATM   21  C12 UNL     1      27.850   4.858  48.642  1.00  0.00     0.009 A 
HETATM   22  C13 UNL     1      28.012   6.150  48.186  1.00  0.00     0.001 A 
HETATM   23  C14 UNL     1      26.976   7.045  48.359  1.00  0.00     0.000 A 
HETATM   24  C15 UNL     1      25.835   6.603  48.977  1.00  0.00     0.001 A 
HETATM   25  C16 UNL     1      25.685   5.293  49.433  1.00  0.00     0.009 A 
ENDBRANCH  19  20
ENDBRANCH  17  19
ENDBRANCH   1  15
TORSDOF 7
ENDMDL
MODEL 3
REMARK VINA RESULT:      -7.7      4.076      5.090
REMARK  7 active torsions:
REMARK  status: ('A' for Active; 'I' for Inactive)
REMARK    1  A    between atoms: N1_1  and  C1_2 
REMARK    2  A    between atoms: C6_7  and  C7_8 
REMARK    3  A    between atoms: C7_8  and  C8_9 
REMARK    4  A    between atoms: C8_9  and  N2_10 
REMARK    5  A    between atoms: C8_9  and  C9_11 
REMARK       I    between atoms: C9_11  and  N3_13 
REMARK    6  A    between atoms: N3_13  and  C10_14 
REMARK    7  A    between atoms: C10_14  and  C11_15 
ROOT
HETATM    1  C8  UNL     1      25.673   2.401  52.340  1.00  0.00     0.313 C 
ENDROOT
BRANCH   1   2
HETATM    2  C7  UNL     1      27.137   2.138  52.429  1.00  0.00     0.086 C 
BRANCH   2   3
HETATM    3  C6  UNL     1      27.518   0.741  52.680  1.00  0.00    -0.029 A 
HETATM    4  C1  UNL     1      28.677   0.359  53.318  1.00  0.00     0.032 A 
HETATM    5  C2  UNL     1      28.897  -1.003  53.470  1.00  0.00     0.029 A 
HETATM    6  C3  UNL     1      28.004  -1.959  53.009  1.00  0.00     0.002 A 
HETATM    7  C4  UNL     1      26.844  -1.574  52.371  1.00  0.00     0.001 A 
HETATM    8  C5  UNL     1      26.614  -0.206  52.213  1.00  0.00     0.009 A 
BRANCH   4   9
HETATM    9  N1  UNL     1      29.583   1.345  53.792  1.00  0.00    -0.399 N 
HETATM   10  H1  UNL     1      30.609   1.103  53.714  1.00  0.00     0.156 HD
HETATM   11  H2  UNL     1      29.298   2.274  54.203  1.00  0.00     0.156 HD
ENDBRANCH   4   9
ENDBRANCH   2   3
ENDBRANCH   1   2
BRANCH   1  12
HETATM   12  N2  UNL     1      25.069   3.005  53.480  1.00  0.00     0.092 N 
HETATM   13  H10 UNL     1      25.747   3.238  54.231  1.00  0.00     0.313 HD
HETATM   14  H11 UNL     1      24.235   2.541  53.854  1.00  0.00     0.313 HD
ENDBRANCH   1  12
BRANCH   1  15
HETATM   15  C9  UNL     1      25.311   3.172  51.108  1.00  0.00     0.251 C 
HETATM   16  O1  UNL     1      24.184   2.882  50.639  1.00  0.00    -0.271 OA
HETATM   17  N3  UNL     1      26.104   4.153  50.465  1.00  0.00    -0.355 N 
HETATM   18  H12 UNL     1      27.020   4.329  50.932  1.00  0.00     0.162 HD
BRANCH  17  19
HETATM   19  C10 UNL     1      25.755   4.884  49.288  1.00  0.00     0.161 C 
BRANCH  19  20
HETATM   20  C11 UNL     1      26.878   5.621  48.665  1.00  0.00    -0.041 A 
HETATM   21  C12 UNL     1      26.786   6.883  48.124  1.00  0.00     0.009 A 
HETATM   22  C13 UNL     1      27.834   7.566  47.545  1.00  0.00     0.001 A 
HETATM   23  C14 UNL     1      29.071   6.956  47.495  1.00  0.00     0.000 A 
HETATM   24  C15 UNL     1      29.195   5.698  48.027  1.00  0.00     0.001 A 
HETATM   25  C16 UNL     1      28.124   5.020  48.610  1.00  0.00     0.009 A 
ENDBRANCH  19  20
ENDBRANCH  17  19
ENDBRANCH   1  15
TORSDOF 7
ENDMDL
MODEL 4
REMARK VINA RESULT:      -7.7      2.390      3.765
REMARK  7 active torsions:
REMARK  status: ('A' for Active; 'I' for Inactive)
REMARK    1  A    between atoms: N1_1  and  C1_2 
REMARK    2  A    between atoms: C6_7  and  C7_8 
REMARK    3  A    between atoms: C7_8  and  C8_9 
REMARK    4  A    between atoms: C8_9  and  N2_10 
REMARK    5  A    between atoms: C8_9  and  C9_11 
REMARK       I    between atoms: C9_11  and  N3_13 
REMARK    6  A    between atoms: N3_13  and  C10_14 
REMARK    7  A    between atoms: C10_14  and  C11_15 
ROOT
HETATM    1  C8  UNL     1      26.185   2.520  53.105  1.00  0.00     0.313 C 
ENDROOT
BRANCH   1   2
HETATM    2  C7  UNL     1      26.576   1.612  54.219  1.00  0.00     0.086 C 
BRANCH   2   3
HETATM    3  C6  UNL     1      27.601   0.611  53.894  1.00  0.00    -0.029 A 
HETATM    4  C1  UNL     1      28.955   0.812  54.052  1.00  0.00     0.032 A 
HETATM    5  C2  UNL     1      29.795  -0.231  53.691  1.00  0.00     0.029 A 
HETATM    6  C3  UNL     1      29.319  -1.434  53.190  1.00  0.00     0.002 A 
HETATM    7  C4  UNL     1      27.964  -1.633  53.033  1.00  0.00     0.001 A 
HETATM    8  C5  UNL     1      27.110  -0.590  53.394  1.00  0.00     0.009 A 
BRANCH   4   9
HETATM    9  N1  UNL     1      29.433   2.044  54.571  1.00  0.00    -0.399 N 
HETATM   10  H1  UNL     1      28.695   2.761  54.809  1.00  0.00     0.156 HD
HETATM   11  H2  UNL     1      30.451   2.275  54.728  1.00  0.00     0.156 HD
ENDBRANCH   4   9
ENDBRANCH   2   3
ENDBRANCH   1   2
BRANCH   1  12
HETATM   12  N2  UNL     1      27.018   2.499  51.950  1.00  0.00     0.092 N 
HETATM   13  H10 UNL     1      27.024   1.582  51.463  1.00  0.00     0.313 HD
HETATM   14  H11 UNL     1      27.966   2.873  52.064  1.00  0.00     0.313 HD
ENDBRANCH   1  12
BRANCH   1  15
HETATM   15  C9  UNL     1      24.755   2.334  52.700  1.00  0.00     0.251 C 
HETATM   16  O1  UNL     1      23.995   3.260  53.074  1.00  0.00    -0.271 OA
HETATM   17  N3  UNL     1      24.222   1.248  51.963  1.00  0.00    -0.355 N 
HETATM   18  H12 UNL     1      24.931   0.533  51.693  1.00  0.00     0.162 HD
BRANCH  17  19
HETATM   19  C10 UNL     1      22.856   1.074  51.582  1.00  0.00     0.161 C 
BRANCH  19  20
HETATM   20  C11 UNL     1      22.069   0.208  52.490  1.00  0.00    -0.041 A 
HETATM   21  C12 UNL     1      20.696   0.200  52.573  1.00  0.00     0.009 A 
HETATM   22  C13 UNL     1      19.966  -0.608  53.420  1.00  0.00     0.001 A 
HETATM   23  C14 UNL     1      20.647  -1.475  54.251  1.00  0.00     0.000 A 
HETATM   24  C15 UNL     1      22.016  -1.490  54.191  1.00  0.00     0.001 A 
HETATM   25  C16 UNL     1      22.740  -0.667  53.328  1.00  0.00     0.009 A 
ENDBRANCH  19  20
ENDBRANCH  17  19
ENDBRANCH   1  15
TORSDOF 7
ENDMDL
MODEL 5
REMARK VINA RESULT:      -7.7      2.644      6.653
REMARK  7 active torsions:
REMARK  status: ('A' for Active; 'I' for Inactive)
REMARK    1  A    between atoms: N1_1  and  C1_2 
REMARK    2  A    between atoms: C6_7  and  C7_8 
REMARK    3  A    between atoms: C7_8  and  C8_9 
REMARK    4  A    between atoms: C8_9  and  N2_10 
REMARK    5  A    between atoms: C8_9  and  C9_11 
REMARK       I    between atoms: C9_11  and  N3_13 
REMARK    6  A    between atoms: N3_13  and  C10_14 
REMARK    7  A    between atoms: C10_14  and  C11_15 
ROOT
HETATM    1  C8  UNL     1      24.703   2.971  51.902  1.00  0.00     0.313 C 
ENDROOT
BRANCH   1   2
HETATM    2  C7  UNL     1      23.912   1.806  51.414  1.00  0.00     0.086 C 
BRANCH   2   3
HETATM    3  C6  UNL     1      23.183   1.055  52.446  1.00  0.00    -0.029 A 
HETATM    4  C1  UNL     1      21.864   1.275  52.775  1.00  0.00     0.032 A 
HETATM    5  C2  UNL     1      21.322   0.486  53.779  1.00  0.00     0.029 A 
HETATM    6  C3  UNL     1      22.055  -0.490  54.439  1.00  0.00     0.002 A 
HETATM    7  C4  UNL     1      23.375  -0.708  54.108  1.00  0.00     0.001 A 
HETATM    8  C5  UNL     1      23.930   0.081  53.099  1.00  0.00     0.009 A 
BRANCH   4   9
HETATM    9  N1  UNL     1      21.119   2.272  52.090  1.00  0.00    -0.399 N 
HETATM   10  H1  UNL     1      21.665   2.868  51.410  1.00  0.00     0.156 HD
HETATM   11  H2  UNL     1      20.085   2.443  52.218  1.00  0.00     0.156 HD
ENDBRANCH   4   9
ENDBRANCH   2   3
ENDBRANCH   1   2
BRANCH   1  12
HETATM   12  N2  UNL     1      24.237   3.597  53.094  1.00  0.00     0.092 N 
HETATM   13  H10 UNL     1      24.395   3.026  53.947  1.00  0.00     0.313 HD
HETATM   14  H11 UNL     1      23.288   3.982  53.066  1.00  0.00     0.313 HD
ENDBRANCH   1  12
BRANCH   1  15
HETATM   15  C9  UNL     1      26.159   2.648  52.036  1.00  0.00     0.251 C 
HETATM   16  O1  UNL     1      26.774   2.605  50.943  1.00  0.00    -0.271 OA
HETATM   17  N3  UNL     1      26.860   2.401  53.241  1.00  0.00    -0.355 N 
HETATM   18  H12 UNL     1      26.267   2.465  54.096  1.00  0.00     0.162 HD
BRANCH  17  19
HETATM   19  C10 UNL     1      28.250   2.091  53.363  1.00  0.00     0.161 C 
BRANCH  19  20
HETATM   20  C11 UNL     1      28.561   0.643  53.345  1.00  0.00    -0.041 A 
HETATM   21  C12 UNL     1      29.784   0.098  53.663  1.00  0.00     0.009 A 
HETATM   22  C13 UNL     1      30.070  -1.251  53.644  1.00  0.00     0.001 A 
HETATM   23  C14 UNL     1      29.070  -2.131  53.284  1.00  0.00     0.000 A 
HETATM   24  C15 UNL     1      27.840  -1.618  52.963  1.00  0.00     0.001 A 
HETATM   25  C16 UNL     1      27.566  -0.251  52.986  1.00  0.00     0.009 A 
ENDBRANCH  19  20
ENDBRANCH  17  19
ENDBRANCH   1  15
TORSDOF 7
ENDMDL
MODEL 6
REMARK VINA RESULT:      -7.4      1.888      2.809
REMARK  7 active torsions:
REMARK  status: ('A' for Active; 'I' for Inactive)
REMARK    1  A    between atoms: N1_1  and  C1_2 
REMARK    2  A    between atoms: C6_7  and  C7_8 
REMARK    3  A    between atoms: C7_8  and  C8_9 
REMARK    4  A    between atoms: C8_9  and  N2_10 
REMARK    5  A    between atoms: C8_9  and  C9_11 
REMARK       I    between atoms: C9_11  and  N3_13 
REMARK    6  A    between atoms: N3_13  and  C10_14 
REMARK    7  A    between atoms: C10_14  and  C11_15 
ROOT
HETATM    1  C8  UNL     1      24.978  -0.897  54.598  1.00  0.00     0.313 C 
ENDROOT
BRANCH   1   2
HETATM    2  C7  UNL     1      25.579   0.185  53.769  1.00  0.00     0.086 C 
BRANCH   2   3
HETATM    3  C6  UNL     1      27.045   0.176  53.675  1.00  0.00    -0.029 A 
HETATM    4  C1  UNL     1      27.835   1.297  53.801  1.00  0.00     0.032 A 
HETATM    5  C2  UNL     1      29.206   1.122  53.678  1.00  0.00     0.029 A 
HETATM    6  C3  UNL     1      29.782  -0.117  53.439  1.00  0.00     0.002 A 
HETATM    7  C4  UNL     1      28.990  -1.238  53.313  1.00  0.00     0.001 A 
HETATM    8  C5  UNL     1      27.609  -1.073  53.436  1.00  0.00     0.009 A 
BRANCH   4   9
HETATM    9  N1  UNL     1      27.237   2.560  54.051  1.00  0.00    -0.399 N 
HETATM   10  H1  UNL     1      27.044   2.785  55.065  1.00  0.00     0.156 HD
HETATM   11  H2  UNL     1      26.985   3.264  53.306  1.00  0.00     0.156 HD
ENDBRANCH   4   9
ENDBRANCH   2   3
ENDBRANCH   1   2
BRANCH   1  12
HETATM   12  N2  UNL     1      25.387  -0.950  55.962  1.00  0.00     0.092 N 
HETATM   13  H10 UNL     1      25.007  -0.172  56.535  1.00  0.00     0.313 HD
HETATM   14  H11 UNL     1      26.387  -1.094  56.133  1.00  0.00     0.313 HD
ENDBRANCH   1  12
BRANCH   1  15
HETATM   15  C9  UNL     1      23.482  -0.907  54.518  1.00  0.00     0.251 C 
HETATM   16  O1  UNL     1      22.921  -1.376  55.537  1.00  0.00    -0.271 OA
HETATM   17  N3  UNL     1      22.694  -0.450  53.434  1.00  0.00    -0.355 N 
HETATM   18  H12 UNL     1      23.250  -0.073  52.637  1.00  0.00     0.162 HD
BRANCH  17  19
HETATM   19  C10 UNL     1      21.267  -0.464  53.362  1.00  0.00     0.161 C 
BRANCH  19  20
HETATM   20  C11 UNL     1      20.708   0.096  52.110  1.00  0.00    -0.041 A 
HETATM   21  C12 UNL     1      19.366   0.202  51.827  1.00  0.00     0.009 A 
HETATM   22  C13 UNL     1      18.850   0.724  50.659  1.00  0.00     0.001 A 
HETATM   23  C14 UNL     1      19.728   1.177  49.695  1.00  0.00     0.000 A 
HETATM   24  C15 UNL     1      21.072   1.086  49.949  1.00  0.00     0.001 A 
HETATM   25  C16 UNL     1      21.579   0.555  51.135  1.00  0.00     0.009 A 
ENDBRANCH  19  20
ENDBRANCH  17  19
ENDBRANCH   1  15
TORSDOF 7
ENDMDL
MODEL 7
REMARK VINA RESULT:      -7.4      2.460      3.926
REMARK  7 active torsions:
REMARK  status: ('A' for Active; 'I' for Inactive)
REMARK    1  A    between atoms: N1_1  and  C1_2 
REMARK    2  A    between atoms: C6_7  and  C7_8 
REMARK    3  A    between atoms: C7_8  and  C8_9 
REMARK    4  A    between atoms: C8_9  and  N2_10 
REMARK    5  A    between atoms: C8_9  and  C9_11 
REMARK       I    between atoms: C9_11  and  N3_13 
REMARK    6  A    between atoms: N3_13  and  C10_14 
REMARK    7  A    between atoms: C10_14  and  C11_15 
ROOT
HETATM    1  C8  UNL     1      26.003   1.479  53.939  1.00  0.00     0.313 C 
ENDROOT
BRANCH   1   2
HETATM    2  C7  UNL     1      25.764   0.047  53.606  1.00  0.00     0.086 C 
BRANCH   2   3
HETATM    3  C6  UNL     1      24.471  -0.500  54.040  1.00  0.00    -0.029 A 
HETATM    4  C1  UNL     1      24.256  -1.097  55.263  1.00  0.00     0.032 A 
HETATM    5  C2  UNL     1      22.977  -1.572  55.519  1.00  0.00     0.029 A 
HETATM    6  C3  UNL     1      21.943  -1.463  54.601  1.00  0.00     0.002 A 
HETATM    7  C4  UNL     1      22.160  -0.865  53.379  1.00  0.00     0.001 A 
HETATM    8  C5  UNL     1      23.443  -0.383  53.111  1.00  0.00     0.009 A 
BRANCH   4   9
HETATM    9  N1  UNL     1      25.319  -1.199  56.198  1.00  0.00    -0.399 N 
HETATM   10  H1  UNL     1      25.100  -1.724  57.089  1.00  0.00     0.156 HD
HETATM   11  H2  UNL     1      26.284  -0.795  56.058  1.00  0.00     0.156 HD
ENDBRANCH   4   9
ENDBRANCH   2   3
ENDBRANCH   1   2
BRANCH   1  12
HETATM   12  N2  UNL     1      27.364   1.892  54.016  1.00  0.00     0.092 N 
HETATM   13  H10 UNL     1      27.758   1.834  54.975  1.00  0.00     0.313 HD
HETATM   14  H11 UNL     1      27.597   2.781  53.563  1.00  0.00     0.313 HD
ENDBRANCH   1  12
BRANCH   1  15
HETATM   15  C9  UNL     1      25.244   2.404  53.037  1.00  0.00     0.251 C 
HETATM   16  O1  UNL     1      24.532   3.238  53.646  1.00  0.00    -0.271 OA
HETATM   17  N3  UNL     1      25.269   2.407  51.621  1.00  0.00    -0.355 N 
HETATM   18  H12 UNL     1      25.893   1.682  51.208  1.00  0.00     0.162 HD
BRANCH  17  19
HETATM   19  C10 UNL     1      24.541   3.290  50.766  1.00  0.00     0.161 C 
BRANCH  19  20
HETATM   20  C11 UNL     1      23.491   2.633  49.954  1.00  0.00    -0.041 A 
HETATM   21  C12 UNL     1      23.265   2.873  48.618  1.00  0.00     0.009 A 
HETATM   22  C13 UNL     1      22.285   2.259  47.865  1.00  0.00     0.001 A 
HETATM   23  C14 UNL     1      21.463   1.337  48.481  1.00  0.00     0.000 A 
HETATM   24  C15 UNL     1      21.664   1.076  49.811  1.00  0.00     0.001 A 
HETATM   25  C16 UNL     1      22.659   1.705  50.560  1.00  0.00     0.009 A 
ENDBRANCH  19  20
ENDBRANCH  17  19
ENDBRANCH   1  15
TORSDOF 7
ENDMDL
MODEL 8
REMARK VINA RESULT:      -7.3      3.536      4.650
REMARK  7 active torsions:
REMARK  status: ('A' for Active; 'I' for Inactive)
REMARK    1  A    between atoms: N1_1  and  C1_2 
REMARK    2  A    between atoms: C6_7  and  C7_8 
REMARK    3  A    between atoms: C7_8  and  C8_9 
REMARK    4  A    between atoms: C8_9  and  N2_10 
REMARK    5  A    between atoms: C8_9  and  C9_11 
REMARK       I    between atoms: C9_11  and  N3_13 
REMARK    6  A    between atoms: N3_13  and  C10_14 
REMARK    7  A    between atoms: C10_14  and  C11_15 
ROOT
HETATM    1  C8  UNL     1      24.753   1.688  52.143  1.00  0.00     0.313 C 
ENDROOT
BRANCH   1   2
HETATM    2  C7  UNL     1      25.230   2.015  53.516  1.00  0.00     0.086 C 
BRANCH   2   3
HETATM    3  C6  UNL     1      26.580   1.541  53.850  1.00  0.00    -0.029 A 
HETATM    4  C1  UNL     1      26.844   0.367  54.520  1.00  0.00     0.032 A 
HETATM    5  C2  UNL     1      28.176   0.065  54.767  1.00  0.00     0.029 A 
HETATM    6  C3  UNL     1      29.215   0.891  54.367  1.00  0.00     0.002 A 
HETATM    7  C4  UNL     1      28.950   2.065  53.695  1.00  0.00     0.001 A 
HETATM    8  C5  UNL     1      27.613   2.379  53.442  1.00  0.00     0.009 A 
BRANCH   4   9
HETATM    9  N1  UNL     1      25.774  -0.475  54.921  1.00  0.00    -0.399 N 
HETATM   10  H1  UNL     1      26.007  -1.501  55.020  1.00  0.00     0.156 HD
HETATM   11  H2  UNL     1      24.791  -0.145  55.120  1.00  0.00     0.156 HD
ENDBRANCH   4   9
ENDBRANCH   2   3
ENDBRANCH   1   2
BRANCH   1  12
HETATM   12  N2  UNL     1      23.641   0.802  52.055  1.00  0.00     0.092 N 
HETATM   13  H10 UNL     1      23.473   0.446  51.094  1.00  0.00     0.313 HD
HETATM   14  H11 UNL     1      22.772   1.115  52.499  1.00  0.00     0.313 HD
ENDBRANCH   1  12
BRANCH   1  15
HETATM   15  C9  UNL     1      24.485   2.918  51.331  1.00  0.00     0.251 C 
HETATM   16  O1  UNL     1      23.401   3.485  51.607  1.00  0.00    -0.271 OA
HETATM   17  N3  UNL     1      25.322   3.462  50.325  1.00  0.00    -0.355 N 
HETATM   18  H12 UNL     1      26.202   2.925  50.172  1.00  0.00     0.162 HD
BRANCH  17  19
HETATM   19  C10 UNL     1      25.060   4.634  49.552  1.00  0.00     0.161 C 
BRANCH  19  20
HETATM   20  C11 UNL     1      26.266   5.279  48.984  1.00  0.00    -0.041 A 
HETATM   21  C12 UNL     1      27.494   4.672  48.853  1.00  0.00     0.009 A 
HETATM   22  C13 UNL     1      28.615   5.277  48.323  1.00  0.00     0.001 A 
HETATM   23  C14 UNL     1      28.515   6.584  47.890  1.00  0.00     0.000 A 
HETATM   24  C15 UNL     1      27.305   7.215  48.007  1.00  0.00     0.001 A 
HETATM   25  C16 UNL     1      26.179   6.590  48.545  1.00  0.00     0.009 A 
ENDBRANCH  19  20
ENDBRANCH  17  19
ENDBRANCH   1  15
TORSDOF 7
ENDMDL
MODEL 9
REMARK VINA RESULT:      -7.1      4.159      6.282
REMARK  7 active torsions:
REMARK  status: ('A' for Active; 'I' for Inactive)
REMARK    1  A    between atoms: N1_1  and  C1_2 
REMARK    2  A    between atoms: C6_7  and  C7_8 
REMARK    3  A    between atoms: C7_8  and  C8_9 
REMARK    4  A    between atoms: C8_9  and  N2_10 
REMARK    5  A    between atoms: C8_9  and  C9_11 
REMARK       I    between atoms: C9_11  and  N3_13 
REMARK    6  A    between atoms: N3_13  and  C10_14 
REMARK    7  A    between atoms: C10_14  and  C11_15 
ROOT
HETATM    1  C8  UNL     1      23.992   2.728  52.547  1.00  0.00     0.313 C 
ENDROOT
BRANCH   1   2
HETATM    2  C7  UNL     1      23.754   1.320  52.123  1.00  0.00     0.086 C 
BRANCH   2   3
HETATM    3  C6  UNL     1      22.847   0.542  52.979  1.00  0.00    -0.029 A 
HETATM    4  C1  UNL     1      21.474   0.651  52.949  1.00  0.00     0.032 A 
HETATM    5  C2  UNL     1      20.757  -0.148  53.828  1.00  0.00     0.029 A 
HETATM    6  C3  UNL     1      21.371  -1.027  54.709  1.00  0.00     0.002 A 
HETATM    7  C4  UNL     1      22.745  -1.134  54.737  1.00  0.00     0.001 A 
HETATM    8  C5  UNL     1      23.476  -0.334  53.856  1.00  0.00     0.009 A 
BRANCH   4   9
HETATM    9  N1  UNL     1      20.854   1.548  52.040  1.00  0.00    -0.399 N 
HETATM   10  H1  UNL     1      19.830   1.373  51.847  1.00  0.00     0.156 HD
HETATM   11  H2  UNL     1      21.342   2.353  51.563  1.00  0.00     0.156 HD
ENDBRANCH   4   9
ENDBRANCH   2   3
ENDBRANCH   1   2
BRANCH   1  12
HETATM   12  N2  UNL     1      25.125   2.955  53.380  1.00  0.00     0.092 N 
HETATM   13  H10 UNL     1      25.866   3.520  52.923  1.00  0.00     0.313 HD
HETATM   14  H11 UNL     1      25.513   2.134  53.855  1.00  0.00     0.313 HD
ENDBRANCH   1  12
BRANCH   1  15
HETATM   15  C9  UNL     1      24.024   3.670  51.383  1.00  0.00     0.251 C 
HETATM   16  O1  UNL     1      23.489   3.214  50.344  1.00  0.00    -0.271 OA
HETATM   17  N3  UNL     1      24.583   4.972  51.367  1.00  0.00    -0.355 N 
HETATM   18  H12 UNL     1      24.998   5.264  52.278  1.00  0.00     0.162 HD
BRANCH  17  19
HETATM   19  C10 UNL     1      24.613   5.865  50.253  1.00  0.00     0.161 C 
BRANCH  19  20
HETATM   20  C11 UNL     1      25.904   5.904  49.530  1.00  0.00    -0.041 A 
HETATM   21  C12 UNL     1      26.654   4.799  49.199  1.00  0.00     0.009 A 
HETATM   22  C13 UNL     1      27.857   4.841  48.526  1.00  0.00     0.001 A 
HETATM   23  C14 UNL     1      28.359   6.070  48.149  1.00  0.00     0.000 A 
HETATM   24  C15 UNL     1      27.634   7.190  48.463  1.00  0.00     0.001 A 
HETATM   25  C16 UNL     1      26.418   7.132  49.145  1.00  0.00     0.009 A 
ENDBRANCH  19  20
ENDBRANCH  17  19
ENDBRANCH   1  15
TORSDOF 7
ENDMDL
