MODEL 1
REMARK VINA RESULT:      -8.6      0.000      0.000
REMARK  2 active torsions:
REMARK  status: ('A' for Active; 'I' for Inactive)
REMARK    1  A    between atoms: C2_2  and  C3_3 
REMARK    2  A    between atoms: C13_16  and  C14_17 
ROOT
HETATM    1  C1  UNL     1      24.491   3.284  53.430  1.00  0.00     0.069 C 
HETATM    2  C2  UNL     1      23.659   2.830  52.327  1.00  0.00     0.132 C 
HETATM    3  N1  UNL     1      22.602   3.905  52.159  1.00  0.00    -0.346 N 
HETATM    4  C9  UNL     1      22.926   4.218  50.734  1.00  0.00     0.101 C 
HETATM    5  C10 UNL     1      22.219   3.372  49.895  1.00  0.00     0.041 C 
HETATM    6  C11 UNL     1      23.139   2.149  50.159  1.00  0.00     0.156 C 
HETATM    7  N2  UNL     1      24.275   2.688  50.976  1.00  0.00    -0.354 N 
HETATM    8  C12 UNL     1      25.600   3.162  50.502  1.00  0.00     0.119 C 
HETATM    9  C13 UNL     1      25.227   4.444  50.093  1.00  0.00     0.059 C 
HETATM   10  N3  UNL     1      23.978   5.242  50.325  1.00  0.00    -0.341 N 
HETATM   11  H8  UNL     1      22.110   3.969  53.088  1.00  0.00     0.164 HD
HETATM   12  H18 UNL     1      23.957   6.298  50.208  1.00  0.00     0.167 HD
ENDROOT
BRANCH   2  13
HETATM   13  C3  UNL     1      23.046   1.550  52.703  1.00  0.00    -0.010 A 
HETATM   14  C4  UNL     1      21.719   1.218  52.842  1.00  0.00     0.014 A 
HETATM   15  C5  UNL     1      21.330  -0.049  53.225  1.00  0.00     0.043 A 
HETATM   16  C6  UNL     1      22.235  -1.060  53.492  1.00  0.00     0.116 A 
HETATM   17  F1  UNL     1      21.716  -2.245  53.856  1.00  0.00    -0.206 F 
HETATM   18  C7  UNL     1      23.563  -0.733  53.355  1.00  0.00     0.043 A 
HETATM   19  C8  UNL     1      23.968   0.530  52.972  1.00  0.00     0.014 A 
ENDBRANCH   2  13
BRANCH   9  20
HETATM   20  C14 UNL     1      26.230   5.176  49.294  1.00  0.00    -0.008 A 
HETATM   21  C15 UNL     1      26.063   6.437  48.790  1.00  0.00     0.014 A 
HETATM   22  C16 UNL     1      26.985   7.147  48.057  1.00  0.00     0.001 A 
HETATM   23  C17 UNL     1      28.204   6.567  47.783  1.00  0.00     0.000 A 
HETATM   24  C18 UNL     1      28.429   5.296  48.265  1.00  0.00     0.001 A 
HETATM   25  C19 UNL     1      27.455   4.655  48.990  1.00  0.00     0.014 A 
ENDBRANCH   9  20
TORSDOF 2
ENDMDL
MODEL 2
REMARK VINA RESULT:      -8.3      2.812      7.239
REMARK  2 active torsions:
REMARK  status: ('A' for Active; 'I' for Inactive)
REMARK    1  A    between atoms: C2_2  and  C3_3 
REMARK    2  A    between atoms: C13_16  and  C14_17 
ROOT
HETATM    1  C1  UNL     1      23.257   2.676  48.739  1.00  0.00     0.069 C 
HETATM    2  C2  UNL     1      23.634   3.545  49.842  1.00  0.00     0.132 C 
HETATM    3  N1  UNL     1      22.416   4.412  50.099  1.00  0.00    -0.346 N 
HETATM    4  C9  UNL     1      22.239   4.009  51.528  1.00  0.00     0.101 C 
HETATM    5  C10 UNL     1      23.008   4.824  52.344  1.00  0.00     0.041 C 
HETATM    6  C11 UNL     1      24.345   4.118  51.988  1.00  0.00     0.156 C 
HETATM    7  N2  UNL     1      23.948   2.929  51.165  1.00  0.00    -0.354 N 
HETATM    8  C12 UNL     1      23.718   1.535  51.621  1.00  0.00     0.119 C 
HETATM    9  C13 UNL     1      22.418   1.688  52.108  1.00  0.00     0.059 C 
HETATM   10  N3  UNL     1      21.419   2.798  51.956  1.00  0.00    -0.341 N 
HETATM   11  H8  UNL     1      22.222   4.908  49.191  1.00  0.00     0.164 HD
HETATM   12  H18 UNL     1      20.382   2.647  52.129  1.00  0.00     0.167 HD
ENDROOT
BRANCH   2  13
HETATM   13  C3  UNL     1      24.777   4.363  49.420  1.00  0.00    -0.010 A 
HETATM   14  C4  UNL     1      24.819   5.681  49.031  1.00  0.00     0.014 A 
HETATM   15  C5  UNL     1      26.000   6.282  48.647  1.00  0.00     0.043 A 
HETATM   16  C6  UNL     1      27.208   5.609  48.626  1.00  0.00     0.116 A 
HETATM   17  F1  UNL     1      28.279   6.318  48.230  1.00  0.00    -0.206 F 
HETATM   18  C7  UNL     1      27.172   4.292  49.014  1.00  0.00     0.043 A 
HETATM   19  C8  UNL     1      25.999   3.676  49.401  1.00  0.00     0.014 A 
ENDBRANCH   2  13
BRANCH   9  20
HETATM   20  C14 UNL     1      21.901   0.563  52.912  1.00  0.00    -0.008 A 
HETATM   21  C15 UNL     1      20.598   0.147  52.933  1.00  0.00     0.014 A 
HETATM   22  C16 UNL     1      20.093  -0.905  53.659  1.00  0.00     0.001 A 
HETATM   23  C17 UNL     1      20.949  -1.634  54.455  1.00  0.00     0.000 A 
HETATM   24  C18 UNL     1      22.275  -1.261  54.475  1.00  0.00     0.001 A 
HETATM   25  C19 UNL     1      22.699  -0.197  53.718  1.00  0.00     0.014 A 
ENDBRANCH   9  20
TORSDOF 2
ENDMDL
MODEL 3
REMARK VINA RESULT:      -8.2      3.216      5.253
REMARK  2 active torsions:
REMARK  status: ('A' for Active; 'I' for Inactive)
REMARK    1  A    between atoms: C2_2  and  C3_3 
REMARK    2  A    between atoms: C13_16  and  C14_17 
ROOT
HETATM    1  C1  UNL     1      23.777   4.556  53.318  1.00  0.00     0.069 C 
HETATM    2  C2  UNL     1      23.666   4.069  51.952  1.00  0.00     0.132 C 
HETATM    3  N1  UNL     1      24.641   4.911  51.151  1.00  0.00    -0.346 N 
HETATM    4  C9  UNL     1      25.454   3.762  50.643  1.00  0.00     0.101 C 
HETATM    5  C10 UNL     1      24.894   3.272  49.474  1.00  0.00     0.041 C 
HETATM    6  C11 UNL     1      23.736   2.534  50.199  1.00  0.00     0.156 C 
HETATM    7  N2  UNL     1      24.052   2.658  51.660  1.00  0.00    -0.354 N 
HETATM    8  C12 UNL     1      24.769   1.690  52.527  1.00  0.00     0.119 C 
HETATM    9  C13 UNL     1      26.078   2.022  52.171  1.00  0.00     0.059 C 
HETATM   10  N3  UNL     1      26.640   3.182  51.404  1.00  0.00    -0.341 N 
HETATM   11  H8  UNL     1      24.339   5.910  51.291  1.00  0.00     0.164 HD
HETATM   12  H18 UNL     1      27.665   3.452  51.467  1.00  0.00     0.167 HD
ENDROOT
BRANCH   2  13
HETATM   13  C3  UNL     1      22.289   4.287  51.492  1.00  0.00    -0.010 A 
HETATM   14  C4  UNL     1      21.804   5.166  50.553  1.00  0.00     0.014 A 
HETATM   15  C5  UNL     1      20.457   5.240  50.263  1.00  0.00     0.043 A 
HETATM   16  C6  UNL     1      19.513   4.446  50.888  1.00  0.00     0.116 A 
HETATM   17  F1  UNL     1      18.237   4.624  50.507  1.00  0.00    -0.206 F 
HETATM   18  C7  UNL     1      19.993   3.565  51.828  1.00  0.00     0.043 A 
HETATM   19  C8  UNL     1      21.337   3.479  52.129  1.00  0.00     0.014 A 
ENDBRANCH   2  13
BRANCH   9  20
HETATM   20  C14 UNL     1      27.121   1.083  52.629  1.00  0.00    -0.008 A 
HETATM   21  C15 UNL     1      28.297   1.447  53.226  1.00  0.00     0.014 A 
HETATM   22  C16 UNL     1      29.277   0.594  53.675  1.00  0.00     0.001 A 
HETATM   23  C17 UNL     1      29.096  -0.764  53.526  1.00  0.00     0.000 A 
HETATM   24  C18 UNL     1      27.930  -1.190  52.931  1.00  0.00     0.001 A 
HETATM   25  C19 UNL     1      26.999  -0.272  52.510  1.00  0.00     0.014 A 
ENDBRANCH   9  20
TORSDOF 2
ENDMDL
MODEL 4
REMARK VINA RESULT:      -7.8      3.653      6.059
REMARK  2 active torsions:
REMARK  status: ('A' for Active; 'I' for Inactive)
REMARK    1  A    between atoms: C2_2  and  C3_3 
REMARK    2  A    between atoms: C13_16  and  C14_17 
ROOT
HETATM    1  C1  UNL     1      24.958   3.003  49.533  1.00  0.00     0.069 C 
HETATM    2  C2  UNL     1      24.228   3.018  50.790  1.00  0.00     0.132 C 
HETATM    3  N1  UNL     1      23.355   1.778  50.758  1.00  0.00    -0.346 N 
HETATM    4  C9  UNL     1      23.905   1.170  52.008  1.00  0.00     0.101 C 
HETATM    5  C10 UNL     1      23.210   1.647  53.108  1.00  0.00     0.041 C 
HETATM    6  C11 UNL     1      23.917   3.031  53.101  1.00  0.00     0.156 C 
HETATM    7  N2  UNL     1      24.995   2.910  52.066  1.00  0.00    -0.354 N 
HETATM    8  C12 UNL     1      26.422   2.553  52.267  1.00  0.00     0.119 C 
HETATM    9  C13 UNL     1      26.281   1.166  52.345  1.00  0.00     0.059 C 
HETATM   10  N3  UNL     1      25.128   0.261  52.022  1.00  0.00    -0.341 N 
HETATM   11  H8  UNL     1      22.756   1.873  49.897  1.00  0.00     0.164 HD
HETATM   12  H18 UNL     1      25.263  -0.779  51.850  1.00  0.00     0.167 HD
ENDROOT
BRANCH   2  13
HETATM   13  C3  UNL     1      23.407   4.233  50.836  1.00  0.00    -0.010 A 
HETATM   14  C4  UNL     1      22.038   4.371  50.836  1.00  0.00     0.014 A 
HETATM   15  C5  UNL     1      21.438   5.613  50.865  1.00  0.00     0.043 A 
HETATM   16  C6  UNL     1      22.162   6.792  50.897  1.00  0.00     0.116 A 
HETATM   17  F1  UNL     1      21.448   7.929  50.923  1.00  0.00    -0.206 F 
HETATM   18  C7  UNL     1      23.530   6.660  50.897  1.00  0.00     0.043 A 
HETATM   19  C8  UNL     1      24.145   5.425  50.868  1.00  0.00     0.014 A 
ENDBRANCH   2  13
BRANCH   9  20
HETATM   20  C14 UNL     1      27.469   0.429  52.817  1.00  0.00    -0.008 A 
HETATM   21  C15 UNL     1      27.596  -0.933  52.823  1.00  0.00     0.014 A 
HETATM   22  C16 UNL     1      28.696  -1.644  53.242  1.00  0.00     0.001 A 
HETATM   23  C17 UNL     1      29.794  -0.955  53.709  1.00  0.00     0.000 A 
HETATM   24  C18 UNL     1      29.724   0.421  53.728  1.00  0.00     0.001 A 
HETATM   25  C19 UNL     1      28.587   1.055  53.290  1.00  0.00     0.014 A 
ENDBRANCH   9  20
TORSDOF 2
ENDMDL
MODEL 5
REMARK VINA RESULT:      -7.6      8.677     10.775
REMARK  2 active torsions:
REMARK  status: ('A' for Active; 'I' for Inactive)
REMARK    1  A    between atoms: C2_2  and  C3_3 
REMARK    2  A    between atoms: C13_16  and  C14_17 
ROOT
HETATM    1  C1  UNL     1      34.404   7.633  48.584  1.00  0.00     0.069 C 
HETATM    2  C2  UNL     1      33.299   6.804  48.131  1.00  0.00     0.132 C 
HETATM    3  N1  UNL     1      32.712   6.201  49.393  1.00  0.00    -0.346 N 
HETATM    4  C9  UNL     1      31.334   6.746  49.197  1.00  0.00     0.101 C 
HETATM    5  C10 UNL     1      30.591   5.873  48.418  1.00  0.00     0.041 C 
HETATM    6  C11 UNL     1      31.279   6.289  47.088  1.00  0.00     0.156 C 
HETATM    7  N2  UNL     1      32.144   7.459  47.449  1.00  0.00    -0.354 N 
HETATM    8  C12 UNL     1      31.821   8.904  47.347  1.00  0.00     0.119 C 
HETATM    9  C13 UNL     1      31.079   9.034  48.523  1.00  0.00     0.059 C 
HETATM   10  N3  UNL     1      30.902   8.118  49.699  1.00  0.00    -0.341 N 
HETATM   11  H8  UNL     1      33.501   5.676  49.852  1.00  0.00     0.164 HD
HETATM   12  H18 UNL     1      30.552   8.472  50.637  1.00  0.00     0.167 HD
ENDROOT
BRANCH   2  13
HETATM   13  C3  UNL     1      33.834   5.757  47.252  1.00  0.00    -0.010 A 
HETATM   14  C4  UNL     1      33.913   5.716  45.880  1.00  0.00     0.014 A 
HETATM   15  C5  UNL     1      34.439   4.625  45.221  1.00  0.00     0.043 A 
HETATM   16  C6  UNL     1      34.916   3.509  45.885  1.00  0.00     0.116 A 
HETATM   17  F1  UNL     1      35.400   2.519  45.116  1.00  0.00    -0.206 F 
HETATM   18  C7  UNL     1      34.838   3.545  47.256  1.00  0.00     0.043 A 
HETATM   19  C8  UNL     1      34.316   4.630  47.931  1.00  0.00     0.014 A 
ENDBRANCH   2  13
BRANCH   9  20
HETATM   20  C14 UNL     1      30.329  10.297  48.668  1.00  0.00    -0.008 A 
HETATM   21  C15 UNL     1      28.966  10.410  48.626  1.00  0.00     0.014 A 
HETATM   22  C16 UNL     1      28.242  11.570  48.774  1.00  0.00     0.001 A 
HETATM   23  C17 UNL     1      28.918  12.752  48.985  1.00  0.00     0.000 A 
HETATM   24  C18 UNL     1      30.293  12.701  49.036  1.00  0.00     0.001 A 
HETATM   25  C19 UNL     1      30.941  11.500  48.880  1.00  0.00     0.014 A 
ENDBRANCH   9  20
TORSDOF 2
ENDMDL
MODEL 6
REMARK VINA RESULT:      -7.5      3.269      5.324
REMARK  2 active torsions:
REMARK  status: ('A' for Active; 'I' for Inactive)
REMARK    1  A    between atoms: C2_2  and  C3_3 
REMARK    2  A    between atoms: C13_16  and  C14_17 
ROOT
HETATM    1  C1  UNL     1      22.079   0.994  52.268  1.00  0.00     0.069 C 
HETATM    2  C2  UNL     1      22.587   2.126  51.510  1.00  0.00     0.132 C 
HETATM    3  N1  UNL     1      22.374   3.331  52.406  1.00  0.00    -0.346 N 
HETATM    4  C9  UNL     1      23.811   3.743  52.452  1.00  0.00     0.101 C 
HETATM    5  C10 UNL     1      24.096   4.573  51.380  1.00  0.00     0.041 C 
HETATM    6  C11 UNL     1      24.140   3.416  50.345  1.00  0.00     0.156 C 
HETATM    7  N2  UNL     1      24.037   2.162  51.160  1.00  0.00    -0.354 N 
HETATM    8  C12 UNL     1      25.139   1.306  51.668  1.00  0.00     0.119 C 
HETATM    9  C13 UNL     1      25.487   2.060  52.790  1.00  0.00     0.059 C 
HETATM   10  N3  UNL     1      24.799   3.203  53.479  1.00  0.00    -0.341 N 
HETATM   11  H8  UNL     1      21.341   3.360  52.606  1.00  0.00     0.164 HD
HETATM   12  H18 UNL     1      25.030   3.476  54.479  1.00  0.00     0.167 HD
ENDROOT
BRANCH   2  13
HETATM   13  C3  UNL     1      21.802   2.249  50.276  1.00  0.00    -0.010 A 
HETATM   14  C4  UNL     1      21.972   1.631  49.059  1.00  0.00     0.014 A 
HETATM   15  C5  UNL     1      21.132   1.889  47.996  1.00  0.00     0.043 A 
HETATM   16  C6  UNL     1      20.074   2.776  48.077  1.00  0.00     0.116 A 
HETATM   17  F1  UNL     1      19.338   2.931  46.964  1.00  0.00    -0.206 F 
HETATM   18  C7  UNL     1      19.900   3.397  49.291  1.00  0.00     0.043 A 
HETATM   19  C8  UNL     1      20.731   3.149  50.364  1.00  0.00     0.014 A 
ENDBRANCH   2  13
BRANCH   9  20
HETATM   20  C14 UNL     1      26.754   1.680  53.446  1.00  0.00    -0.008 A 
HETATM   21  C15 UNL     1      26.931   0.571  54.227  1.00  0.00     0.014 A 
HETATM   22  C16 UNL     1      28.102   0.185  54.836  1.00  0.00     0.001 A 
HETATM   23  C17 UNL     1      29.225   0.965  54.669  1.00  0.00     0.000 A 
HETATM   24  C18 UNL     1      29.108   2.097  53.893  1.00  0.00     0.001 A 
HETATM   25  C19 UNL     1      27.900   2.411  53.318  1.00  0.00     0.014 A 
ENDBRANCH   9  20
TORSDOF 2
ENDMDL
MODEL 7
REMARK VINA RESULT:      -7.5      3.336      5.181
REMARK  2 active torsions:
REMARK  status: ('A' for Active; 'I' for Inactive)
REMARK    1  A    between atoms: C2_2  and  C3_3 
REMARK    2  A    between atoms: C13_16  and  C14_17 
ROOT
HETATM    1  C1  UNL     1      22.541   0.933  53.433  1.00  0.00     0.069 C 
HETATM    2  C2  UNL     1      22.997   1.810  52.368  1.00  0.00     0.132 C 
HETATM    3  N1  UNL     1      23.354   3.115  53.055  1.00  0.00    -0.346 N 
HETATM    4  C9  UNL     1      24.778   3.143  52.599  1.00  0.00     0.101 C 
HETATM    5  C10 UNL     1      24.862   3.757  51.359  1.00  0.00     0.041 C 
HETATM    6  C11 UNL     1      24.314   2.528  50.583  1.00  0.00     0.156 C 
HETATM    7  N2  UNL     1      24.223   1.434  51.604  1.00  0.00    -0.354 N 
HETATM    8  C12 UNL     1      25.222   0.379  51.909  1.00  0.00     0.119 C 
HETATM    9  C13 UNL     1      26.074   1.128  52.723  1.00  0.00     0.059 C 
HETATM   10  N3  UNL     1      25.911   2.474  53.366  1.00  0.00    -0.341 N 
HETATM   11  H8  UNL     1      22.477   3.430  53.543  1.00  0.00     0.164 HD
HETATM   12  H18 UNL     1      26.513   2.779  54.187  1.00  0.00     0.167 HD
ENDROOT
BRANCH   2  13
HETATM   13  C3  UNL     1      21.893   2.005  51.421  1.00  0.00    -0.010 A 
HETATM   14  C4  UNL     1      21.118   3.117  51.189  1.00  0.00     0.014 A 
HETATM   15  C5  UNL     1      20.101   3.106  50.258  1.00  0.00     0.043 A 
HETATM   16  C6  UNL     1      19.792   1.989  49.502  1.00  0.00     0.116 A 
HETATM   17  F1  UNL     1      18.776   2.120  48.633  1.00  0.00    -0.206 F 
HETATM   18  C7  UNL     1      20.563   0.875  49.730  1.00  0.00     0.043 A 
HETATM   19  C8  UNL     1      21.584   0.870  50.658  1.00  0.00     0.014 A 
ENDBRANCH   2  13
BRANCH   9  20
HETATM   20  C14 UNL     1      27.375   0.503  53.032  1.00  0.00    -0.008 A 
HETATM   21  C15 UNL     1      28.492   1.177  53.443  1.00  0.00     0.014 A 
HETATM   22  C16 UNL     1      29.709   0.618  53.752  1.00  0.00     0.001 A 
HETATM   23  C17 UNL     1      29.859  -0.747  53.649  1.00  0.00     0.000 A 
HETATM   24  C18 UNL     1      28.767  -1.480  53.239  1.00  0.00     0.001 A 
HETATM   25  C19 UNL     1      27.585  -0.845  52.950  1.00  0.00     0.014 A 
ENDBRANCH   9  20
TORSDOF 2
ENDMDL
MODEL 8
REMARK VINA RESULT:      -7.4      3.213      7.249
REMARK  2 active torsions:
REMARK  status: ('A' for Active; 'I' for Inactive)
REMARK    1  A    between atoms: C2_2  and  C3_3 
REMARK    2  A    between atoms: C13_16  and  C14_17 
ROOT
HETATM    1  C1  UNL     1      25.853   3.580  50.192  1.00  0.00     0.069 C 
HETATM    2  C2  UNL     1      24.512   4.143  50.200  1.00  0.00     0.132 C 
HETATM    3  N1  UNL     1      23.768   3.409  49.101  1.00  0.00    -0.346 N 
HETATM    4  C9  UNL     1      22.683   2.874  49.981  1.00  0.00     0.101 C 
HETATM    5  C10 UNL     1      21.657   3.800  50.076  1.00  0.00     0.041 C 
HETATM    6  C11 UNL     1      22.425   4.724  51.061  1.00  0.00     0.156 C 
HETATM    7  N2  UNL     1      23.667   3.964  51.417  1.00  0.00    -0.354 N 
HETATM    8  C12 UNL     1      23.896   3.081  52.589  1.00  0.00     0.119 C 
HETATM    9  C13 UNL     1      23.276   1.928  52.104  1.00  0.00     0.059 C 
HETATM   10  N3  UNL     1      22.797   1.554  50.732  1.00  0.00    -0.341 N 
HETATM   11  H8  UNL     1      24.316   3.583  48.219  1.00  0.00     0.164 HD
HETATM   12  H18 UNL     1      22.619   0.543  50.457  1.00  0.00     0.167 HD
ENDROOT
BRANCH   2  13
HETATM   13  C3  UNL     1      24.607   5.576  49.899  1.00  0.00    -0.010 A 
HETATM   14  C4  UNL     1      24.798   6.642  50.745  1.00  0.00     0.014 A 
HETATM   15  C5  UNL     1      24.843   7.938  50.274  1.00  0.00     0.043 A 
HETATM   16  C6  UNL     1      24.701   8.251  48.935  1.00  0.00     0.116 A 
HETATM   17  F1  UNL     1      24.765   9.555  48.617  1.00  0.00    -0.206 F 
HETATM   18  C7  UNL     1      24.509   7.189  48.084  1.00  0.00     0.043 A 
HETATM   19  C8  UNL     1      24.462   5.887  48.540  1.00  0.00     0.014 A 
ENDBRANCH   2  13
BRANCH   9  20
HETATM   20  C14 UNL     1      23.047   0.861  53.098  1.00  0.00    -0.008 A 
HETATM   21  C15 UNL     1      21.829   0.529  53.627  1.00  0.00     0.014 A 
HETATM   22  C16 UNL     1      21.586  -0.469  54.540  1.00  0.00     0.001 A 
HETATM   23  C17 UNL     1      22.643  -1.228  54.992  1.00  0.00     0.000 A 
HETATM   24  C18 UNL     1      23.894  -0.940  54.495  1.00  0.00     0.001 A 
HETATM   25  C19 UNL     1      24.053   0.074  53.583  1.00  0.00     0.014 A 
ENDBRANCH   9  20
TORSDOF 2
ENDMDL
MODEL 9
REMARK VINA RESULT:      -7.3      3.212      7.347
REMARK  2 active torsions:
REMARK  status: ('A' for Active; 'I' for Inactive)
REMARK    1  A    between atoms: C2_2  and  C3_3 
REMARK    2  A    between atoms: C13_16  and  C14_17 
ROOT
HETATM    1  C1  UNL     1      22.232   5.438  51.810  1.00  0.00     0.069 C 
HETATM    2  C2  UNL     1      23.213   4.719  51.014  1.00  0.00     0.132 C 
HETATM    3  N1  UNL     1      24.471   4.694  51.862  1.00  0.00    -0.346 N 
HETATM    4  C9  UNL     1      24.597   3.204  51.905  1.00  0.00     0.101 C 
HETATM    5  C10 UNL     1      25.314   2.762  50.805  1.00  0.00     0.041 C 
HETATM    6  C11 UNL     1      24.130   2.943  49.814  1.00  0.00     0.156 C 
HETATM    7  N2  UNL     1      22.953   3.289  50.676  1.00  0.00    -0.354 N 
HETATM    8  C12 UNL     1      21.920   2.375  51.226  1.00  0.00     0.119 C 
HETATM    9  C13 UNL     1      22.635   1.888  52.322  1.00  0.00     0.059 C 
HETATM   10  N3  UNL     1      23.915   2.342  52.960  1.00  0.00    -0.341 N 
HETATM   11  H8  UNL     1      24.708   5.702  52.052  1.00  0.00     0.164 HD
HETATM   12  H18 UNL     1      24.177   2.063  53.951  1.00  0.00     0.167 HD
ENDROOT
BRANCH   2  13
HETATM   13  C3  UNL     1      23.438   5.464  49.770  1.00  0.00    -0.010 A 
HETATM   14  C4  UNL     1      22.715   5.461  48.600  1.00  0.00     0.014 A 
HETATM   15  C5  UNL     1      23.096   6.224  47.515  1.00  0.00     0.043 A 
HETATM   16  C6  UNL     1      24.217   7.035  47.529  1.00  0.00     0.116 A 
HETATM   17  F1  UNL     1      24.469   7.722  46.403  1.00  0.00    -0.206 F 
HETATM   18  C7  UNL     1      24.943   7.040  48.695  1.00  0.00     0.043 A 
HETATM   19  C8  UNL     1      24.575   6.283  49.789  1.00  0.00     0.014 A 
ENDBRANCH   2  13
BRANCH   9  20
HETATM   20  C14 UNL     1      22.042   0.720  53.003  1.00  0.00    -0.008 A 
HETATM   21  C15 UNL     1      20.717   0.379  52.965  1.00  0.00     0.014 A 
HETATM   22  C16 UNL     1      20.142  -0.710  53.576  1.00  0.00     0.001 A 
HETATM   23  C17 UNL     1      20.942  -1.562  54.306  1.00  0.00     0.000 A 
HETATM   24  C18 UNL     1      22.286  -1.269  54.380  1.00  0.00     0.001 A 
HETATM   25  C19 UNL     1      22.782  -0.160  53.739  1.00  0.00     0.014 A 
ENDBRANCH   9  20
TORSDOF 2
ENDMDL
