MODEL 1
REMARK VINA RESULT:      -7.1      0.000      0.000
REMARK  10 active torsions:
REMARK  status: ('A' for Active; 'I' for Inactive)
REMARK    1  A    between atoms: O1_2  and  C2_3 
REMARK    2  A    between atoms: C2_3  and  C3_5 
REMARK    3  A    between atoms: C3_5  and  C4_6 
REMARK    4  A    between atoms: C4_6  and  C5_7 
REMARK    5  A    between atoms: C6_8  and  S1_9 
REMARK    6  A    between atoms: S1_9  and  C7_10 
REMARK    7  A    between atoms: C7_10  and  C8_11 
REMARK    8  A    between atoms: C8_11  and  C10_13 
REMARK    9  A    between atoms: C10_13  and  C11_14 
REMARK   10  A    between atoms: C11_14  and  O4_16 
ROOT
HETATM    1  C5  UNL     1      22.187   1.388  51.869  1.00  0.00    -0.030 A 
HETATM    2  C6  UNL     1      23.239   2.183  51.675  1.00  0.00     0.002 A 
HETATM    3  C13 UNL     1      22.937   2.270  50.263  1.00  0.00    -0.009 A 
HETATM    4  C14 UNL     1      23.340   2.816  49.060  1.00  0.00     0.013 A 
HETATM    5  C15 UNL     1      22.556   2.488  47.965  1.00  0.00     0.001 A 
HETATM    6  C16 UNL     1      21.441   1.661  48.099  1.00  0.00     0.001 A 
HETATM    7  C17 UNL     1      21.093   1.144  49.339  1.00  0.00     0.013 A 
HETATM    8  C18 UNL     1      21.847   1.447  50.457  1.00  0.00    -0.017 A 
ENDROOT
BRANCH   2   9
HETATM    9  S1  UNL     1      24.366   2.727  52.937  1.00  0.00    -0.203 SA
BRANCH   9  10
HETATM   10  C7  UNL     1      25.486   1.390  53.325  1.00  0.00     0.177 C 
BRANCH  10  11
HETATM   11  C8  UNL     1      26.090   0.245  53.627  1.00  0.00    -0.012 C 
HETATM   12  C9  UNL     1      26.294  -1.097  52.967  1.00  0.00     0.018 C 
BRANCH  11  13
HETATM   13  C10 UNL     1      26.784   0.136  54.937  1.00  0.00     0.122 C 
BRANCH  13  14
HETATM   14  C11 UNL     1      28.265   0.302  54.819  1.00  0.00     0.259 C 
HETATM   15  O3  UNL     1      28.797   1.442  54.921  1.00  0.00    -0.265 OA
BRANCH  14  16
HETATM   16  O4  UNL     1      29.150  -0.765  54.591  1.00  0.00    -0.326 OA
HETATM   17  C12 UNL     1      30.026  -0.806  53.499  1.00  0.00     0.213 C 
ENDBRANCH  14  16
ENDBRANCH  13  14
ENDBRANCH  11  13
ENDBRANCH  10  11
ENDBRANCH   9  10
ENDBRANCH   2   9
BRANCH   1  18
HETATM   18  C4  UNL     1      21.532   0.685  52.978  1.00  0.00     0.050 C 
BRANCH  18  19
HETATM   19  C3  UNL     1      22.227  -0.630  53.267  1.00  0.00     0.116 C 
BRANCH  19  20
HETATM   20  C2  UNL     1      21.475  -1.444  54.247  1.00  0.00     0.258 C 
HETATM   21  O2  UNL     1      20.251  -1.619  53.986  1.00  0.00    -0.265 OA
BRANCH  20  22
HETATM   22  O1  UNL     1      22.163  -1.933  55.346  1.00  0.00    -0.326 OA
HETATM   23  C1  UNL     1      23.450  -1.455  55.610  1.00  0.00     0.213 C 
ENDBRANCH  20  22
ENDBRANCH  19  20
ENDBRANCH  18  19
ENDBRANCH   1  18
TORSDOF 10
ENDMDL
MODEL 2
REMARK VINA RESULT:      -7.0      3.139      6.003
REMARK  10 active torsions:
REMARK  status: ('A' for Active; 'I' for Inactive)
REMARK    1  A    between atoms: O1_2  and  C2_3 
REMARK    2  A    between atoms: C2_3  and  C3_5 
REMARK    3  A    between atoms: C3_5  and  C4_6 
REMARK    4  A    between atoms: C4_6  and  C5_7 
REMARK    5  A    between atoms: C6_8  and  S1_9 
REMARK    6  A    between atoms: S1_9  and  C7_10 
REMARK    7  A    between atoms: C7_10  and  C8_11 
REMARK    8  A    between atoms: C8_11  and  C10_13 
REMARK    9  A    between atoms: C10_13  and  C11_14 
REMARK   10  A    between atoms: C11_14  and  O4_16 
ROOT
HETATM    1  C5  UNL     1      25.027   0.124  53.119  1.00  0.00    -0.030 A 
HETATM    2  C6  UNL     1      25.176   1.064  52.185  1.00  0.00     0.002 A 
HETATM    3  C13 UNL     1      23.745   1.109  51.977  1.00  0.00    -0.009 A 
HETATM    4  C14 UNL     1      22.733   1.711  51.253  1.00  0.00     0.013 A 
HETATM    5  C15 UNL     1      21.451   1.276  51.547  1.00  0.00     0.001 A 
HETATM    6  C16 UNL     1      21.226   0.295  52.513  1.00  0.00     0.001 A 
HETATM    7  C17 UNL     1      22.290  -0.269  53.204  1.00  0.00     0.013 A 
HETATM    8  C18 UNL     1      23.585   0.137  52.943  1.00  0.00    -0.017 A 
ENDROOT
BRANCH   2   9
HETATM    9  S1  UNL     1      26.724   1.762  51.662  1.00  0.00    -0.203 SA
BRANCH   9  10
HETATM   10  C7  UNL     1      26.398   3.122  50.550  1.00  0.00     0.177 C 
BRANCH  10  11
HETATM   11  C8  UNL     1      26.384   4.047  49.596  1.00  0.00    -0.012 C 
HETATM   12  C9  UNL     1      27.404   4.771  48.752  1.00  0.00     0.018 C 
BRANCH  11  13
HETATM   13  C10 UNL     1      25.071   4.590  49.158  1.00  0.00     0.122 C 
BRANCH  13  14
HETATM   14  C11 UNL     1      24.775   5.928  49.755  1.00  0.00     0.259 C 
HETATM   15  O3  UNL     1      24.793   6.971  49.044  1.00  0.00    -0.265 OA
BRANCH  14  16
HETATM   16  O4  UNL     1      24.463   6.121  51.111  1.00  0.00    -0.326 OA
HETATM   17  C12 UNL     1      23.545   5.320  51.801  1.00  0.00     0.213 C 
ENDBRANCH  14  16
ENDBRANCH  13  14
ENDBRANCH  11  13
ENDBRANCH  10  11
ENDBRANCH   9  10
ENDBRANCH   2   9
BRANCH   1  18
HETATM   18  C4  UNL     1      25.870  -0.669  54.021  1.00  0.00     0.050 C 
BRANCH  18  19
HETATM   19  C3  UNL     1      26.610   0.227  54.994  1.00  0.00     0.116 C 
BRANCH  19  20
HETATM   20  C2  UNL     1      28.075   0.149  54.804  1.00  0.00     0.258 C 
HETATM   21  O2  UNL     1      28.730   1.156  55.194  1.00  0.00    -0.265 OA
BRANCH  20  22
HETATM   22  O1  UNL     1      28.592  -0.999  54.225  1.00  0.00    -0.326 OA
HETATM   23  C1  UNL     1      29.758  -0.907  53.458  1.00  0.00     0.213 C 
ENDBRANCH  20  22
ENDBRANCH  19  20
ENDBRANCH  18  19
ENDBRANCH   1  18
TORSDOF 10
ENDMDL
MODEL 3
REMARK VINA RESULT:      -6.9      2.601      6.213
REMARK  10 active torsions:
REMARK  status: ('A' for Active; 'I' for Inactive)
REMARK    1  A    between atoms: O1_2  and  C2_3 
REMARK    2  A    between atoms: C2_3  and  C3_5 
REMARK    3  A    between atoms: C3_5  and  C4_6 
REMARK    4  A    between atoms: C4_6  and  C5_7 
REMARK    5  A    between atoms: C6_8  and  S1_9 
REMARK    6  A    between atoms: S1_9  and  C7_10 
REMARK    7  A    between atoms: C7_10  and  C8_11 
REMARK    8  A    between atoms: C8_11  and  C10_13 
REMARK    9  A    between atoms: C10_13  and  C11_14 
REMARK   10  A    between atoms: C11_14  and  O4_16 
ROOT
HETATM    1  C5  UNL     1      24.516   0.034  53.498  1.00  0.00    -0.030 A 
HETATM    2  C6  UNL     1      23.999   1.122  52.928  1.00  0.00     0.002 A 
HETATM    3  C13 UNL     1      22.660   0.676  53.244  1.00  0.00    -0.009 A 
HETATM    4  C14 UNL     1      21.318   0.989  53.144  1.00  0.00     0.013 A 
HETATM    5  C15 UNL     1      20.448   0.063  53.698  1.00  0.00     0.001 A 
HETATM    6  C16 UNL     1      20.923  -1.097  54.310  1.00  0.00     0.001 A 
HETATM    7  C17 UNL     1      22.286  -1.350  54.375  1.00  0.00     0.013 A 
HETATM    8  C18 UNL     1      23.189  -0.453  53.836  1.00  0.00    -0.017 A 
ENDROOT
BRANCH   2   9
HETATM    9  S1  UNL     1      24.933   2.429  52.166  1.00  0.00    -0.203 SA
BRANCH   9  10
HETATM   10  C7  UNL     1      24.068   2.980  50.704  1.00  0.00     0.177 C 
BRANCH  10  11
HETATM   11  C8  UNL     1      23.640   3.285  49.482  1.00  0.00    -0.012 C 
HETATM   12  C9  UNL     1      22.845   2.604  48.395  1.00  0.00     0.018 C 
BRANCH  11  13
HETATM   13  C10 UNL     1      23.973   4.625  48.931  1.00  0.00     0.122 C 
BRANCH  13  14
HETATM   14  C11 UNL     1      25.300   5.127  49.401  1.00  0.00     0.259 C 
HETATM   15  O3  UNL     1      26.372   4.637  48.951  1.00  0.00    -0.265 OA
BRANCH  14  16
HETATM   16  O4  UNL     1      25.449   6.152  50.351  1.00  0.00    -0.326 OA
HETATM   17  C12 UNL     1      24.365   6.725  51.028  1.00  0.00     0.213 C 
ENDBRANCH  14  16
ENDBRANCH  13  14
ENDBRANCH  11  13
ENDBRANCH  10  11
ENDBRANCH   9  10
ENDBRANCH   2   9
BRANCH   1  18
HETATM   18  C4  UNL     1      25.838  -0.550  53.751  1.00  0.00     0.050 C 
BRANCH  18  19
HETATM   19  C3  UNL     1      26.547   0.186  54.869  1.00  0.00     0.116 C 
BRANCH  19  20
HETATM   20  C2  UNL     1      28.016   0.144  54.707  1.00  0.00     0.258 C 
HETATM   21  O2  UNL     1      28.642   1.156  55.134  1.00  0.00    -0.265 OA
BRANCH  20  22
HETATM   22  O1  UNL     1      28.570  -0.978  54.112  1.00  0.00    -0.326 OA
HETATM   23  C1  UNL     1      29.876  -0.911  53.617  1.00  0.00     0.213 C 
ENDBRANCH  20  22
ENDBRANCH  19  20
ENDBRANCH  18  19
ENDBRANCH   1  18
TORSDOF 10
ENDMDL
MODEL 4
REMARK VINA RESULT:      -6.8      2.678      6.334
REMARK  10 active torsions:
REMARK  status: ('A' for Active; 'I' for Inactive)
REMARK    1  A    between atoms: O1_2  and  C2_3 
REMARK    2  A    between atoms: C2_3  and  C3_5 
REMARK    3  A    between atoms: C3_5  and  C4_6 
REMARK    4  A    between atoms: C4_6  and  C5_7 
REMARK    5  A    between atoms: C6_8  and  S1_9 
REMARK    6  A    between atoms: S1_9  and  C7_10 
REMARK    7  A    between atoms: C7_10  and  C8_11 
REMARK    8  A    between atoms: C8_11  and  C10_13 
REMARK    9  A    between atoms: C10_13  and  C11_14 
REMARK   10  A    between atoms: C11_14  and  O4_16 
ROOT
HETATM    1  C5  UNL     1      24.683  -0.093  53.515  1.00  0.00    -0.030 A 
HETATM    2  C6  UNL     1      24.259   0.886  52.716  1.00  0.00     0.002 A 
HETATM    3  C13 UNL     1      22.885   0.602  53.067  1.00  0.00    -0.009 A 
HETATM    4  C14 UNL     1      21.571   0.975  52.856  1.00  0.00     0.013 A 
HETATM    5  C15 UNL     1      20.624   0.242  53.555  1.00  0.00     0.001 A 
HETATM    6  C16 UNL     1      21.001  -0.794  54.408  1.00  0.00     0.001 A 
HETATM    7  C17 UNL     1      22.341  -1.117  54.575  1.00  0.00     0.013 A 
HETATM    8  C18 UNL     1      23.317  -0.412  53.897  1.00  0.00    -0.017 A 
ENDROOT
BRANCH   2   9
HETATM    9  S1  UNL     1      25.300   1.943  51.738  1.00  0.00    -0.203 SA
BRANCH   9  10
HETATM   10  C7  UNL     1      24.288   2.813  50.551  1.00  0.00     0.177 C 
BRANCH  10  11
HETATM   11  C8  UNL     1      23.326   3.354  49.811  1.00  0.00    -0.012 C 
HETATM   12  C9  UNL     1      22.885   3.298  48.368  1.00  0.00     0.018 C 
BRANCH  11  13
HETATM   13  C10 UNL     1      22.365   4.280  50.468  1.00  0.00     0.122 C 
BRANCH  13  14
HETATM   14  C11 UNL     1      22.997   5.089  51.554  1.00  0.00     0.259 C 
HETATM   15  O3  UNL     1      22.755   4.842  52.768  1.00  0.00    -0.265 OA
BRANCH  14  16
HETATM   16  O4  UNL     1      23.882   6.154  51.313  1.00  0.00    -0.326 OA
HETATM   17  C12 UNL     1      23.468   7.378  50.773  1.00  0.00     0.213 C 
ENDBRANCH  14  16
ENDBRANCH  13  14
ENDBRANCH  11  13
ENDBRANCH  10  11
ENDBRANCH   9  10
ENDBRANCH   2   9
BRANCH   1  18
HETATM   18  C4  UNL     1      25.954  -0.696  53.932  1.00  0.00     0.050 C 
BRANCH  18  19
HETATM   19  C3  UNL     1      26.673   0.193  54.926  1.00  0.00     0.116 C 
BRANCH  19  20
HETATM   20  C2  UNL     1      28.139   0.147  54.742  1.00  0.00     0.258 C 
HETATM   21  O2  UNL     1      28.775   1.154  55.163  1.00  0.00    -0.265 OA
BRANCH  20  22
HETATM   22  O1  UNL     1      28.680  -0.976  54.135  1.00  0.00    -0.326 OA
HETATM   23  C1  UNL     1      29.961  -0.898  53.580  1.00  0.00     0.213 C 
ENDBRANCH  20  22
ENDBRANCH  19  20
ENDBRANCH  18  19
ENDBRANCH   1  18
TORSDOF 10
ENDMDL
MODEL 5
REMARK VINA RESULT:      -6.7      3.136      6.434
REMARK  10 active torsions:
REMARK  status: ('A' for Active; 'I' for Inactive)
REMARK    1  A    between atoms: O1_2  and  C2_3 
REMARK    2  A    between atoms: C2_3  and  C3_5 
REMARK    3  A    between atoms: C3_5  and  C4_6 
REMARK    4  A    between atoms: C4_6  and  C5_7 
REMARK    5  A    between atoms: C6_8  and  S1_9 
REMARK    6  A    between atoms: S1_9  and  C7_10 
REMARK    7  A    between atoms: C7_10  and  C8_11 
REMARK    8  A    between atoms: C8_11  and  C10_13 
REMARK    9  A    between atoms: C10_13  and  C11_14 
REMARK   10  A    between atoms: C11_14  and  O4_16 
ROOT
HETATM    1  C5  UNL     1      24.479   0.798  52.336  1.00  0.00    -0.030 A 
HETATM    2  C6  UNL     1      23.257   1.118  51.912  1.00  0.00     0.002 A 
HETATM    3  C13 UNL     1      22.663   0.354  52.987  1.00  0.00    -0.009 A 
HETATM    4  C14 UNL     1      21.469  -0.041  53.559  1.00  0.00     0.013 A 
HETATM    5  C15 UNL     1      21.583  -0.847  54.680  1.00  0.00     0.001 A 
HETATM    6  C16 UNL     1      22.833  -1.218  55.176  1.00  0.00     0.001 A 
HETATM    7  C17 UNL     1      23.995  -0.786  54.552  1.00  0.00     0.013 A 
HETATM    8  C18 UNL     1      23.926   0.020  53.432  1.00  0.00    -0.017 A 
ENDROOT
BRANCH   2   9
HETATM    9  S1  UNL     1      22.889   2.138  50.504  1.00  0.00    -0.203 SA
BRANCH   9  10
HETATM   10  C7  UNL     1      24.297   3.184  50.165  1.00  0.00     0.177 C 
BRANCH  10  11
HETATM   11  C8  UNL     1      25.263   3.940  49.652  1.00  0.00    -0.012 C 
HETATM   12  C9  UNL     1      26.751   3.820  49.428  1.00  0.00     0.018 C 
BRANCH  11  13
HETATM   13  C10 UNL     1      24.905   5.284  49.126  1.00  0.00     0.122 C 
BRANCH  13  14
HETATM   14  C11 UNL     1      24.981   6.350  50.171  1.00  0.00     0.259 C 
HETATM   15  O3  UNL     1      25.960   7.145  50.212  1.00  0.00    -0.265 OA
BRANCH  14  16
HETATM   16  O4  UNL     1      23.999   6.540  51.158  1.00  0.00    -0.326 OA
HETATM   17  C12 UNL     1      22.628   6.400  50.903  1.00  0.00     0.213 C 
ENDBRANCH  14  16
ENDBRANCH  13  14
ENDBRANCH  11  13
ENDBRANCH  10  11
ENDBRANCH   9  10
ENDBRANCH   2   9
BRANCH   1  18
HETATM   18  C4  UNL     1      25.874   1.055  51.959  1.00  0.00     0.050 C 
BRANCH  18  19
HETATM   19  C3  UNL     1      26.748  -0.140  52.281  1.00  0.00     0.116 C 
BRANCH  19  20
HETATM   20  C2  UNL     1      27.693   0.153  53.380  1.00  0.00     0.258 C 
HETATM   21  O2  UNL     1      27.472  -0.452  54.467  1.00  0.00    -0.265 OA
BRANCH  20  22
HETATM   22  O1  UNL     1      28.720   1.050  53.129  1.00  0.00    -0.326 OA
HETATM   23  C1  UNL     1      28.718   2.286  53.784  1.00  0.00     0.213 C 
ENDBRANCH  20  22
ENDBRANCH  19  20
ENDBRANCH  18  19
ENDBRANCH   1  18
TORSDOF 10
ENDMDL
MODEL 6
REMARK VINA RESULT:      -6.7      2.214      6.871
REMARK  10 active torsions:
REMARK  status: ('A' for Active; 'I' for Inactive)
REMARK    1  A    between atoms: O1_2  and  C2_3 
REMARK    2  A    between atoms: C2_3  and  C3_5 
REMARK    3  A    between atoms: C3_5  and  C4_6 
REMARK    4  A    between atoms: C4_6  and  C5_7 
REMARK    5  A    between atoms: C6_8  and  S1_9 
REMARK    6  A    between atoms: S1_9  and  C7_10 
REMARK    7  A    between atoms: C7_10  and  C8_11 
REMARK    8  A    between atoms: C8_11  and  C10_13 
REMARK    9  A    between atoms: C10_13  and  C11_14 
REMARK   10  A    between atoms: C11_14  and  O4_16 
ROOT
HETATM    1  C5  UNL     1      24.665   0.044  53.447  1.00  0.00    -0.030 A 
HETATM    2  C6  UNL     1      24.068   1.045  52.799  1.00  0.00     0.002 A 
HETATM    3  C13 UNL     1      22.772   0.592  53.256  1.00  0.00    -0.009 A 
HETATM    4  C14 UNL     1      21.415   0.847  53.216  1.00  0.00     0.013 A 
HETATM    5  C15 UNL     1      20.621  -0.039  53.927  1.00  0.00     0.001 A 
HETATM    6  C16 UNL     1      21.183  -1.107  54.627  1.00  0.00     0.001 A 
HETATM    7  C17 UNL     1      22.556  -1.306  54.624  1.00  0.00     0.013 A 
HETATM    8  C18 UNL     1      23.384  -0.445  53.929  1.00  0.00    -0.017 A 
ENDROOT
BRANCH   2   9
HETATM    9  S1  UNL     1      24.896   2.288  51.837  1.00  0.00    -0.203 SA
BRANCH   9  10
HETATM   10  C7  UNL     1      23.934   2.617  50.368  1.00  0.00     0.177 C 
BRANCH  10  11
HETATM   11  C8  UNL     1      23.018   2.729  49.410  1.00  0.00    -0.012 C 
HETATM   12  C9  UNL     1      22.748   3.657  48.251  1.00  0.00     0.018 C 
BRANCH  11  13
HETATM   13  C10 UNL     1      21.916   1.732  49.366  1.00  0.00     0.122 C 
BRANCH  13  14
HETATM   14  C11 UNL     1      20.579   2.340  49.646  1.00  0.00     0.259 C 
HETATM   15  O3  UNL     1      19.618   2.185  48.843  1.00  0.00    -0.265 OA
BRANCH  14  16
HETATM   16  O4  UNL     1      20.301   3.108  50.789  1.00  0.00    -0.326 OA
HETATM   17  C12 UNL     1      20.017   4.479  50.734  1.00  0.00     0.213 C 
ENDBRANCH  14  16
ENDBRANCH  13  14
ENDBRANCH  11  13
ENDBRANCH  10  11
ENDBRANCH   9  10
ENDBRANCH   2   9
BRANCH   1  18
HETATM   18  C4  UNL     1      26.024  -0.463  53.670  1.00  0.00     0.050 C 
BRANCH  18  19
HETATM   19  C3  UNL     1      26.685   0.257  54.827  1.00  0.00     0.116 C 
BRANCH  19  20
HETATM   20  C2  UNL     1      28.154   0.318  54.667  1.00  0.00     0.258 C 
HETATM   21  O2  UNL     1      28.731  -0.793  54.494  1.00  0.00    -0.265 OA
BRANCH  20  22
HETATM   22  O1  UNL     1      28.760   1.563  54.721  1.00  0.00    -0.326 OA
HETATM   23  C1  UNL     1      28.624   2.433  53.635  1.00  0.00     0.213 C 
ENDBRANCH  20  22
ENDBRANCH  19  20
ENDBRANCH  18  19
ENDBRANCH   1  18
TORSDOF 10
ENDMDL
MODEL 7
REMARK VINA RESULT:      -6.7      2.499      6.841
REMARK  10 active torsions:
REMARK  status: ('A' for Active; 'I' for Inactive)
REMARK    1  A    between atoms: O1_2  and  C2_3 
REMARK    2  A    between atoms: C2_3  and  C3_5 
REMARK    3  A    between atoms: C3_5  and  C4_6 
REMARK    4  A    between atoms: C4_6  and  C5_7 
REMARK    5  A    between atoms: C6_8  and  S1_9 
REMARK    6  A    between atoms: S1_9  and  C7_10 
REMARK    7  A    between atoms: C7_10  and  C8_11 
REMARK    8  A    between atoms: C8_11  and  C10_13 
REMARK    9  A    between atoms: C10_13  and  C11_14 
REMARK   10  A    between atoms: C11_14  and  O4_16 
ROOT
HETATM    1  C5  UNL     1      24.664   0.154  53.113  1.00  0.00    -0.030 A 
HETATM    2  C6  UNL     1      23.951   1.042  52.420  1.00  0.00     0.002 A 
HETATM    3  C13 UNL     1      22.730   0.568  53.034  1.00  0.00    -0.009 A 
HETATM    4  C14 UNL     1      21.360   0.739  53.088  1.00  0.00     0.013 A 
HETATM    5  C15 UNL     1      20.687  -0.108  53.955  1.00  0.00     0.001 A 
HETATM    6  C16 UNL     1      21.374  -1.059  54.710  1.00  0.00     0.001 A 
HETATM    7  C17 UNL     1      22.753  -1.178  54.607  1.00  0.00     0.013 A 
HETATM    8  C18 UNL     1      23.462  -0.353  53.755  1.00  0.00    -0.017 A 
ENDROOT
BRANCH   2   9
HETATM    9  S1  UNL     1      24.612   2.218  51.263  1.00  0.00    -0.203 SA
BRANCH   9  10
HETATM   10  C7  UNL     1      23.728   3.760  51.439  1.00  0.00     0.177 C 
BRANCH  10  11
HETATM   11  C8  UNL     1      22.854   4.761  51.483  1.00  0.00    -0.012 C 
HETATM   12  C9  UNL     1      22.734   6.142  50.886  1.00  0.00     0.018 C 
BRANCH  11  13
HETATM   13  C10 UNL     1      21.628   4.593  52.308  1.00  0.00     0.122 C 
BRANCH  13  14
HETATM   14  C11 UNL     1      20.515   3.936  51.556  1.00  0.00     0.259 C 
HETATM   15  O3  UNL     1      19.437   3.629  52.137  1.00  0.00    -0.265 OA
BRANCH  14  16
HETATM   16  O4  UNL     1      20.582   3.620  50.189  1.00  0.00    -0.326 OA
HETATM   17  C12 UNL     1      19.526   3.859  49.300  1.00  0.00     0.213 C 
ENDBRANCH  14  16
ENDBRANCH  13  14
ENDBRANCH  11  13
ENDBRANCH  10  11
ENDBRANCH   9  10
ENDBRANCH   2   9
BRANCH   1  18
HETATM   18  C4  UNL     1      26.067  -0.247  53.266  1.00  0.00     0.050 C 
BRANCH  18  19
HETATM   19  C3  UNL     1      26.602   0.171  54.621  1.00  0.00     0.116 C 
BRANCH  19  20
HETATM   20  C2  UNL     1      28.080   0.124  54.664  1.00  0.00     0.258 C 
HETATM   21  O2  UNL     1      28.645   1.148  55.142  1.00  0.00    -0.265 OA
BRANCH  20  22
HETATM   22  O1  UNL     1      28.705  -1.016  54.186  1.00  0.00    -0.326 OA
HETATM   23  C1  UNL     1      29.939  -0.894  53.539  1.00  0.00     0.213 C 
ENDBRANCH  20  22
ENDBRANCH  19  20
ENDBRANCH  18  19
ENDBRANCH   1  18
TORSDOF 10
ENDMDL
MODEL 8
REMARK VINA RESULT:      -6.7      3.331      5.967
REMARK  10 active torsions:
REMARK  status: ('A' for Active; 'I' for Inactive)
REMARK    1  A    between atoms: O1_2  and  C2_3 
REMARK    2  A    between atoms: C2_3  and  C3_5 
REMARK    3  A    between atoms: C3_5  and  C4_6 
REMARK    4  A    between atoms: C4_6  and  C5_7 
REMARK    5  A    between atoms: C6_8  and  S1_9 
REMARK    6  A    between atoms: S1_9  and  C7_10 
REMARK    7  A    between atoms: C7_10  and  C8_11 
REMARK    8  A    between atoms: C8_11  and  C10_13 
REMARK    9  A    between atoms: C10_13  and  C11_14 
REMARK   10  A    between atoms: C11_14  and  O4_16 
ROOT
HETATM    1  C5  UNL     1      24.175   1.230  53.033  1.00  0.00    -0.030 A 
HETATM    2  C6  UNL     1      23.139   2.033  52.792  1.00  0.00     0.002 A 
HETATM    3  C13 UNL     1      22.217   0.998  53.208  1.00  0.00    -0.009 A 
HETATM    4  C14 UNL     1      20.883   0.685  53.383  1.00  0.00     0.013 A 
HETATM    5  C15 UNL     1      20.627  -0.592  53.855  1.00  0.00     0.001 A 
HETATM    6  C16 UNL     1      21.667  -1.481  54.128  1.00  0.00     0.001 A 
HETATM    7  C17 UNL     1      22.987  -1.102  53.929  1.00  0.00     0.013 A 
HETATM    8  C18 UNL     1      23.286   0.163  53.460  1.00  0.00    -0.017 A 
ENDROOT
BRANCH   2   9
HETATM    9  S1  UNL     1      23.245   3.701  52.190  1.00  0.00    -0.203 SA
BRANCH   9  10
HETATM   10  C7  UNL     1      24.570   3.801  50.996  1.00  0.00     0.177 C 
BRANCH  10  11
HETATM   11  C8  UNL     1      25.383   4.041  49.972  1.00  0.00    -0.012 C 
HETATM   12  C9  UNL     1      26.687   3.486  49.452  1.00  0.00     0.018 C 
BRANCH  11  13
HETATM   13  C10 UNL     1      25.018   5.119  49.016  1.00  0.00     0.122 C 
BRANCH  13  14
HETATM   14  C11 UNL     1      25.897   6.322  49.144  1.00  0.00     0.259 C 
HETATM   15  O3  UNL     1      25.908   7.004  50.206  1.00  0.00    -0.265 OA
BRANCH  14  16
HETATM   16  O4  UNL     1      26.750   6.771  48.122  1.00  0.00    -0.326 OA
HETATM   17  C12 UNL     1      28.137   6.573  48.147  1.00  0.00     0.213 C 
ENDBRANCH  14  16
ENDBRANCH  13  14
ENDBRANCH  11  13
ENDBRANCH  10  11
ENDBRANCH   9  10
ENDBRANCH   2   9
BRANCH   1  18
HETATM   18  C4  UNL     1      25.640   1.275  52.951  1.00  0.00     0.050 C 
BRANCH  18  19
HETATM   19  C3  UNL     1      26.185   0.002  52.338  1.00  0.00     0.116 C 
BRANCH  19  20
HETATM   20  C2  UNL     1      26.855  -0.849  53.345  1.00  0.00     0.258 C 
HETATM   21  O2  UNL     1      27.054  -2.048  53.002  1.00  0.00    -0.265 OA
BRANCH  20  22
HETATM   22  O1  UNL     1      27.199  -0.268  54.556  1.00  0.00    -0.326 OA
HETATM   23  C1  UNL     1      28.538   0.054  54.799  1.00  0.00     0.213 C 
ENDBRANCH  20  22
ENDBRANCH  19  20
ENDBRANCH  18  19
ENDBRANCH   1  18
TORSDOF 10
ENDMDL
MODEL 9
REMARK VINA RESULT:      -6.6      2.702      6.871
REMARK  10 active torsions:
REMARK  status: ('A' for Active; 'I' for Inactive)
REMARK    1  A    between atoms: O1_2  and  C2_3 
REMARK    2  A    between atoms: C2_3  and  C3_5 
REMARK    3  A    between atoms: C3_5  and  C4_6 
REMARK    4  A    between atoms: C4_6  and  C5_7 
REMARK    5  A    between atoms: C6_8  and  S1_9 
REMARK    6  A    between atoms: S1_9  and  C7_10 
REMARK    7  A    between atoms: C7_10  and  C8_11 
REMARK    8  A    between atoms: C8_11  and  C10_13 
REMARK    9  A    between atoms: C10_13  and  C11_14 
REMARK   10  A    between atoms: C11_14  and  O4_16 
ROOT
HETATM    1  C5  UNL     1      24.674   0.195  53.207  1.00  0.00    -0.030 A 
HETATM    2  C6  UNL     1      24.013   1.139  52.536  1.00  0.00     0.002 A 
HETATM    3  C13 UNL     1      22.763   0.704  53.119  1.00  0.00    -0.009 A 
HETATM    4  C14 UNL     1      21.402   0.938  53.164  1.00  0.00     0.013 A 
HETATM    5  C15 UNL     1      20.679   0.095  53.993  1.00  0.00     0.001 A 
HETATM    6  C16 UNL     1      21.309  -0.913  54.722  1.00  0.00     0.001 A 
HETATM    7  C17 UNL     1      22.682  -1.094  54.631  1.00  0.00     0.013 A 
HETATM    8  C18 UNL     1      23.441  -0.275  53.816  1.00  0.00    -0.017 A 
ENDROOT
BRANCH   2   9
HETATM    9  S1  UNL     1      24.745   2.321  51.429  1.00  0.00    -0.203 SA
BRANCH   9  10
HETATM   10  C7  UNL     1      23.630   2.596  50.060  1.00  0.00     0.177 C 
BRANCH  10  11
HETATM   11  C8  UNL     1      23.027   2.891  48.913  1.00  0.00    -0.012 C 
HETATM   12  C9  UNL     1      22.497   2.130  47.722  1.00  0.00     0.018 C 
BRANCH  11  13
HETATM   13  C10 UNL     1      22.746   4.319  48.609  1.00  0.00     0.122 C 
BRANCH  13  14
HETATM   14  C11 UNL     1      21.665   4.889  49.471  1.00  0.00     0.259 C 
HETATM   15  O3  UNL     1      21.802   6.018  50.017  1.00  0.00    -0.265 OA
BRANCH  14  16
HETATM   16  O4  UNL     1      20.453   4.229  49.733  1.00  0.00    -0.326 OA
HETATM   17  C12 UNL     1      19.844   4.228  50.994  1.00  0.00     0.213 C 
ENDBRANCH  14  16
ENDBRANCH  13  14
ENDBRANCH  11  13
ENDBRANCH  10  11
ENDBRANCH   9  10
ENDBRANCH   2   9
BRANCH   1  18
HETATM   18  C4  UNL     1      26.054  -0.278  53.362  1.00  0.00     0.050 C 
BRANCH  18  19
HETATM   19  C3  UNL     1      26.622   0.146  54.701  1.00  0.00     0.116 C 
BRANCH  19  20
HETATM   20  C2  UNL     1      28.100   0.117  54.703  1.00  0.00     0.258 C 
HETATM   21  O2  UNL     1      28.666   1.153  55.154  1.00  0.00    -0.265 OA
BRANCH  20  22
HETATM   22  O1  UNL     1      28.726  -1.021  54.219  1.00  0.00    -0.326 OA
HETATM   23  C1  UNL     1      29.875  -0.883  53.433  1.00  0.00     0.213 C 
ENDBRANCH  20  22
ENDBRANCH  19  20
ENDBRANCH  18  19
ENDBRANCH   1  18
TORSDOF 10
ENDMDL
