MODEL 1
REMARK VINA RESULT:      -9.0      0.000      0.000
REMARK  6 active torsions:
REMARK  status: ('A' for Active; 'I' for Inactive)
REMARK    1  A    between atoms: N1_2  and  C2_3 
REMARK    2  A    between atoms: N1_2  and  C5_7 
REMARK    3  A    between atoms: C2_3  and  C3_4 
REMARK    4  A    between atoms: C6_9  and  C7_10 
REMARK    5  A    between atoms: C7_10  and  C8_11 
REMARK    6  A    between atoms: C12_15  and  O2_16 
ROOT
HETATM    1  C5  UNL     1      26.637   1.418  52.814  1.00  0.00     0.164 A 
HETATM    2  N2  UNL     1      26.621   2.202  51.722  1.00  0.00    -0.209 NA
HETATM    3  C6  UNL     1      25.537   2.414  50.954  1.00  0.00     0.152 A 
HETATM    4  N3  UNL     1      24.365   1.802  51.286  1.00  0.00    -0.226 NA
HETATM    5  C14 UNL     1      24.327   1.000  52.378  1.00  0.00     0.111 A 
HETATM    6  C15 UNL     1      25.458   0.790  53.165  1.00  0.00     0.153 A 
HETATM    7  O3  UNL     1      25.188  -0.007  54.149  1.00  0.00    -0.285 OA
HETATM    8  C16 UNL     1      23.934  -0.391  54.127  1.00  0.00     0.182 A 
HETATM    9  N4  UNL     1      23.182  -1.205  54.922  1.00  0.00    -0.236 NA
HETATM   10  C17 UNL     1      21.865  -1.414  54.631  1.00  0.00     0.119 A 
HETATM   11  C18 UNL     1      21.281  -0.806  53.535  1.00  0.00     0.020 A 
HETATM   12  C19 UNL     1      22.035   0.023  52.720  1.00  0.00     0.020 A 
HETATM   13  C20 UNL     1      23.375   0.232  53.022  1.00  0.00     0.049 A 
ENDROOT
BRANCH   3  14
HETATM   14  C7  UNL     1      25.613   3.289  49.776  1.00  0.00     0.060 C 
BRANCH  14  15
HETATM   15  C8  UNL     1      25.686   4.611  49.797  1.00  0.00    -0.048 A 
HETATM   16  C9  UNL     1      26.609   5.338  48.952  1.00  0.00     0.007 A 
HETATM   17  C10 UNL     1      26.682   6.655  48.978  1.00  0.00     0.003 A 
HETATM   18  C11 UNL     1      25.842   7.453  49.855  1.00  0.00     0.032 A 
HETATM   19  C12 UNL     1      24.995   6.816  50.633  1.00  0.00     0.047 A 
HETATM   20  C13 UNL     1      24.789   5.339  50.721  1.00  0.00     0.102 A 
BRANCH  19  21
HETATM   21  O2  UNL     1      24.165   7.546  51.494  1.00  0.00    -0.365 OA
HETATM   22  H13 UNL     1      23.935   7.180  52.411  1.00  0.00     0.217 HD
ENDBRANCH  19  21
ENDBRANCH  14  15
ENDBRANCH   3  14
BRANCH   1  23
HETATM   23  N1  UNL     1      27.866   1.298  53.521  1.00  0.00    -0.365 N 
HETATM   24  C1  UNL     1      28.790   2.397  53.764  1.00  0.00     0.151 C 
BRANCH  23  25
HETATM   25  C2  UNL     1      28.330   0.049  54.079  1.00  0.00     0.158 C 
BRANCH  25  26
HETATM   26  C3  UNL     1      28.702  -0.947  53.012  1.00  0.00     0.163 A 
HETATM   27  C4  UNL     1      29.275  -2.237  53.405  1.00  0.00     0.201 A 
HETATM   28  O1  UNL     1      27.894  -2.182  53.211  1.00  0.00    -0.380 OA
ENDBRANCH  25  26
ENDBRANCH  23  25
ENDBRANCH   1  23
TORSDOF 6
ENDMDL
MODEL 2
REMARK VINA RESULT:      -8.9      2.379      6.279
REMARK  6 active torsions:
REMARK  status: ('A' for Active; 'I' for Inactive)
REMARK    1  A    between atoms: N1_2  and  C2_3 
REMARK    2  A    between atoms: N1_2  and  C5_7 
REMARK    3  A    between atoms: C2_3  and  C3_4 
REMARK    4  A    between atoms: C6_9  and  C7_10 
REMARK    5  A    between atoms: C7_10  and  C8_11 
REMARK    6  A    between atoms: C12_15  and  O2_16 
ROOT
HETATM    1  C5  UNL     1      25.980   0.228  52.987  1.00  0.00     0.164 A 
HETATM    2  N2  UNL     1      24.821  -0.273  53.448  1.00  0.00    -0.209 NA
HETATM    3  C6  UNL     1      23.603   0.165  53.079  1.00  0.00     0.152 A 
HETATM    4  N3  UNL     1      23.515   1.184  52.178  1.00  0.00    -0.226 NA
HETATM    5  C14 UNL     1      24.655   1.725  51.683  1.00  0.00     0.111 A 
HETATM    6  C15 UNL     1      25.910   1.262  52.074  1.00  0.00     0.153 A 
HETATM    7  O3  UNL     1      26.847   1.923  51.475  1.00  0.00    -0.285 OA
HETATM    8  C16 UNL     1      26.356   2.838  50.674  1.00  0.00     0.182 A 
HETATM    9  N4  UNL     1      26.914   3.765  49.845  1.00  0.00    -0.236 NA
HETATM   10  C17 UNL     1      26.114   4.600  49.119  1.00  0.00     0.119 A 
HETATM   11  C18 UNL     1      24.737   4.515  49.215  1.00  0.00     0.020 A 
HETATM   12  C19 UNL     1      24.158   3.576  50.054  1.00  0.00     0.020 A 
HETATM   13  C20 UNL     1      24.978   2.729  50.790  1.00  0.00     0.049 A 
ENDROOT
BRANCH   3  14
HETATM   14  C7  UNL     1      22.388  -0.444  53.637  1.00  0.00     0.060 C 
BRANCH  14  15
HETATM   15  C8  UNL     1      21.174  -0.368  53.115  1.00  0.00    -0.048 A 
HETATM   16  C9  UNL     1      20.938   0.219  51.813  1.00  0.00     0.007 A 
HETATM   17  C10 UNL     1      19.726   0.297  51.298  1.00  0.00     0.003 A 
HETATM   18  C11 UNL     1      18.557  -0.203  52.004  1.00  0.00     0.032 A 
HETATM   19  C12 UNL     1      18.746  -0.741  53.188  1.00  0.00     0.047 A 
HETATM   20  C13 UNL     1      20.045  -0.905  53.907  1.00  0.00     0.102 A 
BRANCH  19  21
HETATM   21  O2  UNL     1      17.648  -1.235  53.904  1.00  0.00    -0.365 OA
HETATM   22  H13 UNL     1      17.123  -2.027  53.550  1.00  0.00     0.217 HD
ENDBRANCH  19  21
ENDBRANCH  14  15
ENDBRANCH   3  14
BRANCH   1  23
HETATM   23  N1  UNL     1      27.187  -0.346  53.477  1.00  0.00    -0.365 N 
HETATM   24  C1  UNL     1      27.808  -1.546  52.936  1.00  0.00     0.151 C 
BRANCH  23  25
HETATM   25  C2  UNL     1      27.931   0.216  54.580  1.00  0.00     0.158 C 
BRANCH  25  26
HETATM   26  C3  UNL     1      29.121   1.015  54.116  1.00  0.00     0.163 A 
HETATM   27  C4  UNL     1      28.948   2.434  53.797  1.00  0.00     0.201 A 
HETATM   28  O1  UNL     1      29.365   2.115  55.089  1.00  0.00    -0.380 OA
ENDBRANCH  25  26
ENDBRANCH  23  25
ENDBRANCH   1  23
TORSDOF 6
ENDMDL
MODEL 3
REMARK VINA RESULT:      -8.9      1.569      4.336
REMARK  6 active torsions:
REMARK  status: ('A' for Active; 'I' for Inactive)
REMARK    1  A    between atoms: N1_2  and  C2_3 
REMARK    2  A    between atoms: N1_2  and  C5_7 
REMARK    3  A    between atoms: C2_3  and  C3_4 
REMARK    4  A    between atoms: C6_9  and  C7_10 
REMARK    5  A    between atoms: C7_10  and  C8_11 
REMARK    6  A    between atoms: C12_15  and  O2_16 
ROOT
HETATM    1  C5  UNL     1      23.848   1.509  51.867  1.00  0.00     0.164 A 
HETATM    2  N2  UNL     1      23.895   2.414  50.873  1.00  0.00    -0.209 NA
HETATM    3  C6  UNL     1      25.003   3.083  50.505  1.00  0.00     0.152 A 
HETATM    4  N3  UNL     1      26.169   2.842  51.171  1.00  0.00    -0.226 NA
HETATM    5  C14 UNL     1      26.175   1.939  52.181  1.00  0.00     0.111 A 
HETATM    6  C15 UNL     1      25.020   1.254  52.552  1.00  0.00     0.153 A 
HETATM    7  O3  UNL     1      25.262   0.448  53.535  1.00  0.00    -0.285 OA
HETATM    8  C16 UNL     1      26.520   0.503  53.904  1.00  0.00     0.182 A 
HETATM    9  N4  UNL     1      27.251  -0.133  54.863  1.00  0.00    -0.236 NA
HETATM   10  C17 UNL     1      28.580   0.147  55.005  1.00  0.00     0.119 A 
HETATM   11  C18 UNL     1      29.196   1.072  54.182  1.00  0.00     0.020 A 
HETATM   12  C19 UNL     1      28.464   1.724  53.204  1.00  0.00     0.020 A 
HETATM   13  C20 UNL     1      27.111   1.435  53.064  1.00  0.00     0.049 A 
ENDROOT
BRANCH   3  14
HETATM   14  C7  UNL     1      24.960   4.055  49.405  1.00  0.00     0.060 C 
BRANCH  14  15
HETATM   15  C8  UNL     1      25.587   5.221  49.376  1.00  0.00    -0.048 A 
HETATM   16  C9  UNL     1      26.799   5.417  48.611  1.00  0.00     0.007 A 
HETATM   17  C10 UNL     1      27.424   6.580  48.588  1.00  0.00     0.003 A 
HETATM   18  C11 UNL     1      26.932   7.730  49.328  1.00  0.00     0.032 A 
HETATM   19  C12 UNL     1      25.832   7.577  50.031  1.00  0.00     0.047 A 
HETATM   20  C13 UNL     1      25.011   6.335  50.160  1.00  0.00     0.102 A 
BRANCH  19  21
HETATM   21  O2  UNL     1      25.323   8.660  50.760  1.00  0.00    -0.365 OA
HETATM   22  H13 UNL     1      24.328   8.853  50.755  1.00  0.00     0.217 HD
ENDBRANCH  19  21
ENDBRANCH  14  15
ENDBRANCH   3  14
BRANCH   1  23
HETATM   23  N1  UNL     1      22.596   0.888  52.133  1.00  0.00    -0.365 N 
HETATM   24  C1  UNL     1      21.655   0.455  51.110  1.00  0.00     0.151 C 
BRANCH  23  25
HETATM   25  C2  UNL     1      22.124   0.619  53.472  1.00  0.00     0.158 C 
BRANCH  25  26
HETATM   26  C3  UNL     1      22.130  -0.853  53.792  1.00  0.00     0.163 A 
HETATM   27  C4  UNL     1      22.658  -1.303  55.082  1.00  0.00     0.201 A 
HETATM   28  O1  UNL     1      21.283  -1.083  54.994  1.00  0.00    -0.380 OA
ENDBRANCH  25  26
ENDBRANCH  23  25
ENDBRANCH   1  23
TORSDOF 6
ENDMDL
MODEL 4
REMARK VINA RESULT:      -8.6      1.703      6.280
REMARK  6 active torsions:
REMARK  status: ('A' for Active; 'I' for Inactive)
REMARK    1  A    between atoms: N1_2  and  C2_3 
REMARK    2  A    between atoms: N1_2  and  C5_7 
REMARK    3  A    between atoms: C2_3  and  C3_4 
REMARK    4  A    between atoms: C6_9  and  C7_10 
REMARK    5  A    between atoms: C7_10  and  C8_11 
REMARK    6  A    between atoms: C12_15  and  O2_16 
ROOT
HETATM    1  C5  UNL     1      24.286   2.406  51.451  1.00  0.00     0.164 A 
HETATM    2  N2  UNL     1      25.533   2.312  51.947  1.00  0.00    -0.209 NA
HETATM    3  C6  UNL     1      25.894   1.485  52.946  1.00  0.00     0.152 A 
HETATM    4  N3  UNL     1      24.948   0.679  53.507  1.00  0.00    -0.226 NA
HETATM    5  C14 UNL     1      23.675   0.735  53.044  1.00  0.00     0.111 A 
HETATM    6  C15 UNL     1      23.316   1.597  52.009  1.00  0.00     0.153 A 
HETATM    7  O3  UNL     1      22.056   1.480  51.735  1.00  0.00    -0.285 OA
HETATM    8  C16 UNL     1      21.476   0.590  52.504  1.00  0.00     0.182 A 
HETATM    9  N4  UNL     1      20.202   0.117  52.605  1.00  0.00    -0.236 NA
HETATM   10  C17 UNL     1      19.900  -0.838  53.532  1.00  0.00     0.119 A 
HETATM   11  C18 UNL     1      20.878  -1.336  54.373  1.00  0.00     0.020 A 
HETATM   12  C19 UNL     1      22.178  -0.863  54.280  1.00  0.00     0.020 A 
HETATM   13  C20 UNL     1      22.478   0.109  53.334  1.00  0.00     0.049 A 
ENDROOT
BRANCH   3  14
HETATM   14  C7  UNL     1      27.282   1.450  53.424  1.00  0.00     0.060 C 
BRANCH  14  15
HETATM   15  C8  UNL     1      28.080   0.394  53.409  1.00  0.00    -0.048 A 
HETATM   16  C9  UNL     1      29.487   0.495  53.732  1.00  0.00     0.007 A 
HETATM   17  C10 UNL     1      30.280  -0.559  53.713  1.00  0.00     0.003 A 
HETATM   18  C11 UNL     1      29.789  -1.883  53.367  1.00  0.00     0.032 A 
HETATM   19  C12 UNL     1      28.514  -2.001  53.070  1.00  0.00     0.047 A 
HETATM   20  C13 UNL     1      27.490  -0.914  53.047  1.00  0.00     0.102 A 
BRANCH  19  21
HETATM   21  O2  UNL     1      27.998  -3.259  52.731  1.00  0.00    -0.365 OA
HETATM   22  H13 UNL     1      27.004  -3.375  52.570  1.00  0.00     0.217 HD
ENDBRANCH  19  21
ENDBRANCH  14  15
ENDBRANCH   3  14
BRANCH   1  23
HETATM   23  N1  UNL     1      24.067   3.331  50.392  1.00  0.00    -0.365 N 
HETATM   24  C1  UNL     1      23.522   2.979  49.089  1.00  0.00     0.151 C 
BRANCH  23  25
HETATM   25  C2  UNL     1      24.368   4.739  50.506  1.00  0.00     0.158 C 
BRANCH  25  26
HETATM   26  C3  UNL     1      25.527   5.144  49.633  1.00  0.00     0.163 A 
HETATM   27  C4  UNL     1      25.360   6.257  48.695  1.00  0.00     0.201 A 
HETATM   28  O1  UNL     1      25.892   6.552  49.950  1.00  0.00    -0.380 OA
ENDBRANCH  25  26
ENDBRANCH  23  25
ENDBRANCH   1  23
TORSDOF 6
ENDMDL
MODEL 5
REMARK VINA RESULT:      -8.5      1.548      2.159
REMARK  6 active torsions:
REMARK  status: ('A' for Active; 'I' for Inactive)
REMARK    1  A    between atoms: N1_2  and  C2_3 
REMARK    2  A    between atoms: N1_2  and  C5_7 
REMARK    3  A    between atoms: C2_3  and  C3_4 
REMARK    4  A    between atoms: C6_9  and  C7_10 
REMARK    5  A    between atoms: C7_10  and  C8_11 
REMARK    6  A    between atoms: C12_15  and  O2_16 
ROOT
HETATM    1  C5  UNL     1      25.865   0.432  52.763  1.00  0.00     0.164 A 
HETATM    2  N2  UNL     1      26.073   1.436  51.894  1.00  0.00    -0.209 NA
HETATM    3  C6  UNL     1      25.094   2.120  51.272  1.00  0.00     0.152 A 
HETATM    4  N3  UNL     1      23.796   1.787  51.527  1.00  0.00    -0.226 NA
HETATM    5  C14 UNL     1      23.532   0.781  52.396  1.00  0.00     0.111 A 
HETATM    6  C15 UNL     1      24.557   0.082  53.032  1.00  0.00     0.153 A 
HETATM    7  O3  UNL     1      24.071  -0.829  53.812  1.00  0.00    -0.285 OA
HETATM    8  C16 UNL     1      22.759  -0.839  53.784  1.00  0.00     0.182 A 
HETATM    9  N4  UNL     1      21.808  -1.587  54.410  1.00  0.00    -0.236 NA
HETATM   10  C17 UNL     1      20.485  -1.351  54.167  1.00  0.00     0.119 A 
HETATM   11  C18 UNL     1      20.099  -0.354  53.290  1.00  0.00     0.020 A 
HETATM   12  C19 UNL     1      21.057   0.413  52.648  1.00  0.00     0.020 A 
HETATM   13  C20 UNL     1      22.401   0.167  52.899  1.00  0.00     0.049 A 
ENDROOT
BRANCH   3  14
HETATM   14  C7  UNL     1      25.416   3.205  50.336  1.00  0.00     0.060 C 
BRANCH  14  15
HETATM   15  C8  UNL     1      24.665   4.267  50.093  1.00  0.00    -0.048 A 
HETATM   16  C9  UNL     1      23.787   4.334  48.945  1.00  0.00     0.007 A 
HETATM   17  C10 UNL     1      23.041   5.396  48.703  1.00  0.00     0.003 A 
HETATM   18  C11 UNL     1      23.057   6.559  49.575  1.00  0.00     0.032 A 
HETATM   19  C12 UNL     1      23.846   6.522  50.625  1.00  0.00     0.047 A 
HETATM   20  C13 UNL     1      24.745   5.402  51.038  1.00  0.00     0.102 A 
BRANCH  19  21
HETATM   21  O2  UNL     1      23.893   7.621  51.493  1.00  0.00    -0.365 OA
HETATM   22  H13 UNL     1      23.310   7.640  52.322  1.00  0.00     0.217 HD
ENDBRANCH  19  21
ENDBRANCH  14  15
ENDBRANCH   3  14
BRANCH   1  23
HETATM   23  N1  UNL     1      27.010  -0.191  53.336  1.00  0.00    -0.365 N 
HETATM   24  C1  UNL     1      27.570  -1.458  52.890  1.00  0.00     0.151 C 
BRANCH  23  25
HETATM   25  C2  UNL     1      27.743   0.383  54.440  1.00  0.00     0.158 C 
BRANCH  25  26
HETATM   26  C3  UNL     1      28.984   1.105  53.984  1.00  0.00     0.163 A 
HETATM   27  C4  UNL     1      28.902   2.530  53.654  1.00  0.00     0.201 A 
HETATM   28  O1  UNL     1      29.285   2.195  54.953  1.00  0.00    -0.380 OA
ENDBRANCH  25  26
ENDBRANCH  23  25
ENDBRANCH   1  23
TORSDOF 6
ENDMDL
MODEL 6
REMARK VINA RESULT:      -8.4      2.689      7.736
REMARK  6 active torsions:
REMARK  status: ('A' for Active; 'I' for Inactive)
REMARK    1  A    between atoms: N1_2  and  C2_3 
REMARK    2  A    between atoms: N1_2  and  C5_7 
REMARK    3  A    between atoms: C2_3  and  C3_4 
REMARK    4  A    between atoms: C6_9  and  C7_10 
REMARK    5  A    between atoms: C7_10  and  C8_11 
REMARK    6  A    between atoms: C12_15  and  O2_16 
ROOT
HETATM    1  C5  UNL     1      24.209   3.908  50.633  1.00  0.00     0.164 A 
HETATM    2  N2  UNL     1      24.593   2.733  51.164  1.00  0.00    -0.209 NA
HETATM    3  C6  UNL     1      25.829   2.213  51.047  1.00  0.00     0.152 A 
HETATM    4  N3  UNL     1      26.771   2.907  50.347  1.00  0.00    -0.226 NA
HETATM    5  C14 UNL     1      26.435   4.097  49.791  1.00  0.00     0.111 A 
HETATM    6  C15 UNL     1      25.151   4.623  49.921  1.00  0.00     0.153 A 
HETATM    7  O3  UNL     1      25.061   5.762  49.312  1.00  0.00    -0.285 OA
HETATM    8  C16 UNL     1      26.197   6.098  48.748  1.00  0.00     0.182 A 
HETATM    9  N4  UNL     1      26.604   7.170  48.012  1.00  0.00    -0.236 NA
HETATM   10  C17 UNL     1      27.887   7.233  47.551  1.00  0.00     0.119 A 
HETATM   11  C18 UNL     1      28.784   6.217  47.825  1.00  0.00     0.020 A 
HETATM   12  C19 UNL     1      28.382   5.122  48.572  1.00  0.00     0.020 A 
HETATM   13  C20 UNL     1      27.074   5.064  49.038  1.00  0.00     0.049 A 
ENDROOT
BRANCH   3  14
HETATM   14  C7  UNL     1      26.159   0.921  51.662  1.00  0.00     0.060 C 
BRANCH  14  15
HETATM   15  C8  UNL     1      27.182   0.685  52.467  1.00  0.00    -0.048 A 
HETATM   16  C9  UNL     1      27.653  -0.658  52.730  1.00  0.00     0.007 A 
HETATM   17  C10 UNL     1      28.672  -0.890  53.537  1.00  0.00     0.003 A 
HETATM   18  C11 UNL     1      29.381   0.188  54.207  1.00  0.00     0.032 A 
HETATM   19  C12 UNL     1      28.972   1.417  53.984  1.00  0.00     0.047 A 
HETATM   20  C13 UNL     1      27.843   1.845  53.104  1.00  0.00     0.102 A 
BRANCH  19  21
HETATM   21  O2  UNL     1      29.627   2.486  54.610  1.00  0.00    -0.365 OA
HETATM   22  H13 UNL     1      29.788   2.469  55.611  1.00  0.00     0.217 HD
ENDBRANCH  19  21
ENDBRANCH  14  15
ENDBRANCH   3  14
BRANCH   1  23
HETATM   23  N1  UNL     1      22.864   4.319  50.848  1.00  0.00    -0.365 N 
HETATM   24  C1  UNL     1      22.103   5.161  49.936  1.00  0.00     0.151 C 
BRANCH  23  25
HETATM   25  C2  UNL     1      22.103   3.936  52.015  1.00  0.00     0.158 C 
BRANCH  25  26
HETATM   26  C3  UNL     1      20.966   3.010  51.673  1.00  0.00     0.163 A 
HETATM   27  C4  UNL     1      20.352   2.208  52.734  1.00  0.00     0.201 A 
HETATM   28  O1  UNL     1      19.759   3.436  52.435  1.00  0.00    -0.380 OA
ENDBRANCH  25  26
ENDBRANCH  23  25
ENDBRANCH   1  23
TORSDOF 6
ENDMDL
MODEL 7
REMARK VINA RESULT:      -8.4      2.446      6.612
REMARK  6 active torsions:
REMARK  status: ('A' for Active; 'I' for Inactive)
REMARK    1  A    between atoms: N1_2  and  C2_3 
REMARK    2  A    between atoms: N1_2  and  C5_7 
REMARK    3  A    between atoms: C2_3  and  C3_4 
REMARK    4  A    between atoms: C6_9  and  C7_10 
REMARK    5  A    between atoms: C7_10  and  C8_11 
REMARK    6  A    between atoms: C12_15  and  O2_16 
ROOT
HETATM    1  C5  UNL     1      23.043   2.247  52.226  1.00  0.00     0.164 A 
HETATM    2  N2  UNL     1      24.267   1.719  52.052  1.00  0.00    -0.209 NA
HETATM    3  C6  UNL     1      25.304   2.369  51.492  1.00  0.00     0.152 A 
HETATM    4  N3  UNL     1      25.122   3.652  51.064  1.00  0.00    -0.226 NA
HETATM    5  C14 UNL     1      23.906   4.231  51.216  1.00  0.00     0.111 A 
HETATM    6  C15 UNL     1      22.842   3.545  51.799  1.00  0.00     0.153 A 
HETATM    7  O3  UNL     1      21.785   4.291  51.839  1.00  0.00    -0.285 OA
HETATM    8  C16 UNL     1      22.012   5.476  51.323  1.00  0.00     0.182 A 
HETATM    9  N4  UNL     1      21.245   6.587  51.138  1.00  0.00    -0.236 NA
HETATM   10  C17 UNL     1      21.784   7.698  50.555  1.00  0.00     0.119 A 
HETATM   11  C18 UNL     1      23.105   7.709  50.149  1.00  0.00     0.020 A 
HETATM   12  C19 UNL     1      23.895   6.585  50.332  1.00  0.00     0.020 A 
HETATM   13  C20 UNL     1      23.341   5.458  50.926  1.00  0.00     0.049 A 
ENDROOT
BRANCH   3  14
HETATM   14  C7  UNL     1      26.608   1.711  51.342  1.00  0.00     0.060 C 
BRANCH  14  15
HETATM   15  C8  UNL     1      27.354   1.238  52.327  1.00  0.00    -0.048 A 
HETATM   16  C9  UNL     1      27.363  -0.168  52.671  1.00  0.00     0.007 A 
HETATM   17  C10 UNL     1      28.106  -0.636  53.657  1.00  0.00     0.003 A 
HETATM   18  C11 UNL     1      28.957   0.231  54.454  1.00  0.00     0.032 A 
HETATM   19  C12 UNL     1      28.967   1.512  54.162  1.00  0.00     0.047 A 
HETATM   20  C13 UNL     1      28.191   2.196  53.083  1.00  0.00     0.102 A 
BRANCH  19  21
HETATM   21  O2  UNL     1      29.773   2.384  54.905  1.00  0.00    -0.365 OA
HETATM   22  H13 UNL     1      29.659   2.451  55.910  1.00  0.00     0.217 HD
ENDBRANCH  19  21
ENDBRANCH  14  15
ENDBRANCH   3  14
BRANCH   1  23
HETATM   23  N1  UNL     1      22.052   1.428  52.837  1.00  0.00    -0.365 N 
HETATM   24  C1  UNL     1      20.632   1.742  52.878  1.00  0.00     0.151 C 
BRANCH  23  25
HETATM   25  C2  UNL     1      22.364   0.177  53.490  1.00  0.00     0.158 C 
BRANCH  25  26
HETATM   26  C3  UNL     1      21.255  -0.279  54.402  1.00  0.00     0.163 A 
HETATM   27  C4  UNL     1      20.718  -1.634  54.255  1.00  0.00     0.201 A 
HETATM   28  O1  UNL     1      21.736  -1.447  55.190  1.00  0.00    -0.380 OA
ENDBRANCH  25  26
ENDBRANCH  23  25
ENDBRANCH   1  23
TORSDOF 6
ENDMDL
MODEL 8
REMARK VINA RESULT:      -8.2      2.265      7.097
REMARK  6 active torsions:
REMARK  status: ('A' for Active; 'I' for Inactive)
REMARK    1  A    between atoms: N1_2  and  C2_3 
REMARK    2  A    between atoms: N1_2  and  C5_7 
REMARK    3  A    between atoms: C2_3  and  C3_4 
REMARK    4  A    between atoms: C6_9  and  C7_10 
REMARK    5  A    between atoms: C7_10  and  C8_11 
REMARK    6  A    between atoms: C12_15  and  O2_16 
ROOT
HETATM    1  C5  UNL     1      23.048   1.929  51.739  1.00  0.00     0.164 A 
HETATM    2  N2  UNL     1      23.801   0.969  52.304  1.00  0.00    -0.209 NA
HETATM    3  C6  UNL     1      25.139   0.880  52.182  1.00  0.00     0.152 A 
HETATM    4  N3  UNL     1      25.795   1.817  51.440  1.00  0.00    -0.226 NA
HETATM    5  C14 UNL     1      25.083   2.807  50.849  1.00  0.00     0.111 A 
HETATM    6  C15 UNL     1      23.698   2.886  50.984  1.00  0.00     0.153 A 
HETATM    7  O3  UNL     1      23.234   3.907  50.337  1.00  0.00    -0.285 OA
HETATM    8  C16 UNL     1      24.192   4.575  49.740  1.00  0.00     0.182 A 
HETATM    9  N4  UNL     1      24.219   5.691  48.959  1.00  0.00    -0.236 NA
HETATM   10  C17 UNL     1      25.407   6.155  48.472  1.00  0.00     0.119 A 
HETATM   11  C18 UNL     1      26.590   5.502  48.765  1.00  0.00     0.020 A 
HETATM   12  C19 UNL     1      26.576   4.366  49.558  1.00  0.00     0.020 A 
HETATM   13  C20 UNL     1      25.363   3.899  50.050  1.00  0.00     0.049 A 
ENDROOT
BRANCH   3  14
HETATM   14  C7  UNL     1      25.879  -0.206  52.837  1.00  0.00     0.060 C 
BRANCH  14  15
HETATM   15  C8  UNL     1      27.157  -0.176  53.179  1.00  0.00    -0.048 A 
HETATM   16  C9  UNL     1      28.029  -1.314  52.980  1.00  0.00     0.007 A 
HETATM   17  C10 UNL     1      29.302  -1.281  53.327  1.00  0.00     0.003 A 
HETATM   18  C11 UNL     1      29.904  -0.102  53.926  1.00  0.00     0.032 A 
HETATM   19  C12 UNL     1      29.133   0.945  54.117  1.00  0.00     0.047 A 
HETATM   20  C13 UNL     1      27.683   1.070  53.781  1.00  0.00     0.102 A 
BRANCH  19  21
HETATM   21  O2  UNL     1      29.672   2.104  54.692  1.00  0.00    -0.365 OA
HETATM   22  H13 UNL     1      29.181   2.987  54.614  1.00  0.00     0.217 HD
ENDBRANCH  19  21
ENDBRANCH  14  15
ENDBRANCH   3  14
BRANCH   1  23
HETATM   23  N1  UNL     1      21.644   1.884  51.964  1.00  0.00    -0.365 N 
HETATM   24  C1  UNL     1      20.822   3.040  52.289  1.00  0.00     0.151 C 
BRANCH  23  25
HETATM   25  C2  UNL     1      20.878   0.661  51.891  1.00  0.00     0.158 C 
BRANCH  25  26
HETATM   26  C3  UNL     1      20.119   0.389  53.163  1.00  0.00     0.163 A 
HETATM   27  C4  UNL     1      19.144  -0.704  53.195  1.00  0.00     0.201 A 
HETATM   28  O1  UNL     1      20.441  -0.990  53.624  1.00  0.00    -0.380 OA
ENDBRANCH  25  26
ENDBRANCH  23  25
ENDBRANCH   1  23
TORSDOF 6
ENDMDL
MODEL 9
REMARK VINA RESULT:      -8.2      2.859      7.974
REMARK  6 active torsions:
REMARK  status: ('A' for Active; 'I' for Inactive)
REMARK    1  A    between atoms: N1_2  and  C2_3 
REMARK    2  A    between atoms: N1_2  and  C5_7 
REMARK    3  A    between atoms: C2_3  and  C3_4 
REMARK    4  A    between atoms: C6_9  and  C7_10 
REMARK    5  A    between atoms: C7_10  and  C8_11 
REMARK    6  A    between atoms: C12_15  and  O2_16 
ROOT
HETATM    1  C5  UNL     1      24.164   4.184  50.299  1.00  0.00     0.164 A 
HETATM    2  N2  UNL     1      24.523   3.042  50.910  1.00  0.00    -0.209 NA
HETATM    3  C6  UNL     1      25.770   2.536  50.906  1.00  0.00     0.152 A 
HETATM    4  N3  UNL     1      26.752   3.211  50.244  1.00  0.00    -0.226 NA
HETATM    5  C14 UNL     1      26.443   4.369  49.611  1.00  0.00     0.111 A 
HETATM    6  C15 UNL     1      25.147   4.881  49.623  1.00  0.00     0.153 A 
HETATM    7  O3  UNL     1      25.087   5.989  48.957  1.00  0.00    -0.285 OA
HETATM    8  C16 UNL     1      26.257   6.317  48.460  1.00  0.00     0.182 A 
HETATM    9  N4  UNL     1      26.703   7.360  47.707  1.00  0.00    -0.236 NA
HETATM   10  C17 UNL     1      28.016   7.422  47.336  1.00  0.00     0.119 A 
HETATM   11  C18 UNL     1      28.902   6.433  47.721  1.00  0.00     0.020 A 
HETATM   12  C19 UNL     1      28.460   5.367  48.488  1.00  0.00     0.020 A 
HETATM   13  C20 UNL     1      27.123   5.310  48.861  1.00  0.00     0.049 A 
ENDROOT
BRANCH   3  14
HETATM   14  C7  UNL     1      26.070   1.278  51.603  1.00  0.00     0.060 C 
BRANCH  14  15
HETATM   15  C8  UNL     1      27.094   1.067  52.413  1.00  0.00    -0.048 A 
HETATM   16  C9  UNL     1      27.776   2.155  53.081  1.00  0.00     0.007 A 
HETATM   17  C10 UNL     1      28.800   1.941  53.886  1.00  0.00     0.003 A 
HETATM   18  C11 UNL     1      29.303   0.603  54.150  1.00  0.00     0.032 A 
HETATM   19  C12 UNL     1      28.701  -0.402  53.555  1.00  0.00     0.047 A 
HETATM   20  C13 UNL     1      27.535  -0.330  52.622  1.00  0.00     0.102 A 
BRANCH  19  21
HETATM   21  O2  UNL     1      29.153  -1.709  53.780  1.00  0.00    -0.365 OA
HETATM   22  H13 UNL     1      30.124  -1.878  54.016  1.00  0.00     0.217 HD
ENDBRANCH  19  21
ENDBRANCH  14  15
ENDBRANCH   3  14
BRANCH   1  23
HETATM   23  N1  UNL     1      22.802   4.585  50.397  1.00  0.00    -0.365 N 
HETATM   24  C1  UNL     1      22.326   5.703  51.198  1.00  0.00     0.151 C 
BRANCH  23  25
HETATM   25  C2  UNL     1      21.734   3.908  49.698  1.00  0.00     0.158 C 
BRANCH  25  26
HETATM   26  C3  UNL     1      22.126   3.527  48.294  1.00  0.00     0.163 A 
HETATM   27  C4  UNL     1      22.243   2.110  47.944  1.00  0.00     0.201 A 
HETATM   28  O1  UNL     1      21.021   2.732  47.690  1.00  0.00    -0.380 OA
ENDBRANCH  25  26
ENDBRANCH  23  25
ENDBRANCH   1  23
TORSDOF 6
ENDMDL
