MODEL 1
REMARK VINA RESULT:      -6.4      0.000      0.000
REMARK  10 active torsions:
REMARK  status: ('A' for Active; 'I' for Inactive)
REMARK    1  A    between atoms: O1_2  and  C2_3 
REMARK    2  A    between atoms: C2_3  and  C3_5 
REMARK    3  A    between atoms: C3_5  and  C4_6 
REMARK    4  A    between atoms: C4_6  and  C5_7 
REMARK    5  A    between atoms: C5_7  and  C6_8 
REMARK    6  A    between atoms: C6_8  and  C7_9 
REMARK    7  A    between atoms: C7_9  and  C8_10 
REMARK    8  A    between atoms: C16_19  and  C17_20 
REMARK    9  A    between atoms: C17_20  and  C18_21 
REMARK   10  A    between atoms: C18_21  and  O4_23 
ROOT
HETATM    1  C8  UNL     1      21.866   3.049  52.148  1.00  0.00     0.033 C 
HETATM    2  C9  UNL     1      20.999   2.341  53.003  1.00  0.00     0.326 C 
HETATM    3  N1  UNL     1      20.278   1.155  52.752  1.00  0.00     0.092 NA
HETATM    4  C10 UNL     1      21.096  -0.043  52.560  1.00  0.00     0.297 C 
HETATM    5  C11 UNL     1      21.540   0.027  51.132  1.00  0.00     0.003 C 
HETATM    6  C12 UNL     1      20.983   0.835  50.250  1.00  0.00    -0.004 C 
HETATM    7  C13 UNL     1      20.705   1.524  48.991  1.00  0.00     0.007 C 
HETATM    8  C14 UNL     1      19.931   2.377  48.428  1.00  0.00     0.084 A 
HETATM    9  C15 UNL     1      18.860   3.303  48.289  1.00  0.00     0.053 C 
HETATM   10  C16 UNL     1      19.655   4.520  48.931  1.00  0.00     0.020 C 
HETATM   11  C20 UNL     1      20.560   3.922  48.259  1.00  0.00     0.117 A 
HETATM   12  S1  UNL     1      21.887   5.153  48.655  1.00  0.00    -0.115 SA
HETATM   13  C21 UNL     1      22.965   4.248  49.896  1.00  0.00     0.196 C 
HETATM   14  N2  UNL     1      22.124   3.775  50.968  1.00  0.00    -0.383 N 
HETATM   15  N3  UNL     1      21.106   2.781  47.708  1.00  0.00    -0.381 N 
HETATM   16  C22 UNL     1      22.289   2.733  46.903  1.00  0.00     0.146 C 
HETATM   17  H11 UNL     1      19.571   1.000  53.469  1.00  0.00     0.316 HD
HETATM   18  H26 UNL     1      21.124   4.080  50.977  1.00  0.00     0.160 HD
ENDROOT
BRANCH   1  19
HETATM   19  C7  UNL     1      23.165   3.241  52.497  1.00  0.00     0.027 C 
BRANCH  19  20
HETATM   20  C6  UNL     1      23.851   2.022  52.901  1.00  0.00     0.014 C 
BRANCH  20  21
HETATM   21  C5  UNL     1      24.794   1.345  52.280  1.00  0.00    -0.029 C 
BRANCH  21  22
HETATM   22  C4  UNL     1      25.971   0.726  52.191  1.00  0.00    -0.005 C 
BRANCH  22  23
HETATM   23  C3  UNL     1      26.110  -0.437  53.079  1.00  0.00     0.139 C 
BRANCH  23  24
HETATM   24  C2  UNL     1      26.860   0.057  54.283  1.00  0.00     0.261 C 
HETATM   25  O2  UNL     1      26.638   0.979  55.107  1.00  0.00    -0.265 OA
BRANCH  24  26
HETATM   26  O1  UNL     1      28.061  -0.514  54.704  1.00  0.00    -0.326 OA
HETATM   27  C1  UNL     1      29.198  -0.576  53.846  1.00  0.00     0.213 C 
ENDBRANCH  24  26
ENDBRANCH  23  24
ENDBRANCH  22  23
ENDBRANCH  21  22
ENDBRANCH  20  21
ENDBRANCH  19  20
ENDBRANCH   1  19
BRANCH  10  28
HETATM   28  C17 UNL     1      18.867   5.401  49.775  1.00  0.00     0.125 C 
BRANCH  28  29
HETATM   29  C18 UNL     1      18.195   4.529  50.809  1.00  0.00     0.259 C 
HETATM   30  O3  UNL     1      18.374   3.746  51.763  1.00  0.00    -0.265 OA
BRANCH  29  31
HETATM   31  O4  UNL     1      16.817   4.413  50.908  1.00  0.00    -0.326 OA
HETATM   32  C19 UNL     1      16.187   4.144  52.138  1.00  0.00     0.213 C 
ENDBRANCH  29  31
ENDBRANCH  28  29
ENDBRANCH  10  28
TORSDOF 10
ENDMDL
MODEL 2
REMARK VINA RESULT:      -6.4      2.308      3.630
REMARK  10 active torsions:
REMARK  status: ('A' for Active; 'I' for Inactive)
REMARK    1  A    between atoms: O1_2  and  C2_3 
REMARK    2  A    between atoms: C2_3  and  C3_5 
REMARK    3  A    between atoms: C3_5  and  C4_6 
REMARK    4  A    between atoms: C4_6  and  C5_7 
REMARK    5  A    between atoms: C5_7  and  C6_8 
REMARK    6  A    between atoms: C6_8  and  C7_9 
REMARK    7  A    between atoms: C7_9  and  C8_10 
REMARK    8  A    between atoms: C16_19  and  C17_20 
REMARK    9  A    between atoms: C17_20  and  C18_21 
REMARK   10  A    between atoms: C18_21  and  O4_23 
ROOT
HETATM    1  C8  UNL     1      24.156   4.107  50.021  1.00  0.00     0.033 C 
HETATM    2  C9  UNL     1      24.510   4.981  51.068  1.00  0.00     0.326 C 
HETATM    3  N1  UNL     1      23.975   5.070  52.369  1.00  0.00     0.092 NA
HETATM    4  C10 UNL     1      24.226   3.913  53.228  1.00  0.00     0.297 C 
HETATM    5  C11 UNL     1      23.183   2.914  52.832  1.00  0.00     0.003 C 
HETATM    6  C12 UNL     1      22.122   3.236  52.116  1.00  0.00    -0.004 C 
HETATM    7  C13 UNL     1      20.867   3.116  51.377  1.00  0.00     0.007 C 
HETATM    8  C14 UNL     1      19.981   3.778  50.727  1.00  0.00     0.084 A 
HETATM    9  C15 UNL     1      19.326   4.904  50.156  1.00  0.00     0.053 C 
HETATM   10  C16 UNL     1      20.239   4.943  48.856  1.00  0.00     0.020 C 
HETATM   11  C20 UNL     1      20.095   3.691  49.057  1.00  0.00     0.117 A 
HETATM   12  S1  UNL     1      21.048   3.183  47.550  1.00  0.00    -0.115 SA
HETATM   13  C21 UNL     1      22.674   2.563  48.251  1.00  0.00     0.196 C 
HETATM   14  N2  UNL     1      23.226   3.592  49.097  1.00  0.00    -0.383 N 
HETATM   15  N3  UNL     1      19.901   2.612  49.894  1.00  0.00    -0.381 N 
HETATM   16  C22 UNL     1      19.760   1.250  49.473  1.00  0.00     0.146 C 
HETATM   17  H11 UNL     1      24.271   5.931  52.826  1.00  0.00     0.316 HD
HETATM   18  H26 UNL     1      22.749   4.522  49.111  1.00  0.00     0.160 HD
ENDROOT
BRANCH   1  19
HETATM   19  C7  UNL     1      25.079   3.258  49.497  1.00  0.00     0.027 C 
BRANCH  19  20
HETATM   20  C6  UNL     1      26.255   3.077  50.338  1.00  0.00     0.014 C 
BRANCH  20  21
HETATM   21  C5  UNL     1      26.609   2.045  51.074  1.00  0.00    -0.029 C 
BRANCH  21  22
HETATM   22  C4  UNL     1      26.389   1.027  51.906  1.00  0.00    -0.005 C 
BRANCH  22  23
HETATM   23  C3  UNL     1      26.936   1.222  53.256  1.00  0.00     0.139 C 
BRANCH  23  24
HETATM   24  C2  UNL     1      27.038  -0.150  53.856  1.00  0.00     0.261 C 
HETATM   25  O2  UNL     1      26.219  -1.098  53.962  1.00  0.00    -0.265 OA
BRANCH  24  26
HETATM   26  O1  UNL     1      28.205  -0.622  54.457  1.00  0.00    -0.326 OA
HETATM   27  C1  UNL     1      29.480  -0.456  53.840  1.00  0.00     0.213 C 
ENDBRANCH  24  26
ENDBRANCH  23  24
ENDBRANCH  22  23
ENDBRANCH  21  22
ENDBRANCH  20  21
ENDBRANCH  19  20
ENDBRANCH   1  19
BRANCH  10  28
HETATM   28  C17 UNL     1      20.583   6.270  48.378  1.00  0.00     0.125 C 
BRANCH  28  29
HETATM   29  C18 UNL     1      21.651   6.805  49.302  1.00  0.00     0.259 C 
HETATM   30  O3  UNL     1      21.957   7.041  50.488  1.00  0.00    -0.265 OA
BRANCH  29  31
HETATM   31  O4  UNL     1      22.870   7.277  48.842  1.00  0.00    -0.326 OA
HETATM   32  C19 UNL     1      23.387   6.888  47.592  1.00  0.00     0.213 C 
ENDBRANCH  29  31
ENDBRANCH  28  29
ENDBRANCH  10  28
TORSDOF 10
ENDMDL
MODEL 3
REMARK VINA RESULT:      -6.4      2.502      4.051
REMARK  10 active torsions:
REMARK  status: ('A' for Active; 'I' for Inactive)
REMARK    1  A    between atoms: O1_2  and  C2_3 
REMARK    2  A    between atoms: C2_3  and  C3_5 
REMARK    3  A    between atoms: C3_5  and  C4_6 
REMARK    4  A    between atoms: C4_6  and  C5_7 
REMARK    5  A    between atoms: C5_7  and  C6_8 
REMARK    6  A    between atoms: C6_8  and  C7_9 
REMARK    7  A    between atoms: C7_9  and  C8_10 
REMARK    8  A    between atoms: C16_19  and  C17_20 
REMARK    9  A    between atoms: C17_20  and  C18_21 
REMARK   10  A    between atoms: C18_21  and  O4_23 
ROOT
HETATM    1  C8  UNL     1      23.519   3.496  50.907  1.00  0.00     0.033 C 
HETATM    2  C9  UNL     1      24.543   2.717  50.332  1.00  0.00     0.326 C 
HETATM    3  N1  UNL     1      25.487   3.078  49.349  1.00  0.00     0.092 NA
HETATM    4  C10 UNL     1      26.463   4.088  49.760  1.00  0.00     0.297 C 
HETATM    5  C11 UNL     1      25.747   5.393  49.598  1.00  0.00     0.003 C 
HETATM    6  C12 UNL     1      24.628   5.513  48.909  1.00  0.00    -0.004 C 
HETATM    7  C13 UNL     1      23.442   6.106  48.294  1.00  0.00     0.007 C 
HETATM    8  C14 UNL     1      22.429   5.857  47.549  1.00  0.00     0.084 A 
HETATM    9  C15 UNL     1      21.546   5.106  46.723  1.00  0.00     0.053 C 
HETATM   10  C16 UNL     1      20.753   4.456  47.937  1.00  0.00     0.020 C 
HETATM   11  C20 UNL     1      20.975   5.642  48.354  1.00  0.00     0.117 A 
HETATM   12  S1  UNL     1      20.054   5.419  49.947  1.00  0.00    -0.115 SA
HETATM   13  C21 UNL     1      21.422   5.288  51.226  1.00  0.00     0.196 C 
HETATM   14  N2  UNL     1      22.334   4.253  50.810  1.00  0.00    -0.383 N 
HETATM   15  N3  UNL     1      21.737   6.791  48.391  1.00  0.00    -0.381 N 
HETATM   16  C22 UNL     1      21.408   7.982  49.115  1.00  0.00     0.146 C 
HETATM   17  H11 UNL     1      25.955   2.254  48.974  1.00  0.00     0.316 HD
HETATM   18  H26 UNL     1      22.071   3.672  49.982  1.00  0.00     0.160 HD
ENDROOT
BRANCH   1  19
HETATM   19  C7  UNL     1      23.503   3.724  52.246  1.00  0.00     0.027 C 
BRANCH  19  20
HETATM   20  C6  UNL     1      24.417   2.875  52.998  1.00  0.00     0.014 C 
BRANCH  20  21
HETATM   21  C5  UNL     1      24.331   1.593  53.280  1.00  0.00    -0.029 C 
BRANCH  21  22
HETATM   22  C4  UNL     1      24.809   0.356  53.420  1.00  0.00    -0.005 C 
BRANCH  22  23
HETATM   23  C3  UNL     1      26.139   0.154  52.826  1.00  0.00     0.139 C 
BRANCH  23  24
HETATM   24  C2  UNL     1      27.095   0.092  53.982  1.00  0.00     0.261 C 
HETATM   25  O2  UNL     1      27.276   0.834  54.981  1.00  0.00    -0.265 OA
BRANCH  24  26
HETATM   26  O1  UNL     1      28.036  -0.928  54.124  1.00  0.00    -0.326 OA
HETATM   27  C1  UNL     1      29.407  -0.728  53.788  1.00  0.00     0.213 C 
ENDBRANCH  24  26
ENDBRANCH  23  24
ENDBRANCH  22  23
ENDBRANCH  21  22
ENDBRANCH  20  21
ENDBRANCH  19  20
ENDBRANCH   1  19
BRANCH  10  28
HETATM   28  C17 UNL     1      20.357   3.072  47.750  1.00  0.00     0.125 C 
BRANCH  28  29
HETATM   29  C18 UNL     1      21.602   2.234  47.923  1.00  0.00     0.259 C 
HETATM   30  O3  UNL     1      22.791   2.081  47.579  1.00  0.00    -0.265 OA
BRANCH  29  31
HETATM   31  O4  UNL     1      21.654   1.138  48.769  1.00  0.00    -0.326 OA
HETATM   32  C19 UNL     1      20.821   1.039  49.899  1.00  0.00     0.213 C 
ENDBRANCH  29  31
ENDBRANCH  28  29
ENDBRANCH  10  28
TORSDOF 10
ENDMDL
MODEL 4
REMARK VINA RESULT:      -6.4      2.309      2.976
REMARK  10 active torsions:
REMARK  status: ('A' for Active; 'I' for Inactive)
REMARK    1  A    between atoms: O1_2  and  C2_3 
REMARK    2  A    between atoms: C2_3  and  C3_5 
REMARK    3  A    between atoms: C3_5  and  C4_6 
REMARK    4  A    between atoms: C4_6  and  C5_7 
REMARK    5  A    between atoms: C5_7  and  C6_8 
REMARK    6  A    between atoms: C6_8  and  C7_9 
REMARK    7  A    between atoms: C7_9  and  C8_10 
REMARK    8  A    between atoms: C16_19  and  C17_20 
REMARK    9  A    between atoms: C17_20  and  C18_21 
REMARK   10  A    between atoms: C18_21  and  O4_23 
ROOT
HETATM    1  C8  UNL     1      22.539   2.196  51.863  1.00  0.00     0.033 C 
HETATM    2  C9  UNL     1      21.545   1.947  52.830  1.00  0.00     0.326 C 
HETATM    3  N1  UNL     1      20.203   1.557  52.644  1.00  0.00     0.092 NA
HETATM    4  C10 UNL     1      20.013   0.220  52.081  1.00  0.00     0.297 C 
HETATM    5  C11 UNL     1      20.199   0.401  50.606  1.00  0.00     0.003 C 
HETATM    6  C12 UNL     1      20.186   1.586  50.025  1.00  0.00    -0.004 C 
HETATM    7  C13 UNL     1      20.254   2.617  48.992  1.00  0.00     0.007 C 
HETATM    8  C14 UNL     1      20.151   3.878  48.780  1.00  0.00     0.084 A 
HETATM    9  C15 UNL     1      19.929   5.254  49.066  1.00  0.00     0.053 C 
HETATM   10  C16 UNL     1      21.400   5.515  49.608  1.00  0.00     0.020 C 
HETATM   11  C20 UNL     1      21.600   4.708  48.638  1.00  0.00     0.117 A 
HETATM   12  S1  UNL     1      23.446   4.728  48.799  1.00  0.00    -0.115 SA
HETATM   13  C21 UNL     1      23.835   3.059  49.563  1.00  0.00     0.196 C 
HETATM   14  N2  UNL     1      23.043   2.912  50.759  1.00  0.00    -0.383 N 
HETATM   15  N3  UNL     1      21.196   3.676  47.817  1.00  0.00    -0.381 N 
HETATM   16  C22 UNL     1      21.943   3.153  46.713  1.00  0.00     0.146 C 
HETATM   17  H11 UNL     1      19.669   1.667  53.504  1.00  0.00     0.316 HD
HETATM   18  H26 UNL     1      22.492   3.738  51.087  1.00  0.00     0.160 HD
ENDROOT
BRANCH   1  19
HETATM   19  C7  UNL     1      23.684   1.465  51.855  1.00  0.00     0.027 C 
BRANCH  19  20
HETATM   20  C6  UNL     1      23.790   0.527  52.965  1.00  0.00     0.014 C 
BRANCH  20  21
HETATM   21  C5  UNL     1      24.763  -0.305  53.271  1.00  0.00    -0.029 C 
BRANCH  21  22
HETATM   22  C4  UNL     1      25.860  -1.020  53.018  1.00  0.00    -0.005 C 
BRANCH  22  23
HETATM   23  C3  UNL     1      27.022  -0.217  52.614  1.00  0.00     0.139 C 
BRANCH  23  24
HETATM   24  C2  UNL     1      27.667   0.239  53.891  1.00  0.00     0.261 C 
HETATM   25  O2  UNL     1      28.240  -0.378  54.825  1.00  0.00    -0.265 OA
BRANCH  24  26
HETATM   26  O1  UNL     1      27.725   1.581  54.265  1.00  0.00    -0.326 OA
HETATM   27  C1  UNL     1      28.662   2.480  53.674  1.00  0.00     0.213 C 
ENDBRANCH  24  26
ENDBRANCH  23  24
ENDBRANCH  22  23
ENDBRANCH  21  22
ENDBRANCH  20  21
ENDBRANCH  19  20
ENDBRANCH   1  19
BRANCH  10  28
HETATM   28  C17 UNL     1      21.494   6.415  50.742  1.00  0.00     0.125 C 
BRANCH  28  29
HETATM   29  C18 UNL     1      21.621   7.812  50.182  1.00  0.00     0.259 C 
HETATM   30  O3  UNL     1      21.006   8.849  49.865  1.00  0.00    -0.265 OA
BRANCH  29  31
HETATM   31  O4  UNL     1      22.837   8.358  49.802  1.00  0.00    -0.326 OA
HETATM   32  C19 UNL     1      24.007   8.147  50.555  1.00  0.00     0.213 C 
ENDBRANCH  29  31
ENDBRANCH  28  29
ENDBRANCH  10  28
TORSDOF 10
ENDMDL
MODEL 5
REMARK VINA RESULT:      -6.4      2.933      7.504
REMARK  10 active torsions:
REMARK  status: ('A' for Active; 'I' for Inactive)
REMARK    1  A    between atoms: O1_2  and  C2_3 
REMARK    2  A    between atoms: C2_3  and  C3_5 
REMARK    3  A    between atoms: C3_5  and  C4_6 
REMARK    4  A    between atoms: C4_6  and  C5_7 
REMARK    5  A    between atoms: C5_7  and  C6_8 
REMARK    6  A    between atoms: C6_8  and  C7_9 
REMARK    7  A    between atoms: C7_9  and  C8_10 
REMARK    8  A    between atoms: C16_19  and  C17_20 
REMARK    9  A    between atoms: C17_20  and  C18_21 
REMARK   10  A    between atoms: C18_21  and  O4_23 
ROOT
HETATM    1  C8  UNL     1      21.529   1.373  49.884  1.00  0.00     0.033 C 
HETATM    2  C9  UNL     1      20.721   0.617  50.757  1.00  0.00     0.326 C 
HETATM    3  N1  UNL     1      20.088   1.017  51.951  1.00  0.00     0.092 NA
HETATM    4  C10 UNL     1      19.021   2.005  51.792  1.00  0.00     0.297 C 
HETATM    5  C11 UNL     1      19.733   3.318  51.691  1.00  0.00     0.003 C 
HETATM    6  C12 UNL     1      20.999   3.472  52.029  1.00  0.00    -0.004 C 
HETATM    7  C13 UNL     1      22.301   4.094  52.258  1.00  0.00     0.007 C 
HETATM    8  C14 UNL     1      23.488   3.881  52.696  1.00  0.00     0.084 A 
HETATM    9  C15 UNL     1      24.579   3.170  53.268  1.00  0.00     0.053 C 
HETATM   10  C16 UNL     1      25.007   2.470  51.907  1.00  0.00     0.020 C 
HETATM   11  C20 UNL     1      24.658   3.636  51.522  1.00  0.00     0.117 A 
HETATM   12  S1  UNL     1      25.094   3.347  49.743  1.00  0.00    -0.115 SA
HETATM   13  C21 UNL     1      23.423   3.156  48.911  1.00  0.00     0.196 C 
HETATM   14  N2  UNL     1      22.681   2.136  49.610  1.00  0.00    -0.383 N 
HETATM   15  N3  UNL     1      23.899   4.780  51.655  1.00  0.00    -0.381 N 
HETATM   16  C22 UNL     1      23.992   5.939  50.819  1.00  0.00     0.146 C 
HETATM   17  H11 UNL     1      19.759   0.209  52.477  1.00  0.00     0.316 HD
HETATM   18  H26 UNL     1      23.176   1.593  50.353  1.00  0.00     0.160 HD
ENDROOT
BRANCH   1  19
HETATM   19  C7  UNL     1      21.162   1.542  48.587  1.00  0.00     0.027 C 
BRANCH  19  20
HETATM   20  C6  UNL     1      19.965   2.352  48.415  1.00  0.00     0.014 C 
BRANCH  20  21
HETATM   21  C5  UNL     1      19.820   3.525  47.835  1.00  0.00    -0.029 C 
BRANCH  21  22
HETATM   22  C4  UNL     1      20.025   4.425  46.873  1.00  0.00    -0.005 C 
BRANCH  22  23
HETATM   23  C3  UNL     1      19.593   3.989  45.538  1.00  0.00     0.139 C 
BRANCH  23  24
HETATM   24  C2  UNL     1      20.854   3.783  44.749  1.00  0.00     0.261 C 
HETATM   25  O2  UNL     1      22.070   3.783  45.068  1.00  0.00    -0.265 OA
BRANCH  24  26
HETATM   26  O1  UNL     1      20.848   3.533  43.377  1.00  0.00    -0.326 OA
HETATM   27  C1  UNL     1      20.552   4.561  42.433  1.00  0.00     0.213 C 
ENDBRANCH  24  26
ENDBRANCH  23  24
ENDBRANCH  22  23
ENDBRANCH  21  22
ENDBRANCH  20  21
ENDBRANCH  19  20
ENDBRANCH   1  19
BRANCH  10  28
HETATM   28  C17 UNL     1      25.461   1.096  52.031  1.00  0.00     0.125 C 
BRANCH  28  29
HETATM   29  C18 UNL     1      24.411   0.360  52.829  1.00  0.00     0.259 C 
HETATM   30  O3  UNL     1      23.198   0.084  52.919  1.00  0.00    -0.265 OA
BRANCH  29  31
HETATM   31  O4  UNL     1      24.712  -0.373  53.966  1.00  0.00    -0.326 OA
HETATM   32  C19 UNL     1      25.925  -0.195  54.658  1.00  0.00     0.213 C 
ENDBRANCH  29  31
ENDBRANCH  28  29
ENDBRANCH  10  28
TORSDOF 10
ENDMDL
MODEL 6
REMARK VINA RESULT:      -6.4      9.211     12.345
REMARK  10 active torsions:
REMARK  status: ('A' for Active; 'I' for Inactive)
REMARK    1  A    between atoms: O1_2  and  C2_3 
REMARK    2  A    between atoms: C2_3  and  C3_5 
REMARK    3  A    between atoms: C3_5  and  C4_6 
REMARK    4  A    between atoms: C4_6  and  C5_7 
REMARK    5  A    between atoms: C5_7  and  C6_8 
REMARK    6  A    between atoms: C6_8  and  C7_9 
REMARK    7  A    between atoms: C7_9  and  C8_10 
REMARK    8  A    between atoms: C16_19  and  C17_20 
REMARK    9  A    between atoms: C17_20  and  C18_21 
REMARK   10  A    between atoms: C18_21  and  O4_23 
ROOT
HETATM    1  C8  UNL     1      27.445   7.986  47.191  1.00  0.00     0.033 C 
HETATM    2  C9  UNL     1      26.956   7.050  48.123  1.00  0.00     0.326 C 
HETATM    3  N1  UNL     1      27.055   7.063  49.529  1.00  0.00     0.092 NA
HETATM    4  C10 UNL     1      26.321   8.138  50.197  1.00  0.00     0.297 C 
HETATM    5  C11 UNL     1      27.218   9.332  50.091  1.00  0.00     0.003 C 
HETATM    6  C12 UNL     1      28.493   9.241  49.763  1.00  0.00    -0.004 C 
HETATM    7  C13 UNL     1      29.868   9.622  49.448  1.00  0.00     0.007 C 
HETATM    8  C14 UNL     1      31.027   9.161  49.148  1.00  0.00     0.084 A 
HETATM    9  C15 UNL     1      32.039   8.198  48.877  1.00  0.00     0.053 C 
HETATM   10  C16 UNL     1      31.613   7.982  47.362  1.00  0.00     0.020 C 
HETATM   11  C20 UNL     1      31.435   9.236  47.524  1.00  0.00     0.117 A 
HETATM   12  S1  UNL     1      30.932   9.549  45.767  1.00  0.00    -0.115 SA
HETATM   13  C21 UNL     1      29.078   9.815  45.886  1.00  0.00     0.196 C 
HETATM   14  N2  UNL     1      28.501   8.688  46.576  1.00  0.00    -0.383 N 
HETATM   15  N3  UNL     1      31.137  10.325  48.315  1.00  0.00    -0.381 N 
HETATM   16  C22 UNL     1      31.132  11.690  47.881  1.00  0.00     0.146 C 
HETATM   17  H11 UNL     1      26.806   6.156  49.920  1.00  0.00     0.316 HD
HETATM   18  H26 UNL     1      29.122   7.876  46.793  1.00  0.00     0.160 HD
ENDROOT
BRANCH   1  19
HETATM   19  C7  UNL     1      26.589   8.631  46.356  1.00  0.00     0.027 C 
BRANCH  19  20
HETATM   20  C6  UNL     1      25.426   9.194  47.028  1.00  0.00     0.014 C 
BRANCH  20  21
HETATM   21  C5  UNL     1      25.203  10.429  47.426  1.00  0.00    -0.029 C 
BRANCH  21  22
HETATM   22  C4  UNL     1      25.560  11.631  47.879  1.00  0.00    -0.005 C 
BRANCH  22  23
HETATM   23  C3  UNL     1      26.597  12.294  47.076  1.00  0.00     0.139 C 
BRANCH  23  24
HETATM   24  C2  UNL     1      27.433  13.071  48.052  1.00  0.00     0.261 C 
HETATM   25  O2  UNL     1      27.945  12.776  49.161  1.00  0.00    -0.265 OA
BRANCH  24  26
HETATM   26  O1  UNL     1      27.802  14.398  47.833  1.00  0.00    -0.326 OA
HETATM   27  C1  UNL     1      28.971  14.734  47.088  1.00  0.00     0.213 C 
ENDBRANCH  24  26
ENDBRANCH  23  24
ENDBRANCH  22  23
ENDBRANCH  21  22
ENDBRANCH  20  21
ENDBRANCH  19  20
ENDBRANCH   1  19
BRANCH  10  28
HETATM   28  C17 UNL     1      31.709   6.616  46.878  1.00  0.00     0.125 C 
BRANCH  28  29
HETATM   29  C18 UNL     1      31.005   5.744  47.890  1.00  0.00     0.259 C 
HETATM   30  O3  UNL     1      29.961   5.580  48.552  1.00  0.00    -0.265 OA
BRANCH  29  31
HETATM   31  O4  UNL     1      31.586   4.608  48.432  1.00  0.00    -0.326 OA
HETATM   32  C19 UNL     1      32.670   3.965  47.805  1.00  0.00     0.213 C 
ENDBRANCH  29  31
ENDBRANCH  28  29
ENDBRANCH  10  28
TORSDOF 10
ENDMDL
MODEL 7
REMARK VINA RESULT:      -6.3      3.687      6.123
REMARK  10 active torsions:
REMARK  status: ('A' for Active; 'I' for Inactive)
REMARK    1  A    between atoms: O1_2  and  C2_3 
REMARK    2  A    between atoms: C2_3  and  C3_5 
REMARK    3  A    between atoms: C3_5  and  C4_6 
REMARK    4  A    between atoms: C4_6  and  C5_7 
REMARK    5  A    between atoms: C5_7  and  C6_8 
REMARK    6  A    between atoms: C6_8  and  C7_9 
REMARK    7  A    between atoms: C7_9  and  C8_10 
REMARK    8  A    between atoms: C16_19  and  C17_20 
REMARK    9  A    between atoms: C17_20  and  C18_21 
REMARK   10  A    between atoms: C18_21  and  O4_23 
ROOT
HETATM    1  C8  UNL     1      23.895   3.587  49.328  1.00  0.00     0.033 C 
HETATM    2  C9  UNL     1      24.988   3.127  50.087  1.00  0.00     0.326 C 
HETATM    3  N1  UNL     1      25.392   3.507  51.383  1.00  0.00     0.092 NA
HETATM    4  C10 UNL     1      24.470   3.139  52.458  1.00  0.00     0.297 C 
HETATM    5  C11 UNL     1      23.420   4.206  52.437  1.00  0.00     0.003 C 
HETATM    6  C12 UNL     1      23.575   5.349  51.795  1.00  0.00    -0.004 C 
HETATM    7  C13 UNL     1      23.299   6.679  51.258  1.00  0.00     0.007 C 
HETATM    8  C14 UNL     1      23.798   7.645  50.578  1.00  0.00     0.084 A 
HETATM    9  C15 UNL     1      24.763   8.381  49.835  1.00  0.00     0.053 C 
HETATM   10  C16 UNL     1      24.479   7.626  48.466  1.00  0.00     0.020 C 
HETATM   11  C20 UNL     1      23.312   7.726  48.975  1.00  0.00     0.117 A 
HETATM   12  S1  UNL     1      22.447   6.949  47.532  1.00  0.00    -0.115 SA
HETATM   13  C21 UNL     1      21.992   5.242  48.164  1.00  0.00     0.196 C 
HETATM   14  N2  UNL     1      23.186   4.612  48.669  1.00  0.00    -0.383 N 
HETATM   15  N3  UNL     1      22.467   7.805  50.062  1.00  0.00    -0.381 N 
HETATM   16  C22 UNL     1      21.046   7.972  49.998  1.00  0.00     0.146 C 
HETATM   17  H11 UNL     1      26.334   3.174  51.584  1.00  0.00     0.316 HD
HETATM   18  H26 UNL     1      24.098   5.098  48.517  1.00  0.00     0.160 HD
ENDROOT
BRANCH   1  19
HETATM   19  C7  UNL     1      22.933   2.719  48.918  1.00  0.00     0.027 C 
BRANCH  19  20
HETATM   20  C6  UNL     1      22.046   2.277  49.985  1.00  0.00     0.014 C 
BRANCH  20  21
HETATM   21  C5  UNL     1      21.892   1.078  50.505  1.00  0.00    -0.029 C 
BRANCH  21  22
HETATM   22  C4  UNL     1      21.561   0.217  51.468  1.00  0.00    -0.005 C 
BRANCH  22  23
HETATM   23  C3  UNL     1      21.707   0.750  52.830  1.00  0.00     0.139 C 
BRANCH  23  24
HETATM   24  C2  UNL     1      22.606  -0.213  53.550  1.00  0.00     0.261 C 
HETATM   25  O2  UNL     1      22.443  -0.937  54.565  1.00  0.00    -0.265 OA
BRANCH  24  26
HETATM   26  O1  UNL     1      23.914  -0.468  53.140  1.00  0.00    -0.326 OA
HETATM   27  C1  UNL     1      25.009  -0.392  54.050  1.00  0.00     0.213 C 
ENDBRANCH  24  26
ENDBRANCH  23  24
ENDBRANCH  22  23
ENDBRANCH  21  22
ENDBRANCH  20  21
ENDBRANCH  19  20
ENDBRANCH   1  19
BRANCH  10  28
HETATM   28  C17 UNL     1      25.648   7.362  47.647  1.00  0.00     0.125 C 
BRANCH  28  29
HETATM   29  C18 UNL     1      26.606   6.563  48.499  1.00  0.00     0.259 C 
HETATM   30  O3  UNL     1      26.727   5.586  49.266  1.00  0.00    -0.265 OA
BRANCH  29  31
HETATM   31  O4  UNL     1      27.950   6.880  48.612  1.00  0.00    -0.326 OA
HETATM   32  C19 UNL     1      28.952   6.037  48.094  1.00  0.00     0.213 C 
ENDBRANCH  29  31
ENDBRANCH  28  29
ENDBRANCH  10  28
TORSDOF 10
ENDMDL
MODEL 8
REMARK VINA RESULT:      -6.3      3.145      3.937
REMARK  10 active torsions:
REMARK  status: ('A' for Active; 'I' for Inactive)
REMARK    1  A    between atoms: O1_2  and  C2_3 
REMARK    2  A    between atoms: C2_3  and  C3_5 
REMARK    3  A    between atoms: C3_5  and  C4_6 
REMARK    4  A    between atoms: C4_6  and  C5_7 
REMARK    5  A    between atoms: C5_7  and  C6_8 
REMARK    6  A    between atoms: C6_8  and  C7_9 
REMARK    7  A    between atoms: C7_9  and  C8_10 
REMARK    8  A    between atoms: C16_19  and  C17_20 
REMARK    9  A    between atoms: C17_20  and  C18_21 
REMARK   10  A    between atoms: C18_21  and  O4_23 
ROOT
HETATM    1  C8  UNL     1      22.653   4.485  51.782  1.00  0.00     0.033 C 
HETATM    2  C9  UNL     1      21.632   3.522  51.668  1.00  0.00     0.326 C 
HETATM    3  N1  UNL     1      21.268   2.743  50.550  1.00  0.00     0.092 NA
HETATM    4  C10 UNL     1      22.265   1.762  50.121  1.00  0.00     0.297 C 
HETATM    5  C11 UNL     1      23.238   2.547  49.297  1.00  0.00     0.003 C 
HETATM    6  C12 UNL     1      22.974   3.757  48.841  1.00  0.00    -0.004 C 
HETATM    7  C13 UNL     1      23.132   5.042  48.163  1.00  0.00     0.007 C 
HETATM    8  C14 UNL     1      22.535   6.139  47.873  1.00  0.00     0.084 A 
HETATM    9  C15 UNL     1      21.487   7.099  47.808  1.00  0.00     0.053 C 
HETATM   10  C16 UNL     1      21.754   7.684  49.261  1.00  0.00     0.020 C 
HETATM   11  C20 UNL     1      22.934   7.455  48.833  1.00  0.00     0.117 A 
HETATM   12  S1  UNL     1      23.778   8.129  50.339  1.00  0.00    -0.115 SA
HETATM   13  C21 UNL     1      24.379   6.590  51.228  1.00  0.00     0.196 C 
HETATM   14  N2  UNL     1      23.257   5.703  51.409  1.00  0.00    -0.383 N 
HETATM   15  N3  UNL     1      23.825   6.744  48.055  1.00  0.00    -0.381 N 
HETATM   16  C22 UNL     1      25.226   7.016  47.940  1.00  0.00     0.146 C 
HETATM   17  H11 UNL     1      20.363   2.299  50.695  1.00  0.00     0.316 HD
HETATM   18  H26 UNL     1      22.307   6.056  51.153  1.00  0.00     0.160 HD
ENDROOT
BRANCH   1  19
HETATM   19  C7  UNL     1      23.651   4.321  52.691  1.00  0.00     0.027 C 
BRANCH  19  20
HETATM   20  C6  UNL     1      23.965   2.927  52.972  1.00  0.00     0.014 C 
BRANCH  20  21
HETATM   21  C5  UNL     1      25.008   2.212  52.607  1.00  0.00    -0.029 C 
BRANCH  21  22
HETATM   22  C4  UNL     1      25.639   1.084  52.282  1.00  0.00    -0.005 C 
BRANCH  22  23
HETATM   23  C3  UNL     1      25.159  -0.105  53.002  1.00  0.00     0.139 C 
BRANCH  23  24
HETATM   24  C2  UNL     1      26.385  -0.760  53.568  1.00  0.00     0.261 C 
HETATM   25  O2  UNL     1      27.096  -1.722  53.180  1.00  0.00    -0.265 OA
BRANCH  24  26
HETATM   26  O1  UNL     1      26.980  -0.338  54.757  1.00  0.00    -0.326 OA
HETATM   27  C1  UNL     1      28.332   0.114  54.794  1.00  0.00     0.213 C 
ENDBRANCH  24  26
ENDBRANCH  23  24
ENDBRANCH  22  23
ENDBRANCH  21  22
ENDBRANCH  20  21
ENDBRANCH  19  20
ENDBRANCH   1  19
BRANCH  10  28
HETATM   28  C17 UNL     1      20.566   8.044  50.014  1.00  0.00     0.125 C 
BRANCH  28  29
HETATM   29  C18 UNL     1      19.942   9.225  49.308  1.00  0.00     0.259 C 
HETATM   30  O3  UNL     1      18.885   9.709  48.859  1.00  0.00    -0.265 OA
BRANCH  29  31
HETATM   31  O4  UNL     1      20.676  10.331  48.910  1.00  0.00    -0.326 OA
HETATM   32  C19 UNL     1      20.356  11.627  49.359  1.00  0.00     0.213 C 
ENDBRANCH  29  31
ENDBRANCH  28  29
ENDBRANCH  10  28
TORSDOF 10
ENDMDL
MODEL 9
REMARK VINA RESULT:      -6.1      9.515     13.073
REMARK  10 active torsions:
REMARK  status: ('A' for Active; 'I' for Inactive)
REMARK    1  A    between atoms: O1_2  and  C2_3 
REMARK    2  A    between atoms: C2_3  and  C3_5 
REMARK    3  A    between atoms: C3_5  and  C4_6 
REMARK    4  A    between atoms: C4_6  and  C5_7 
REMARK    5  A    between atoms: C5_7  and  C6_8 
REMARK    6  A    between atoms: C6_8  and  C7_9 
REMARK    7  A    between atoms: C7_9  and  C8_10 
REMARK    8  A    between atoms: C16_19  and  C17_20 
REMARK    9  A    between atoms: C17_20  and  C18_21 
REMARK   10  A    between atoms: C18_21  and  O4_23 
ROOT
HETATM    1  C8  UNL     1      28.609   7.653  46.950  1.00  0.00     0.033 C 
HETATM    2  C9  UNL     1      27.749   7.340  48.020  1.00  0.00     0.326 C 
HETATM    3  N1  UNL     1      27.885   7.649  49.389  1.00  0.00     0.092 NA
HETATM    4  C10 UNL     1      27.805   9.072  49.720  1.00  0.00     0.297 C 
HETATM    5  C11 UNL     1      29.174   9.605  49.429  1.00  0.00     0.003 C 
HETATM    6  C12 UNL     1      30.223   8.823  49.256  1.00  0.00    -0.004 C 
HETATM    7  C13 UNL     1      31.594   8.391  48.997  1.00  0.00     0.007 C 
HETATM    8  C14 UNL     1      32.359   7.364  48.923  1.00  0.00     0.084 A 
HETATM    9  C15 UNL     1      32.748   5.997  48.979  1.00  0.00     0.053 C 
HETATM   10  C16 UNL     1      32.224   5.651  47.520  1.00  0.00     0.020 C 
HETATM   11  C20 UNL     1      32.700   6.826  47.372  1.00  0.00     0.117 A 
HETATM   12  S1  UNL     1      32.365   6.902  45.551  1.00  0.00    -0.115 SA
HETATM   13  C21 UNL     1      30.895   8.062  45.426  1.00  0.00     0.196 C 
HETATM   14  N2  UNL     1      29.855   7.572  46.296  1.00  0.00    -0.383 N 
HETATM   15  N3  UNL     1      33.008   8.079  47.861  1.00  0.00    -0.381 N 
HETATM   16  C22 UNL     1      33.671   9.115  47.127  1.00  0.00     0.146 C 
HETATM   17  H11 UNL     1      27.229   7.109  49.952  1.00  0.00     0.316 HD
HETATM   18  H26 UNL     1      29.995   6.642  46.752  1.00  0.00     0.160 HD
ENDROOT
BRANCH   1  19
HETATM   19  C7  UNL     1      28.163   8.407  45.911  1.00  0.00     0.027 C 
BRANCH  19  20
HETATM   20  C6  UNL     1      26.766   8.802  46.029  1.00  0.00     0.014 C 
BRANCH  20  21
HETATM   21  C5  UNL     1      26.248   9.969  46.347  1.00  0.00    -0.029 C 
BRANCH  21  22
HETATM   22  C4  UNL     1      26.276  11.290  46.527  1.00  0.00    -0.005 C 
BRANCH  22  23
HETATM   23  C3  UNL     1      27.545  11.797  47.068  1.00  0.00     0.139 C 
BRANCH  23  24
HETATM   24  C2  UNL     1      27.168  12.763  48.154  1.00  0.00     0.261 C 
HETATM   25  O2  UNL     1      27.823  13.303  49.082  1.00  0.00    -0.265 OA
BRANCH  24  26
HETATM   26  O1  UNL     1      25.872  13.257  48.302  1.00  0.00    -0.326 OA
HETATM   27  C1  UNL     1      25.570  14.635  48.088  1.00  0.00     0.213 C 
ENDBRANCH  24  26
ENDBRANCH  23  24
ENDBRANCH  22  23
ENDBRANCH  21  22
ENDBRANCH  20  21
ENDBRANCH  19  20
ENDBRANCH   1  19
BRANCH  10  28
HETATM   28  C17 UNL     1      31.611   4.343  47.373  1.00  0.00     0.125 C 
BRANCH  28  29
HETATM   29  C18 UNL     1      32.737   3.336  47.335  1.00  0.00     0.259 C 
HETATM   30  O3  UNL     1      33.296   2.401  47.941  1.00  0.00    -0.265 OA
BRANCH  29  31
HETATM   31  O4  UNL     1      33.628   3.249  46.277  1.00  0.00    -0.326 OA
HETATM   32  C19 UNL     1      35.013   3.417  46.466  1.00  0.00     0.213 C 
ENDBRANCH  29  31
ENDBRANCH  28  29
ENDBRANCH  10  28
TORSDOF 10
ENDMDL
