MODEL 1
REMARK VINA RESULT:      -9.4      0.000      0.000
REMARK  6 active torsions:
REMARK  status: ('A' for Active; 'I' for Inactive)
REMARK    1  A    between atoms: N1_1  and  C1_2 
REMARK    2  A    between atoms: N4_8  and  C4_9 
REMARK    3  A    between atoms: C11_16  and  C12_17 
REMARK    4  A    between atoms: C16_21  and  O1_22 
REMARK    5  A    between atoms: O1_22  and  C17_23 
REMARK    6  A    between atoms: C17_23  and  C18_24 
ROOT
HETATM    1  C1  UNL     1      21.948   3.655  51.500  1.00  0.00     0.114 C 
HETATM    2  N2  UNL     1      20.903   4.176  51.923  1.00  0.00    -0.230 NA
HETATM    3  C2  UNL     1      19.693   3.475  52.061  1.00  0.00     0.233 C 
HETATM    4  N3  UNL     1      18.718   2.668  52.003  1.00  0.00    -0.256 NA
HETATM    5  P1  UNL     1      18.629   1.195  51.012  1.00  0.00     0.018 P 
HETATM    6  C3  UNL     1      20.266   0.608  50.448  1.00  0.00     0.177 C 
HETATM    7  N4  UNL     1      21.310   0.583  51.415  1.00  0.00    -0.379 N 
HETATM    8  C10 UNL     1      22.402   1.414  51.091  1.00  0.00     0.102 C 
HETATM    9  C11 UNL     1      22.854   2.637  51.051  1.00  0.00     0.029 C 
HETATM   10  H4  UNL     1      17.690   1.350  49.934  1.00  0.00     0.084 HD
ENDROOT
BRANCH   9  11
HETATM   11  C12 UNL     1      24.191   2.927  50.620  1.00  0.00    -0.019 A 
HETATM   12  C13 UNL     1      24.478   3.590  49.471  1.00  0.00     0.012 A 
HETATM   13  C14 UNL     1      25.748   3.897  49.106  1.00  0.00     0.004 A 
HETATM   14  C15 UNL     1      26.770   3.526  49.921  1.00  0.00     0.037 A 
HETATM   15  C16 UNL     1      26.637   2.858  51.103  1.00  0.00     0.070 A 
HETATM   16  C24 UNL     1      25.280   2.587  51.391  1.00  0.00     0.049 A 
BRANCH  15  17
HETATM   17  O1  UNL     1      27.490   2.400  52.044  1.00  0.00    -0.347 OA
BRANCH  17  18
HETATM   18  C17 UNL     1      27.238   1.598  53.119  1.00  0.00     0.214 C 
BRANCH  18  19
HETATM   19  C18 UNL     1      27.415   0.142  52.924  1.00  0.00    -0.034 A 
HETATM   20  C19 UNL     1      26.653  -0.868  52.383  1.00  0.00     0.009 A 
HETATM   21  C20 UNL     1      27.093  -2.171  52.364  1.00  0.00     0.001 A 
HETATM   22  C21 UNL     1      28.305  -2.558  52.873  1.00  0.00     0.000 A 
HETATM   23  C22 UNL     1      29.100  -1.575  53.423  1.00  0.00     0.001 A 
HETATM   24  C23 UNL     1      28.652  -0.273  53.439  1.00  0.00     0.009 A 
ENDBRANCH  18  19
ENDBRANCH  17  18
ENDBRANCH  15  17
ENDBRANCH   9  11
BRANCH   1  25
HETATM   25  N1  UNL     1      22.284   5.032  51.774  1.00  0.00    -0.286 NA
HETATM   26  H1  UNL     1      22.859   5.891  51.961  1.00  0.00     0.125 HD
HETATM   27  H2  UNL     1      22.999   5.805  51.951  1.00  0.00     0.125 HD
ENDBRANCH   1  25
BRANCH   7  28
HETATM   28  C4  UNL     1      21.430  -0.169  52.633  1.00  0.00     0.085 C 
HETATM   29  C5  UNL     1      22.532  -1.178  52.695  1.00  0.00     0.034 C 
HETATM   30  C6  UNL     1      22.847  -0.645  54.070  1.00  0.00    -0.037 A 
HETATM   31  C7  UNL     1      22.822  -1.411  55.293  1.00  0.00     0.010 A 
HETATM   32  C8  UNL     1      24.125  -0.748  54.736  1.00  0.00     0.010 A 
HETATM   33  C9  UNL     1      22.094   0.616  53.788  1.00  0.00     0.034 C 
ENDBRANCH   7  28
TORSDOF 6
ENDMDL
MODEL 2
REMARK VINA RESULT:      -9.1      1.867      4.921
REMARK  6 active torsions:
REMARK  status: ('A' for Active; 'I' for Inactive)
REMARK    1  A    between atoms: N1_1  and  C1_2 
REMARK    2  A    between atoms: N4_8  and  C4_9 
REMARK    3  A    between atoms: C11_16  and  C12_17 
REMARK    4  A    between atoms: C16_21  and  O1_22 
REMARK    5  A    between atoms: O1_22  and  C17_23 
REMARK    6  A    between atoms: C17_23  and  C18_24 
ROOT
HETATM    1  C1  UNL     1      21.253   1.566  50.499  1.00  0.00     0.114 C 
HETATM    2  N2  UNL     1      20.743   1.689  49.373  1.00  0.00    -0.230 NA
HETATM    3  C2  UNL     1      20.581   2.929  48.731  1.00  0.00     0.233 C 
HETATM    4  N3  UNL     1      20.459   4.149  48.408  1.00  0.00    -0.256 NA
HETATM    5  P1  UNL     1      20.489   5.536  49.518  1.00  0.00     0.018 P 
HETATM    6  C3  UNL     1      21.239   5.146  51.139  1.00  0.00     0.177 C 
HETATM    7  N4  UNL     1      22.450   4.400  51.127  1.00  0.00    -0.379 N 
HETATM    8  C10 UNL     1      22.356   3.156  51.784  1.00  0.00     0.102 C 
HETATM    9  C11 UNL     1      21.930   1.925  51.712  1.00  0.00     0.029 C 
HETATM   10  H4  UNL     1      19.188   6.136  49.635  1.00  0.00     0.084 HD
ENDROOT
BRANCH   9  11
HETATM   11  C12 UNL     1      22.166   0.988  52.771  1.00  0.00    -0.019 A 
HETATM   12  C13 UNL     1      21.201   0.574  53.631  1.00  0.00     0.012 A 
HETATM   13  C14 UNL     1      21.434  -0.351  54.596  1.00  0.00     0.004 A 
HETATM   14  C15 UNL     1      22.681  -0.881  54.707  1.00  0.00     0.037 A 
HETATM   15  C16 UNL     1      23.748  -0.563  53.918  1.00  0.00     0.070 A 
HETATM   16  C24 UNL     1      23.401   0.404  52.947  1.00  0.00     0.049 A 
BRANCH  15  17
HETATM   17  O1  UNL     1      25.040  -0.953  53.853  1.00  0.00    -0.347 OA
BRANCH  17  18
HETATM   18  C17 UNL     1      25.950  -0.756  52.857  1.00  0.00     0.214 C 
BRANCH  18  19
HETATM   19  C18 UNL     1      27.169   0.008  53.206  1.00  0.00    -0.034 A 
HETATM   20  C19 UNL     1      28.446  -0.321  53.599  1.00  0.00     0.009 A 
HETATM   21  C20 UNL     1      29.383   0.644  53.883  1.00  0.00     0.001 A 
HETATM   22  C21 UNL     1      29.122   1.987  53.796  1.00  0.00     0.000 A 
HETATM   23  C22 UNL     1      27.855   2.359  53.404  1.00  0.00     0.001 A 
HETATM   24  C23 UNL     1      26.921   1.386  53.122  1.00  0.00     0.009 A 
ENDBRANCH  18  19
ENDBRANCH  17  18
ENDBRANCH  15  17
ENDBRANCH   9  11
BRANCH   1  25
HETATM   25  N1  UNL     1      20.905   0.229  50.082  1.00  0.00    -0.286 NA
HETATM   26  H1  UNL     1      20.553  -0.559  49.485  1.00  0.00     0.125 HD
HETATM   27  H2  UNL     1      20.514  -0.457  49.363  1.00  0.00     0.125 HD
ENDBRANCH   1  25
BRANCH   7  28
HETATM   28  C4  UNL     1      23.738   4.729  50.580  1.00  0.00     0.085 C 
HETATM   29  C5  UNL     1      24.930   4.164  51.283  1.00  0.00     0.034 C 
HETATM   30  C6  UNL     1      25.467   3.793  49.924  1.00  0.00    -0.037 A 
HETATM   31  C7  UNL     1      26.710   4.259  49.357  1.00  0.00     0.010 A 
HETATM   32  C8  UNL     1      26.431   2.750  49.659  1.00  0.00     0.010 A 
HETATM   33  C9  UNL     1      24.105   3.916  49.318  1.00  0.00     0.034 C 
ENDBRANCH   7  28
TORSDOF 6
ENDMDL
MODEL 3
REMARK VINA RESULT:      -8.7      3.952      5.645
REMARK  6 active torsions:
REMARK  status: ('A' for Active; 'I' for Inactive)
REMARK    1  A    between atoms: N1_1  and  C1_2 
REMARK    2  A    between atoms: N4_8  and  C4_9 
REMARK    3  A    between atoms: C11_16  and  C12_17 
REMARK    4  A    between atoms: C16_21  and  O1_22 
REMARK    5  A    between atoms: O1_22  and  C17_23 
REMARK    6  A    between atoms: C17_23  and  C18_24 
ROOT
HETATM    1  C1  UNL     1      24.481   5.626  50.953  1.00  0.00     0.114 C 
HETATM    2  N2  UNL     1      23.642   5.810  51.849  1.00  0.00    -0.230 NA
HETATM    3  C2  UNL     1      22.767   4.808  52.304  1.00  0.00     0.233 C 
HETATM    4  N3  UNL     1      22.035   3.787  52.471  1.00  0.00    -0.256 NA
HETATM    5  P1  UNL     1      21.812   2.456  51.315  1.00  0.00     0.018 P 
HETATM    6  C3  UNL     1      23.126   2.375  50.046  1.00  0.00     0.177 C 
HETATM    7  N4  UNL     1      24.467   2.520  50.497  1.00  0.00    -0.379 N 
HETATM    8  C10 UNL     1      25.133   3.635  49.948  1.00  0.00     0.102 C 
HETATM    9  C11 UNL     1      25.282   4.931  49.986  1.00  0.00     0.029 C 
HETATM   10  H4  UNL     1      20.490   2.475  50.750  1.00  0.00     0.084 HD
ENDROOT
BRANCH   9  11
HETATM   11  C12 UNL     1      26.220   5.601  49.134  1.00  0.00    -0.019 A 
HETATM   12  C13 UNL     1      25.945   6.763  48.488  1.00  0.00     0.012 A 
HETATM   13  C14 UNL     1      26.864   7.406  47.725  1.00  0.00     0.004 A 
HETATM   14  C15 UNL     1      28.105   6.867  47.602  1.00  0.00     0.037 A 
HETATM   15  C16 UNL     1      28.526   5.709  48.190  1.00  0.00     0.070 A 
HETATM   16  C24 UNL     1      27.499   5.120  48.960  1.00  0.00     0.049 A 
BRANCH  15  17
HETATM   17  O1  UNL     1      29.680   5.007  48.202  1.00  0.00    -0.347 OA
BRANCH  17  18
HETATM   18  C17 UNL     1      30.964   5.462  48.271  1.00  0.00     0.214 C 
BRANCH  18  19
HETATM   19  C18 UNL     1      32.020   4.566  47.747  1.00  0.00    -0.034 A 
HETATM   20  C19 UNL     1      32.035   3.412  46.998  1.00  0.00     0.009 A 
HETATM   21  C20 UNL     1      33.212   2.777  46.678  1.00  0.00     0.001 A 
HETATM   22  C21 UNL     1      34.442   3.238  47.072  1.00  0.00     0.000 A 
HETATM   23  C22 UNL     1      34.470   4.394  47.822  1.00  0.00     0.001 A 
HETATM   24  C23 UNL     1      33.286   5.023  48.140  1.00  0.00     0.009 A 
ENDBRANCH  18  19
ENDBRANCH  17  18
ENDBRANCH  15  17
ENDBRANCH   9  11
BRANCH   1  25
HETATM   25  N1  UNL     1      24.632   7.005  51.349  1.00  0.00    -0.286 NA
HETATM   26  H1  UNL     1      24.574   7.879  51.928  1.00  0.00     0.125 HD
HETATM   27  H2  UNL     1      24.497   7.800  52.050  1.00  0.00     0.125 HD
ENDBRANCH   1  25
BRANCH   7  28
HETATM   28  C4  UNL     1      25.240   1.700  51.388  1.00  0.00     0.085 C 
HETATM   29  C5  UNL     1      26.720   1.680  51.170  1.00  0.00     0.034 C 
HETATM   30  C6  UNL     1      26.870   1.842  52.662  1.00  0.00    -0.037 A 
HETATM   31  C7  UNL     1      27.542   0.918  53.544  1.00  0.00     0.010 A 
HETATM   32  C8  UNL     1      28.026   2.391  53.333  1.00  0.00     0.010 A 
HETATM   33  C9  UNL     1      25.461   2.331  52.782  1.00  0.00     0.034 C 
ENDBRANCH   7  28
TORSDOF 6
ENDMDL
MODEL 4
REMARK VINA RESULT:      -8.6      2.144      4.909
REMARK  6 active torsions:
REMARK  status: ('A' for Active; 'I' for Inactive)
REMARK    1  A    between atoms: N1_1  and  C1_2 
REMARK    2  A    between atoms: N4_8  and  C4_9 
REMARK    3  A    between atoms: C11_16  and  C12_17 
REMARK    4  A    between atoms: C16_21  and  O1_22 
REMARK    5  A    between atoms: O1_22  and  C17_23 
REMARK    6  A    between atoms: C17_23  and  C18_24 
ROOT
HETATM    1  C1  UNL     1      20.954   2.284  49.829  1.00  0.00     0.114 C 
HETATM    2  N2  UNL     1      20.457   2.452  48.703  1.00  0.00    -0.230 NA
HETATM    3  C2  UNL     1      20.373   3.708  48.077  1.00  0.00     0.233 C 
HETATM    4  N3  UNL     1      20.326   4.937  47.771  1.00  0.00    -0.256 NA
HETATM    5  P1  UNL     1      20.433   6.305  48.900  1.00  0.00     0.018 P 
HETATM    6  C3  UNL     1      21.150   5.849  50.519  1.00  0.00     0.177 C 
HETATM    7  N4  UNL     1      22.315   5.032  50.500  1.00  0.00    -0.379 N 
HETATM    8  C10 UNL     1      22.144   3.787  51.140  1.00  0.00     0.102 C 
HETATM    9  C11 UNL     1      21.645   2.585  51.049  1.00  0.00     0.029 C 
HETATM   10  H4  UNL     1      19.170   6.981  49.020  1.00  0.00     0.084 HD
ENDROOT
BRANCH   9  11
HETATM   11  C12 UNL     1      21.820   1.621  52.096  1.00  0.00    -0.019 A 
HETATM   12  C13 UNL     1      20.807   1.190  52.892  1.00  0.00     0.012 A 
HETATM   13  C14 UNL     1      20.984   0.241  53.845  1.00  0.00     0.004 A 
HETATM   14  C15 UNL     1      22.221  -0.297  54.011  1.00  0.00     0.037 A 
HETATM   15  C16 UNL     1      23.331   0.036  53.290  1.00  0.00     0.070 A 
HETATM   16  C24 UNL     1      23.041   1.028  52.326  1.00  0.00     0.049 A 
BRANCH  15  17
HETATM   17  O1  UNL     1      24.623  -0.358  53.287  1.00  0.00    -0.347 OA
BRANCH  17  18
HETATM   18  C17 UNL     1      25.740   0.354  52.960  1.00  0.00     0.214 C 
BRANCH  18  19
HETATM   19  C18 UNL     1      27.041  -0.336  53.112  1.00  0.00    -0.034 A 
HETATM   20  C19 UNL     1      28.308   0.047  53.487  1.00  0.00     0.009 A 
HETATM   21  C20 UNL     1      29.353  -0.848  53.511  1.00  0.00     0.001 A 
HETATM   22  C21 UNL     1      29.214  -2.168  53.170  1.00  0.00     0.000 A 
HETATM   23  C22 UNL     1      27.959  -2.592  52.789  1.00  0.00     0.001 A 
HETATM   24  C23 UNL     1      26.918  -1.690  52.767  1.00  0.00     0.009 A 
ENDBRANCH  18  19
ENDBRANCH  17  18
ENDBRANCH  15  17
ENDBRANCH   9  11
BRANCH   1  25
HETATM   25  N1  UNL     1      20.528   0.976  49.392  1.00  0.00    -0.286 NA
HETATM   26  H1  UNL     1      19.973   0.228  48.906  1.00  0.00     0.125 HD
HETATM   27  H2  UNL     1      19.872   0.339  48.839  1.00  0.00     0.125 HD
ENDBRANCH   1  25
BRANCH   7  28
HETATM   28  C4  UNL     1      23.623   5.290  49.964  1.00  0.00     0.085 C 
HETATM   29  C5  UNL     1      24.788   4.920  50.824  1.00  0.00     0.034 C 
HETATM   30  C6  UNL     1      25.409   4.305  49.596  1.00  0.00    -0.037 A 
HETATM   31  C7  UNL     1      26.670   4.691  49.009  1.00  0.00     0.010 A 
HETATM   32  C8  UNL     1      26.412   3.264  49.596  1.00  0.00     0.010 A 
HETATM   33  C9  UNL     1      24.080   4.255  48.911  1.00  0.00     0.034 C 
ENDBRANCH   7  28
TORSDOF 6
ENDMDL
MODEL 5
REMARK VINA RESULT:      -8.4      2.863      4.576
REMARK  6 active torsions:
REMARK  status: ('A' for Active; 'I' for Inactive)
REMARK    1  A    between atoms: N1_1  and  C1_2 
REMARK    2  A    between atoms: N4_8  and  C4_9 
REMARK    3  A    between atoms: C11_16  and  C12_17 
REMARK    4  A    between atoms: C16_21  and  O1_22 
REMARK    5  A    between atoms: O1_22  and  C17_23 
REMARK    6  A    between atoms: C17_23  and  C18_24 
ROOT
HETATM    1  C1  UNL     1      23.087   6.874  50.116  1.00  0.00     0.114 C 
HETATM    2  N2  UNL     1      22.314   7.623  50.734  1.00  0.00    -0.230 NA
HETATM    3  C2  UNL     1      20.978   7.838  50.353  1.00  0.00     0.233 C 
HETATM    4  N3  UNL     1      19.861   7.940  49.763  1.00  0.00    -0.256 NA
HETATM    5  P1  UNL     1      19.532   7.546  48.062  1.00  0.00     0.018 P 
HETATM    6  C3  UNL     1      20.805   6.468  47.313  1.00  0.00     0.177 C 
HETATM    7  N4  UNL     1      21.240   5.354  48.083  1.00  0.00    -0.379 N 
HETATM    8  C10 UNL     1      22.614   5.383  48.397  1.00  0.00     0.102 C 
HETATM    9  C11 UNL     1      23.537   5.906  49.157  1.00  0.00     0.029 C 
HETATM   10  H4  UNL     1      19.284   8.735  47.292  1.00  0.00     0.084 HD
ENDROOT
BRANCH   9  11
HETATM   11  C12 UNL     1      24.908   5.499  49.056  1.00  0.00    -0.019 A 
HETATM   12  C13 UNL     1      25.879   6.273  48.506  1.00  0.00     0.012 A 
HETATM   13  C14 UNL     1      27.179   5.888  48.464  1.00  0.00     0.004 A 
HETATM   14  C15 UNL     1      27.522   4.683  48.991  1.00  0.00     0.037 A 
HETATM   15  C16 UNL     1      26.661   3.801  49.574  1.00  0.00     0.070 A 
HETATM   16  C24 UNL     1      25.337   4.294  49.568  1.00  0.00     0.049 A 
BRANCH  15  17
HETATM   17  O1  UNL     1      26.780   2.582  50.145  1.00  0.00    -0.347 OA
BRANCH  17  18
HETATM   18  C17 UNL     1      26.803   2.249  51.467  1.00  0.00     0.214 C 
BRANCH  18  19
HETATM   19  C18 UNL     1      25.613   1.548  52.001  1.00  0.00    -0.034 A 
HETATM   20  C19 UNL     1      24.263   1.812  52.042  1.00  0.00     0.009 A 
HETATM   21  C20 UNL     1      23.379   0.951  52.647  1.00  0.00     0.001 A 
HETATM   22  C21 UNL     1      23.767  -0.220  53.245  1.00  0.00     0.000 A 
HETATM   23  C22 UNL     1      25.111  -0.522  53.225  1.00  0.00     0.001 A 
HETATM   24  C23 UNL     1      25.991   0.346  52.617  1.00  0.00     0.009 A 
ENDBRANCH  18  19
ENDBRANCH  17  18
ENDBRANCH  15  17
ENDBRANCH   9  11
BRANCH   1  25
HETATM   25  N1  UNL     1      23.859   7.410  51.211  1.00  0.00    -0.286 NA
HETATM   26  H1  UNL     1      24.094   7.792  52.161  1.00  0.00     0.125 HD
HETATM   27  H2  UNL     1      23.938   7.780  52.210  1.00  0.00     0.125 HD
ENDBRANCH   1  25
BRANCH   7  28
HETATM   28  C4  UNL     1      20.510   4.209  48.554  1.00  0.00     0.085 C 
HETATM   29  C5  UNL     1      20.720   2.927  47.815  1.00  0.00     0.034 C 
HETATM   30  C6  UNL     1      20.843   2.254  49.158  1.00  0.00    -0.037 A 
HETATM   31  C7  UNL     1      19.996   1.194  49.648  1.00  0.00     0.010 A 
HETATM   32  C8  UNL     1      21.531   1.009  49.413  1.00  0.00     0.010 A 
HETATM   33  C9  UNL     1      21.111   3.567  49.825  1.00  0.00     0.034 C 
ENDBRANCH   7  28
TORSDOF 6
ENDMDL
MODEL 6
REMARK VINA RESULT:      -8.2      1.874      2.506
REMARK  6 active torsions:
REMARK  status: ('A' for Active; 'I' for Inactive)
REMARK    1  A    between atoms: N1_1  and  C1_2 
REMARK    2  A    between atoms: N4_8  and  C4_9 
REMARK    3  A    between atoms: C11_16  and  C12_17 
REMARK    4  A    between atoms: C16_21  and  O1_22 
REMARK    5  A    between atoms: O1_22  and  C17_23 
REMARK    6  A    between atoms: C17_23  and  C18_24 
ROOT
HETATM    1  C1  UNL     1      22.087   4.720  50.484  1.00  0.00     0.114 C 
HETATM    2  N2  UNL     1      21.190   5.564  50.638  1.00  0.00    -0.230 NA
HETATM    3  C2  UNL     1      19.902   5.431  50.091  1.00  0.00     0.233 C 
HETATM    4  N3  UNL     1      18.866   5.132  49.425  1.00  0.00    -0.256 NA
HETATM    5  P1  UNL     1      18.787   4.005  48.054  1.00  0.00     0.018 P 
HETATM    6  C3  UNL     1      20.219   2.870  47.971  1.00  0.00     0.177 C 
HETATM    7  N4  UNL     1      20.629   2.260  49.189  1.00  0.00    -0.379 N 
HETATM    8  C10 UNL     1      21.945   2.588  49.572  1.00  0.00     0.102 C 
HETATM    9  C11 UNL     1      22.724   3.495  50.096  1.00  0.00     0.029 C 
HETATM   10  H4  UNL     1      18.556   4.703  46.819  1.00  0.00     0.084 HD
ENDROOT
BRANCH   9  11
HETATM   11  C12 UNL     1      24.122   3.252  50.301  1.00  0.00    -0.019 A 
HETATM   12  C13 UNL     1      25.091   3.714  49.470  1.00  0.00     0.012 A 
HETATM   13  C14 UNL     1      26.412   3.515  49.709  1.00  0.00     0.004 A 
HETATM   14  C15 UNL     1      26.777   2.825  50.821  1.00  0.00     0.037 A 
HETATM   15  C16 UNL     1      25.921   2.301  51.745  1.00  0.00     0.070 A 
HETATM   16  C24 UNL     1      24.574   2.564  51.405  1.00  0.00     0.049 A 
BRANCH  15  17
HETATM   17  O1  UNL     1      26.061   1.598  52.890  1.00  0.00    -0.347 OA
BRANCH  17  18
HETATM   18  C17 UNL     1      27.146   1.494  53.709  1.00  0.00     0.214 C 
BRANCH  18  19
HETATM   19  C18 UNL     1      27.967   0.268  53.580  1.00  0.00    -0.034 A 
HETATM   20  C19 UNL     1      29.284  -0.052  53.813  1.00  0.00     0.009 A 
HETATM   21  C20 UNL     1      29.773  -1.313  53.569  1.00  0.00     0.001 A 
HETATM   22  C21 UNL     1      28.998  -2.335  53.083  1.00  0.00     0.000 A 
HETATM   23  C22 UNL     1      27.671  -2.055  52.838  1.00  0.00     0.001 A 
HETATM   24  C23 UNL     1      27.189  -0.789  53.084  1.00  0.00     0.009 A 
ENDBRANCH  18  19
ENDBRANCH  17  18
ENDBRANCH  15  17
ENDBRANCH   9  11
BRANCH   1  25
HETATM   25  N1  UNL     1      22.672   5.766  51.288  1.00  0.00    -0.286 NA
HETATM   26  H1  UNL     1      23.390   6.418  51.691  1.00  0.00     0.125 HD
HETATM   27  H2  UNL     1      23.509   6.352  51.599  1.00  0.00     0.125 HD
ENDBRANCH   1  25
BRANCH   7  28
HETATM   28  C4  UNL     1      19.927   1.354  50.056  1.00  0.00     0.085 C 
HETATM   29  C5  UNL     1      20.746   0.305  50.737  1.00  0.00     0.034 C 
HETATM   30  C6  UNL     1      20.001   0.645  52.003  1.00  0.00    -0.037 A 
HETATM   31  C7  UNL     1      19.192  -0.270  52.772  1.00  0.00     0.010 A 
HETATM   32  C8  UNL     1      20.478   0.409  53.346  1.00  0.00     0.010 A 
HETATM   33  C9  UNL     1      19.570   1.959  51.433  1.00  0.00     0.034 C 
ENDBRANCH   7  28
TORSDOF 6
ENDMDL
MODEL 7
REMARK VINA RESULT:      -8.2      2.299      4.917
REMARK  6 active torsions:
REMARK  status: ('A' for Active; 'I' for Inactive)
REMARK    1  A    between atoms: N1_1  and  C1_2 
REMARK    2  A    between atoms: N4_8  and  C4_9 
REMARK    3  A    between atoms: C11_16  and  C12_17 
REMARK    4  A    between atoms: C16_21  and  O1_22 
REMARK    5  A    between atoms: O1_22  and  C17_23 
REMARK    6  A    between atoms: C17_23  and  C18_24 
ROOT
HETATM    1  C1  UNL     1      23.264   3.805  52.135  1.00  0.00     0.114 C 
HETATM    2  N2  UNL     1      23.710   4.947  51.940  1.00  0.00    -0.230 NA
HETATM    3  C2  UNL     1      23.263   5.783  50.901  1.00  0.00     0.233 C 
HETATM    4  N3  UNL     1      22.773   6.298  49.852  1.00  0.00    -0.256 NA
HETATM    5  P1  UNL     1      21.982   5.423  48.523  1.00  0.00     0.018 P 
HETATM    6  C3  UNL     1      21.435   3.742  48.992  1.00  0.00     0.177 C 
HETATM    7  N4  UNL     1      20.768   3.607  50.242  1.00  0.00    -0.379 N 
HETATM    8  C10 UNL     1      21.435   2.763  51.152  1.00  0.00     0.102 C 
HETATM    9  C11 UNL     1      22.427   2.648  51.992  1.00  0.00     0.029 C 
HETATM   10  H4  UNL     1      22.794   5.434  47.337  1.00  0.00     0.084 HD
ENDROOT
BRANCH   9  11
HETATM   11  C12 UNL     1      22.632   1.448  52.750  1.00  0.00    -0.019 A 
HETATM   12  C13 UNL     1      21.681   0.897  53.547  1.00  0.00     0.012 A 
HETATM   13  C14 UNL     1      21.879  -0.266  54.217  1.00  0.00     0.004 A 
HETATM   14  C15 UNL     1      23.074  -0.901  54.087  1.00  0.00     0.037 A 
HETATM   15  C16 UNL     1      24.120  -0.469  53.325  1.00  0.00     0.070 A 
HETATM   16  C24 UNL     1      23.813   0.745  52.670  1.00  0.00     0.049 A 
BRANCH  15  17
HETATM   17  O1  UNL     1      25.363  -0.927  53.059  1.00  0.00    -0.347 OA
BRANCH  17  18
HETATM   18  C17 UNL     1      26.326  -0.388  52.257  1.00  0.00     0.214 C 
BRANCH  18  19
HETATM   19  C18 UNL     1      27.289   0.536  52.898  1.00  0.00    -0.034 A 
HETATM   20  C19 UNL     1      27.563   1.881  52.798  1.00  0.00     0.009 A 
HETATM   21  C20 UNL     1      28.567   2.467  53.531  1.00  0.00     0.001 A 
HETATM   22  C21 UNL     1      29.360   1.769  54.406  1.00  0.00     0.000 A 
HETATM   23  C22 UNL     1      29.117   0.420  54.536  1.00  0.00     0.001 A 
HETATM   24  C23 UNL     1      28.109  -0.161  53.797  1.00  0.00     0.009 A 
ENDBRANCH  18  19
ENDBRANCH  17  18
ENDBRANCH  15  17
ENDBRANCH   9  11
BRANCH   1  25
HETATM   25  N1  UNL     1      24.263   4.012  53.156  1.00  0.00    -0.286 NA
HETATM   26  H1  UNL     1      25.045   3.813  53.828  1.00  0.00     0.125 HD
HETATM   27  H2  UNL     1      25.052   3.656  53.781  1.00  0.00     0.125 HD
ENDBRANCH   1  25
BRANCH   7  28
HETATM   28  C4  UNL     1      19.525   4.168  50.696  1.00  0.00     0.085 C 
HETATM   29  C5  UNL     1      18.330   3.947  49.826  1.00  0.00     0.034 C 
HETATM   30  C6  UNL     1      17.571   3.591  51.079  1.00  0.00    -0.037 A 
HETATM   31  C7  UNL     1      16.399   4.272  51.574  1.00  0.00     0.010 A 
HETATM   32  C8  UNL     1      16.383   2.771  51.136  1.00  0.00     0.010 A 
HETATM   33  C9  UNL     1      18.848   3.352  51.821  1.00  0.00     0.034 C 
ENDBRANCH   7  28
TORSDOF 6
ENDMDL
MODEL 8
REMARK VINA RESULT:      -8.1      4.456      7.003
REMARK  6 active torsions:
REMARK  status: ('A' for Active; 'I' for Inactive)
REMARK    1  A    between atoms: N1_1  and  C1_2 
REMARK    2  A    between atoms: N4_8  and  C4_9 
REMARK    3  A    between atoms: C11_16  and  C12_17 
REMARK    4  A    between atoms: C16_21  and  O1_22 
REMARK    5  A    between atoms: O1_22  and  C17_23 
REMARK    6  A    between atoms: C17_23  and  C18_24 
ROOT
HETATM    1  C1  UNL     1      24.257   5.550  51.065  1.00  0.00     0.114 C 
HETATM    2  N2  UNL     1      23.322   5.839  51.831  1.00  0.00    -0.230 NA
HETATM    3  C2  UNL     1      22.310   4.932  52.188  1.00  0.00     0.233 C 
HETATM    4  N3  UNL     1      21.476   3.982  52.279  1.00  0.00    -0.256 NA
HETATM    5  P1  UNL     1      21.296   2.629  51.142  1.00  0.00     0.018 P 
HETATM    6  C3  UNL     1      22.758   2.390  50.070  1.00  0.00     0.177 C 
HETATM    7  N4  UNL     1      24.033   2.440  50.700  1.00  0.00    -0.379 N 
HETATM    8  C10 UNL     1      24.862   3.474  50.217  1.00  0.00     0.102 C 
HETATM    9  C11 UNL     1      25.117   4.753  50.239  1.00  0.00     0.029 C 
HETATM   10  H4  UNL     1      20.070   2.735  50.397  1.00  0.00     0.084 HD
ENDROOT
BRANCH   9  11
HETATM   11  C12 UNL     1      26.218   5.309  49.508  1.00  0.00    -0.019 A 
HETATM   12  C13 UNL     1      27.270   4.573  49.066  1.00  0.00     0.012 A 
HETATM   13  C14 UNL     1      28.278   5.110  48.334  1.00  0.00     0.004 A 
HETATM   14  C15 UNL     1      28.233   6.434  48.032  1.00  0.00     0.037 A 
HETATM   15  C16 UNL     1      27.245   7.298  48.406  1.00  0.00     0.070 A 
HETATM   16  C24 UNL     1      26.246   6.642  49.161  1.00  0.00     0.049 A 
BRANCH  15  17
HETATM   17  O1  UNL     1      27.006   8.615  48.225  1.00  0.00    -0.347 OA
BRANCH  17  18
HETATM   18  C17 UNL     1      27.032   9.629  49.137  1.00  0.00     0.214 C 
BRANCH  18  19
HETATM   19  C18 UNL     1      28.181  10.559  49.070  1.00  0.00    -0.034 A 
HETATM   20  C19 UNL     1      28.334  11.901  48.808  1.00  0.00     0.009 A 
HETATM   21  C20 UNL     1      29.573  12.496  48.796  1.00  0.00     0.001 A 
HETATM   22  C21 UNL     1      30.734  11.809  49.043  1.00  0.00     0.000 A 
HETATM   23  C22 UNL     1      30.624  10.463  49.311  1.00  0.00     0.001 A 
HETATM   24  C23 UNL     1      29.379   9.874  49.320  1.00  0.00     0.009 A 
ENDBRANCH  18  19
ENDBRANCH  17  18
ENDBRANCH  15  17
ENDBRANCH   9  11
BRANCH   1  25
HETATM   25  N1  UNL     1      24.473   6.927  51.440  1.00  0.00    -0.286 NA
HETATM   26  H1  UNL     1      24.389   7.974  51.448  1.00  0.00     0.125 HD
HETATM   27  H2  UNL     1      24.280   7.971  51.326  1.00  0.00     0.125 HD
ENDBRANCH   1  25
BRANCH   7  28
HETATM   28  C4  UNL     1      24.603   1.595  51.712  1.00  0.00     0.085 C 
HETATM   29  C5  UNL     1      26.066   1.305  51.601  1.00  0.00     0.034 C 
HETATM   30  C6  UNL     1      26.162   1.588  53.079  1.00  0.00    -0.037 A 
HETATM   31  C7  UNL     1      26.615   0.657  54.084  1.00  0.00     0.010 A 
HETATM   32  C8  UNL     1      27.359   1.999  53.777  1.00  0.00     0.010 A 
HETATM   33  C9  UNL     1      24.856   2.316  53.056  1.00  0.00     0.034 C 
ENDBRANCH   7  28
TORSDOF 6
ENDMDL
MODEL 9
REMARK VINA RESULT:      -8.1      3.890      7.577
REMARK  6 active torsions:
REMARK  status: ('A' for Active; 'I' for Inactive)
REMARK    1  A    between atoms: N1_1  and  C1_2 
REMARK    2  A    between atoms: N4_8  and  C4_9 
REMARK    3  A    between atoms: C11_16  and  C12_17 
REMARK    4  A    between atoms: C16_21  and  O1_22 
REMARK    5  A    between atoms: O1_22  and  C17_23 
REMARK    6  A    between atoms: C17_23  and  C18_24 
ROOT
HETATM    1  C1  UNL     1      22.292   1.431  50.794  1.00  0.00     0.114 C 
HETATM    2  N2  UNL     1      22.430   1.960  49.678  1.00  0.00    -0.230 NA
HETATM    3  C2  UNL     1      23.123   3.165  49.476  1.00  0.00     0.233 C 
HETATM    4  N3  UNL     1      23.702   4.290  49.565  1.00  0.00    -0.256 NA
HETATM    5  P1  UNL     1      23.856   5.279  51.033  1.00  0.00     0.018 P 
HETATM    6  C3  UNL     1      23.577   4.332  52.572  1.00  0.00     0.177 C 
HETATM    7  N4  UNL     1      24.209   3.061  52.671  1.00  0.00    -0.379 N 
HETATM    8  C10 UNL     1      23.306   1.988  52.809  1.00  0.00     0.102 C 
HETATM    9  C11 UNL     1      22.461   1.202  52.200  1.00  0.00     0.029 C 
HETATM   10  H4  UNL     1      23.044   6.462  50.950  1.00  0.00     0.084 HD
ENDROOT
BRANCH   9  11
HETATM   11  C12 UNL     1      21.779   0.152  52.899  1.00  0.00    -0.019 A 
HETATM   12  C13 UNL     1      22.420  -0.823  53.593  1.00  0.00     0.012 A 
HETATM   13  C14 UNL     1      21.754  -1.779  54.288  1.00  0.00     0.004 A 
HETATM   14  C15 UNL     1      20.395  -1.762  54.287  1.00  0.00     0.037 A 
HETATM   15  C16 UNL     1      19.617  -0.849  53.637  1.00  0.00     0.070 A 
HETATM   16  C24 UNL     1      20.403   0.101  52.947  1.00  0.00     0.049 A 
BRANCH  15  17
HETATM   17  O1  UNL     1      18.287  -0.649  53.501  1.00  0.00    -0.347 OA
BRANCH  17  18
HETATM   18  C17 UNL     1      17.461  -1.014  52.479  1.00  0.00     0.214 C 
BRANCH  18  19
HETATM   19  C18 UNL     1      16.644  -2.231  52.681  1.00  0.00    -0.034 A 
HETATM   20  C19 UNL     1      15.377  -2.626  52.316  1.00  0.00     0.009 A 
HETATM   21  C20 UNL     1      14.871  -3.850  52.684  1.00  0.00     0.001 A 
HETATM   22  C21 UNL     1      15.577  -4.759  53.429  1.00  0.00     0.000 A 
HETATM   23  C22 UNL     1      16.851  -4.402  53.814  1.00  0.00     0.001 A 
HETATM   24  C23 UNL     1      17.351  -3.173  53.443  1.00  0.00     0.009 A 
ENDBRANCH  18  19
ENDBRANCH  17  18
ENDBRANCH  15  17
ENDBRANCH   9  11
BRANCH   1  25
HETATM   25  N1  UNL     1      21.610   0.562  49.865  1.00  0.00    -0.286 NA
HETATM   26  H1  UNL     1      21.171  -0.302  49.461  1.00  0.00     0.125 HD
HETATM   27  H2  UNL     1      21.207  -0.389  49.595  1.00  0.00     0.125 HD
ENDBRANCH   1  25
BRANCH   7  28
HETATM   28  C4  UNL     1      25.604   2.717  52.680  1.00  0.00     0.085 C 
HETATM   29  C5  UNL     1      26.096   1.936  53.857  1.00  0.00     0.034 C 
HETATM   30  C6  UNL     1      26.825   1.053  52.877  1.00  0.00    -0.037 A 
HETATM   31  C7  UNL     1      28.252   0.841  52.838  1.00  0.00     0.010 A 
HETATM   32  C8  UNL     1      27.234  -0.311  53.121  1.00  0.00     0.010 A 
HETATM   33  C9  UNL     1      25.960   1.531  51.754  1.00  0.00     0.034 C 
ENDBRANCH   7  28
TORSDOF 6
ENDMDL
