MODEL 1
REMARK VINA RESULT:      -7.4      0.000      0.000
REMARK  11 active torsions:
REMARK  status: ('A' for Active; 'I' for Inactive)
REMARK    1  A    between atoms: C7_9  and  O3_10 
REMARK    2  A    between atoms: C9_12  and  O4_13 
REMARK    3  A    between atoms: O4_13  and  C10_14 
REMARK    4  A    between atoms: C10_14  and  C11_15 
REMARK       I    between atoms: C11_15  and  N1_17 
REMARK    5  A    between atoms: N1_17  and  C12_18 
REMARK    6  A    between atoms: C12_18  and  C13_19 
REMARK    7  A    between atoms: C13_19  and  C14_20 
REMARK    8  A    between atoms: C14_20  and  C15_21 
REMARK    9  A    between atoms: C15_21  and  C16_22 
REMARK   10  A    between atoms: C16_22  and  C17_23 
REMARK   11  A    between atoms: C17_23  and  C18_24 
ROOT
HETATM    1  C1  UNL     1      26.588   2.765  51.142  1.00  0.00     0.047 A 
HETATM    2  C2  UNL     1      25.563   2.218  51.776  1.00  0.00    -0.015 A 
HETATM    3  O1  UNL     1      26.694   1.401  52.048  1.00  0.00     0.000 OA
HETATM    4  C3  UNL     1      26.725   0.813  53.372  1.00  0.00    -0.048 C 
HETATM    5  C4  UNL     1      27.630  -0.030  52.896  1.00  0.00     0.063 C 
HETATM    6  C5  UNL     1      26.463  -0.876  52.789  1.00  0.00     0.181 C 
HETATM    7  O2  UNL     1      26.543  -2.068  52.328  1.00  0.00    -0.288 OA
HETATM    8  C6  UNL     1      25.128  -0.448  53.183  1.00  0.00     0.025 C 
HETATM    9  C7  UNL     1      23.923   0.132  53.392  1.00  0.00     0.078 C 
HETATM   10  C8  UNL     1      23.511   1.402  52.805  1.00  0.00     0.074 C 
HETATM   11  C9  UNL     1      24.155   2.297  52.108  1.00  0.00     0.079 C 
HETATM   12  C20 UNL     1      25.546  -0.857  54.607  1.00  0.00     0.050 C 
HETATM   13  C21 UNL     1      26.593   0.340  54.869  1.00  0.00     0.044 C 
ENDROOT
BRANCH  11  14
HETATM   14  O4  UNL     1      23.636   3.447  51.573  1.00  0.00    -0.341 OA
BRANCH  14  15
HETATM   15  C10 UNL     1      23.092   4.491  52.313  1.00  0.00     0.278 C 
BRANCH  15  16
HETATM   16  C11 UNL     1      23.294   5.802  51.599  1.00  0.00     0.241 C 
HETATM   17  O5  UNL     1      22.228   5.511  51.044  1.00  0.00    -0.271 OA
HETATM   18  N1  UNL     1      24.297   6.778  51.664  1.00  0.00    -0.359 N 
HETATM   19  H8  UNL     1      25.020   6.471  52.368  1.00  0.00     0.162 HD
BRANCH  18  20
HETATM   20  C12 UNL     1      23.989   7.851  50.746  1.00  0.00     0.122 C 
BRANCH  20  21
HETATM   21  C13 UNL     1      25.151   8.544  50.159  1.00  0.00     0.020 C 
BRANCH  21  22
HETATM   22  C14 UNL     1      26.457   7.924  50.001  1.00  0.00     0.002 C 
BRANCH  22  23
HETATM   23  C15 UNL     1      26.747   7.193  48.753  1.00  0.00     0.000 C 
BRANCH  23  24
HETATM   24  C16 UNL     1      26.632   5.721  48.796  1.00  0.00     0.000 C 
BRANCH  24  25
HETATM   25  C17 UNL     1      28.006   5.084  48.549  1.00  0.00    -0.000 C 
BRANCH  25  26
HETATM   26  C18 UNL     1      28.958   6.015  47.863  1.00  0.00    -0.005 C 
HETATM   27  C19 UNL     1      30.253   6.203  48.618  1.00  0.00     0.005 C 
ENDBRANCH  25  26
ENDBRANCH  24  25
ENDBRANCH  23  24
ENDBRANCH  22  23
ENDBRANCH  21  22
ENDBRANCH  20  21
ENDBRANCH  18  20
ENDBRANCH  15  16
ENDBRANCH  14  15
ENDBRANCH  11  14
BRANCH   9  28
HETATM   28  O3  UNL     1      22.953  -0.426  54.264  1.00  0.00    -0.360 OA
HETATM   29  H4  UNL     1      22.237   0.231  54.546  1.00  0.00     0.217 HD
ENDBRANCH   9  28
TORSDOF 11
ENDMDL
MODEL 2
REMARK VINA RESULT:      -7.2      2.441      4.047
REMARK  11 active torsions:
REMARK  status: ('A' for Active; 'I' for Inactive)
REMARK    1  A    between atoms: C7_9  and  O3_10 
REMARK    2  A    between atoms: C9_12  and  O4_13 
REMARK    3  A    between atoms: O4_13  and  C10_14 
REMARK    4  A    between atoms: C10_14  and  C11_15 
REMARK       I    between atoms: C11_15  and  N1_17 
REMARK    5  A    between atoms: N1_17  and  C12_18 
REMARK    6  A    between atoms: C12_18  and  C13_19 
REMARK    7  A    between atoms: C13_19  and  C14_20 
REMARK    8  A    between atoms: C14_20  and  C15_21 
REMARK    9  A    between atoms: C15_21  and  C16_22 
REMARK   10  A    between atoms: C16_22  and  C17_23 
REMARK   11  A    between atoms: C17_23  and  C18_24 
ROOT
HETATM    1  C1  UNL     1      23.490   1.521  52.255  1.00  0.00     0.047 A 
HETATM    2  C2  UNL     1      24.790   1.772  52.258  1.00  0.00    -0.015 A 
HETATM    3  O1  UNL     1      24.603   0.583  53.015  1.00  0.00     0.000 OA
HETATM    4  C3  UNL     1      25.661  -0.399  52.891  1.00  0.00    -0.048 C 
HETATM    5  C4  UNL     1      25.175  -0.953  53.991  1.00  0.00     0.063 C 
HETATM    6  C5  UNL     1      26.251  -0.193  54.585  1.00  0.00     0.181 C 
HETATM    7  O2  UNL     1      26.466  -0.214  55.848  1.00  0.00    -0.288 OA
HETATM    8  C6  UNL     1      27.156   0.647  53.812  1.00  0.00     0.025 C 
HETATM    9  C7  UNL     1      27.794   1.538  53.018  1.00  0.00     0.078 C 
HETATM   10  C8  UNL     1      27.117   2.484  52.137  1.00  0.00     0.074 C 
HETATM   11  C9  UNL     1      25.864   2.631  51.805  1.00  0.00     0.079 C 
HETATM   12  C20 UNL     1      27.943  -0.650  53.549  1.00  0.00     0.050 C 
HETATM   13  C21 UNL     1      26.877  -1.344  52.559  1.00  0.00     0.044 C 
ENDROOT
BRANCH  11  14
HETATM   14  O4  UNL     1      25.344   3.599  50.986  1.00  0.00    -0.341 OA
BRANCH  14  15
HETATM   15  C10 UNL     1      25.405   3.580  49.597  1.00  0.00     0.278 C 
BRANCH  15  16
HETATM   16  C11 UNL     1      26.266   4.709  49.093  1.00  0.00     0.241 C 
HETATM   17  O5  UNL     1      25.186   5.293  48.952  1.00  0.00    -0.271 OA
HETATM   18  N1  UNL     1      27.651   4.851  48.930  1.00  0.00    -0.359 N 
HETATM   19  H8  UNL     1      28.119   3.958  49.237  1.00  0.00     0.162 HD
BRANCH  18  20
HETATM   20  C12 UNL     1      27.944   6.162  48.399  1.00  0.00     0.122 C 
BRANCH  20  21
HETATM   21  C13 UNL     1      29.264   6.312  47.758  1.00  0.00     0.020 C 
BRANCH  21  22
HETATM   22  C14 UNL     1      30.432   5.535  48.139  1.00  0.00     0.002 C 
BRANCH  22  23
HETATM   23  C15 UNL     1      31.749   5.927  47.601  1.00  0.00     0.000 C 
BRANCH  23  24
HETATM   24  C16 UNL     1      32.355   5.031  46.595  1.00  0.00     0.000 C 
BRANCH  24  25
HETATM   25  C17 UNL     1      31.930   3.582  46.867  1.00  0.00    -0.000 C 
BRANCH  25  26
HETATM   26  C18 UNL     1      33.095   2.644  46.943  1.00  0.00    -0.005 C 
HETATM   27  C19 UNL     1      34.392   3.266  46.479  1.00  0.00     0.005 C 
ENDBRANCH  25  26
ENDBRANCH  24  25
ENDBRANCH  23  24
ENDBRANCH  22  23
ENDBRANCH  21  22
ENDBRANCH  20  21
ENDBRANCH  18  20
ENDBRANCH  15  16
ENDBRANCH  14  15
ENDBRANCH  11  14
BRANCH   9  28
HETATM   28  O3  UNL     1      29.208   1.595  52.924  1.00  0.00    -0.360 OA
HETATM   29  H4  UNL     1      29.542   1.928  52.029  1.00  0.00     0.217 HD
ENDBRANCH   9  28
TORSDOF 11
ENDMDL
MODEL 3
REMARK VINA RESULT:      -7.0      1.724      3.063
REMARK  11 active torsions:
REMARK  status: ('A' for Active; 'I' for Inactive)
REMARK    1  A    between atoms: C7_9  and  O3_10 
REMARK    2  A    between atoms: C9_12  and  O4_13 
REMARK    3  A    between atoms: O4_13  and  C10_14 
REMARK    4  A    between atoms: C10_14  and  C11_15 
REMARK       I    between atoms: C11_15  and  N1_17 
REMARK    5  A    between atoms: N1_17  and  C12_18 
REMARK    6  A    between atoms: C12_18  and  C13_19 
REMARK    7  A    between atoms: C13_19  and  C14_20 
REMARK    8  A    between atoms: C14_20  and  C15_21 
REMARK    9  A    between atoms: C15_21  and  C16_22 
REMARK   10  A    between atoms: C16_22  and  C17_23 
REMARK   11  A    between atoms: C17_23  and  C18_24 
ROOT
HETATM    1  C1  UNL     1      23.604   1.299  51.711  1.00  0.00     0.047 A 
HETATM    2  C2  UNL     1      24.879   1.623  51.856  1.00  0.00    -0.015 A 
HETATM    3  O1  UNL     1      24.662   0.459  52.643  1.00  0.00     0.000 OA
HETATM    4  C3  UNL     1      25.777  -0.465  52.696  1.00  0.00    -0.048 C 
HETATM    5  C4  UNL     1      25.189  -0.998  53.756  1.00  0.00     0.063 C 
HETATM    6  C5  UNL     1      26.144  -0.152  54.435  1.00  0.00     0.181 C 
HETATM    7  O2  UNL     1      26.205  -0.106  55.714  1.00  0.00    -0.288 OA
HETATM    8  C6  UNL     1      27.093   0.703  53.735  1.00  0.00     0.025 C 
HETATM    9  C7  UNL     1      27.776   1.593  52.979  1.00  0.00     0.078 C 
HETATM   10  C8  UNL     1      27.164   2.460  51.978  1.00  0.00     0.074 C 
HETATM   11  C9  UNL     1      25.955   2.522  51.491  1.00  0.00     0.079 C 
HETATM   12  C20 UNL     1      27.971  -0.557  53.632  1.00  0.00     0.050 C 
HETATM   13  C21 UNL     1      27.071  -1.353  52.559  1.00  0.00     0.044 C 
ENDROOT
BRANCH  11  14
HETATM   14  O4  UNL     1      25.490   3.422  50.568  1.00  0.00    -0.341 OA
BRANCH  14  15
HETATM   15  C10 UNL     1      24.695   4.523  50.865  1.00  0.00     0.278 C 
BRANCH  15  16
HETATM   16  C11 UNL     1      25.214   5.751  50.164  1.00  0.00     0.241 C 
HETATM   17  O5  UNL     1      24.625   5.279  49.186  1.00  0.00    -0.271 OA
HETATM   18  N1  UNL     1      25.998   6.832  50.590  1.00  0.00    -0.359 N 
HETATM   19  H8  UNL     1      26.235   6.695  51.609  1.00  0.00     0.162 HD
BRANCH  18  20
HETATM   20  C12 UNL     1      26.205   7.744  49.489  1.00  0.00     0.122 C 
BRANCH  20  21
HETATM   21  C13 UNL     1      27.527   7.671  48.839  1.00  0.00     0.020 C 
BRANCH  21  22
HETATM   22  C14 UNL     1      27.897   6.633  47.890  1.00  0.00     0.002 C 
BRANCH  22  23
HETATM   23  C15 UNL     1      28.871   5.607  48.309  1.00  0.00     0.000 C 
BRANCH  23  24
HETATM   24  C16 UNL     1      30.275   5.807  47.896  1.00  0.00     0.000 C 
BRANCH  24  25
HETATM   25  C17 UNL     1      30.961   6.793  48.850  1.00  0.00    -0.000 C 
BRANCH  25  26
HETATM   26  C18 UNL     1      31.448   8.027  48.154  1.00  0.00    -0.005 C 
HETATM   27  C19 UNL     1      31.017   9.304  48.837  1.00  0.00     0.005 C 
ENDBRANCH  25  26
ENDBRANCH  24  25
ENDBRANCH  23  24
ENDBRANCH  22  23
ENDBRANCH  21  22
ENDBRANCH  20  21
ENDBRANCH  18  20
ENDBRANCH  15  16
ENDBRANCH  14  15
ENDBRANCH  11  14
BRANCH   9  28
HETATM   28  O3  UNL     1      29.186   1.726  53.051  1.00  0.00    -0.360 OA
HETATM   29  H4  UNL     1      29.491   2.513  53.609  1.00  0.00     0.217 HD
ENDBRANCH   9  28
TORSDOF 11
ENDMDL
MODEL 4
REMARK VINA RESULT:      -7.0      1.955      2.646
REMARK  11 active torsions:
REMARK  status: ('A' for Active; 'I' for Inactive)
REMARK    1  A    between atoms: C7_9  and  O3_10 
REMARK    2  A    between atoms: C9_12  and  O4_13 
REMARK    3  A    between atoms: O4_13  and  C10_14 
REMARK    4  A    between atoms: C10_14  and  C11_15 
REMARK       I    between atoms: C11_15  and  N1_17 
REMARK    5  A    between atoms: N1_17  and  C12_18 
REMARK    6  A    between atoms: C12_18  and  C13_19 
REMARK    7  A    between atoms: C13_19  and  C14_20 
REMARK    8  A    between atoms: C14_20  and  C15_21 
REMARK    9  A    between atoms: C15_21  and  C16_22 
REMARK   10  A    between atoms: C16_22  and  C17_23 
REMARK   11  A    between atoms: C17_23  and  C18_24 
ROOT
HETATM    1  C1  UNL     1      23.912   2.218  50.614  1.00  0.00     0.047 A 
HETATM    2  C2  UNL     1      23.520   1.469  51.632  1.00  0.00    -0.015 A 
HETATM    3  O1  UNL     1      24.937   1.369  51.574  1.00  0.00     0.000 OA
HETATM    4  C3  UNL     1      25.600   1.261  52.858  1.00  0.00    -0.048 C 
HETATM    5  C4  UNL     1      26.659   0.826  52.191  1.00  0.00     0.063 C 
HETATM    6  C5  UNL     1      26.123  -0.449  52.608  1.00  0.00     0.181 C 
HETATM    7  O2  UNL     1      26.696  -1.550  52.292  1.00  0.00    -0.288 OA
HETATM    8  C6  UNL     1      24.909  -0.584  53.402  1.00  0.00     0.025 C 
HETATM    9  C7  UNL     1      23.676  -0.584  53.959  1.00  0.00     0.078 C 
HETATM   10  C8  UNL     1      22.530   0.137  53.416  1.00  0.00     0.074 C 
HETATM   11  C9  UNL     1      22.414   0.988  52.434  1.00  0.00     0.079 C 
HETATM   12  C20 UNL     1      25.820  -0.337  54.619  1.00  0.00     0.050 C 
HETATM   13  C21 UNL     1      26.113   1.224  54.347  1.00  0.00     0.044 C 
ENDROOT
BRANCH  11  14
HETATM   14  O4  UNL     1      21.256   1.573  51.991  1.00  0.00    -0.341 OA
BRANCH  14  15
HETATM   15  C10 UNL     1      20.559   2.567  52.669  1.00  0.00     0.278 C 
BRANCH  15  16
HETATM   16  C11 UNL     1      20.494   3.822  51.838  1.00  0.00     0.241 C 
HETATM   17  O5  UNL     1      19.277   3.727  52.030  1.00  0.00    -0.271 OA
HETATM   18  N1  UNL     1      21.475   4.603  51.213  1.00  0.00    -0.359 N 
HETATM   19  H8  UNL     1      22.419   4.170  51.400  1.00  0.00     0.162 HD
BRANCH  18  20
HETATM   20  C12 UNL     1      20.849   5.715  50.535  1.00  0.00     0.122 C 
BRANCH  20  21
HETATM   21  C13 UNL     1      21.479   7.031  50.750  1.00  0.00     0.020 C 
BRANCH  21  22
HETATM   22  C14 UNL     1      22.708   7.448  50.093  1.00  0.00     0.002 C 
BRANCH  22  23
HETATM   23  C15 UNL     1      23.971   7.397  50.854  1.00  0.00     0.000 C 
BRANCH  23  24
HETATM   24  C16 UNL     1      24.752   6.145  50.771  1.00  0.00     0.000 C 
BRANCH  24  25
HETATM   25  C17 UNL     1      24.917   5.732  49.303  1.00  0.00    -0.000 C 
BRANCH  25  26
HETATM   26  C18 UNL     1      26.351   5.534  48.918  1.00  0.00    -0.005 C 
HETATM   27  C19 UNL     1      26.866   4.150  49.236  1.00  0.00     0.005 C 
ENDBRANCH  25  26
ENDBRANCH  24  25
ENDBRANCH  23  24
ENDBRANCH  22  23
ENDBRANCH  21  22
ENDBRANCH  20  21
ENDBRANCH  18  20
ENDBRANCH  15  16
ENDBRANCH  14  15
ENDBRANCH  11  14
BRANCH   9  28
HETATM   28  O3  UNL     1      23.395  -1.249  55.180  1.00  0.00    -0.360 OA
HETATM   29  H4  UNL     1      23.542  -0.674  55.999  1.00  0.00     0.217 HD
ENDBRANCH   9  28
TORSDOF 11
ENDMDL
MODEL 5
REMARK VINA RESULT:      -6.9      1.858      3.060
REMARK  11 active torsions:
REMARK  status: ('A' for Active; 'I' for Inactive)
REMARK    1  A    between atoms: C7_9  and  O3_10 
REMARK    2  A    between atoms: C9_12  and  O4_13 
REMARK    3  A    between atoms: O4_13  and  C10_14 
REMARK    4  A    between atoms: C10_14  and  C11_15 
REMARK       I    between atoms: C11_15  and  N1_17 
REMARK    5  A    between atoms: N1_17  and  C12_18 
REMARK    6  A    between atoms: C12_18  and  C13_19 
REMARK    7  A    between atoms: C13_19  and  C14_20 
REMARK    8  A    between atoms: C14_20  and  C15_21 
REMARK    9  A    between atoms: C15_21  and  C16_22 
REMARK   10  A    between atoms: C16_22  and  C17_23 
REMARK   11  A    between atoms: C17_23  and  C18_24 
ROOT
HETATM    1  C1  UNL     1      22.426   0.133  53.307  1.00  0.00     0.047 A 
HETATM    2  C2  UNL     1      23.275   0.967  52.728  1.00  0.00    -0.015 A 
HETATM    3  O1  UNL     1      24.054   0.067  53.505  1.00  0.00     0.000 OA
HETATM    4  C3  UNL     1      25.340  -0.284  52.936  1.00  0.00    -0.048 C 
HETATM    5  C4  UNL     1      25.677  -0.707  54.145  1.00  0.00     0.063 C 
HETATM    6  C5  UNL     1      26.298   0.597  54.187  1.00  0.00     0.181 C 
HETATM    7  O2  UNL     1      26.938   0.999  55.222  1.00  0.00    -0.288 OA
HETATM    8  C6  UNL     1      26.245   1.543  53.081  1.00  0.00     0.025 C 
HETATM    9  C7  UNL     1      25.954   2.399  52.074  1.00  0.00     0.078 C 
HETATM   10  C8  UNL     1      24.607   2.650  51.574  1.00  0.00     0.074 C 
HETATM   11  C9  UNL     1      23.457   2.091  51.832  1.00  0.00     0.079 C 
HETATM   12  C20 UNL     1      27.444   0.763  52.512  1.00  0.00     0.050 C 
HETATM   13  C21 UNL     1      26.649  -0.580  52.110  1.00  0.00     0.044 C 
ENDROOT
BRANCH  11  14
HETATM   14  O4  UNL     1      22.238   2.451  51.317  1.00  0.00    -0.341 OA
BRANCH  14  15
HETATM   15  C10 UNL     1      21.878   2.340  49.979  1.00  0.00     0.278 C 
BRANCH  15  16
HETATM   16  C11 UNL     1      22.525   3.434  49.169  1.00  0.00     0.241 C 
HETATM   17  O5  UNL     1      22.708   2.533  48.344  1.00  0.00    -0.271 OA
HETATM   18  N1  UNL     1      22.733   4.799  49.407  1.00  0.00    -0.359 N 
HETATM   19  H8  UNL     1      22.337   5.040  50.354  1.00  0.00     0.162 HD
BRANCH  18  20
HETATM   20  C12 UNL     1      23.415   5.389  48.278  1.00  0.00     0.122 C 
BRANCH  20  21
HETATM   21  C13 UNL     1      24.646   6.137  48.595  1.00  0.00     0.020 C 
BRANCH  21  22
HETATM   22  C14 UNL     1      25.892   5.499  48.992  1.00  0.00     0.002 C 
BRANCH  22  23
HETATM   23  C15 UNL     1      27.165   6.082  48.527  1.00  0.00     0.000 C 
BRANCH  23  24
HETATM   24  C16 UNL     1      28.323   5.170  48.430  1.00  0.00     0.000 C 
BRANCH  24  25
HETATM   25  C17 UNL     1      29.556   5.945  47.948  1.00  0.00    -0.000 C 
BRANCH  25  26
HETATM   26  C18 UNL     1      29.348   7.429  47.965  1.00  0.00    -0.005 C 
HETATM   27  C19 UNL     1      30.259   8.146  48.933  1.00  0.00     0.005 C 
ENDBRANCH  25  26
ENDBRANCH  24  25
ENDBRANCH  23  24
ENDBRANCH  22  23
ENDBRANCH  21  22
ENDBRANCH  20  21
ENDBRANCH  18  20
ENDBRANCH  15  16
ENDBRANCH  14  15
ENDBRANCH  11  14
BRANCH   9  28
HETATM   28  O3  UNL     1      26.958   3.100  51.360  1.00  0.00    -0.360 OA
HETATM   29  H4  UNL     1      26.771   4.090  51.263  1.00  0.00     0.217 HD
ENDBRANCH   9  28
TORSDOF 11
ENDMDL
MODEL 6
REMARK VINA RESULT:      -6.9      2.463      3.602
REMARK  11 active torsions:
REMARK  status: ('A' for Active; 'I' for Inactive)
REMARK    1  A    between atoms: C7_9  and  O3_10 
REMARK    2  A    between atoms: C9_12  and  O4_13 
REMARK    3  A    between atoms: O4_13  and  C10_14 
REMARK    4  A    between atoms: C10_14  and  C11_15 
REMARK       I    between atoms: C11_15  and  N1_17 
REMARK    5  A    between atoms: N1_17  and  C12_18 
REMARK    6  A    between atoms: C12_18  and  C13_19 
REMARK    7  A    between atoms: C13_19  and  C14_20 
REMARK    8  A    between atoms: C14_20  and  C15_21 
REMARK    9  A    between atoms: C15_21  and  C16_22 
REMARK   10  A    between atoms: C16_22  and  C17_23 
REMARK   11  A    between atoms: C17_23  and  C18_24 
ROOT
HETATM    1  C1  UNL     1      23.410   1.350  51.142  1.00  0.00     0.047 A 
HETATM    2  C2  UNL     1      23.469   0.667  52.274  1.00  0.00    -0.015 A 
HETATM    3  O1  UNL     1      24.807   1.006  51.933  1.00  0.00     0.000 OA
HETATM    4  C3  UNL     1      25.676   1.291  53.057  1.00  0.00    -0.048 C 
HETATM    5  C4  UNL     1      26.689   1.118  52.222  1.00  0.00     0.063 C 
HETATM    6  C5  UNL     1      26.687  -0.188  52.839  1.00  0.00     0.181 C 
HETATM    7  O2  UNL     1      27.531  -1.090  52.498  1.00  0.00    -0.288 OA
HETATM    8  C6  UNL     1      25.741  -0.581  53.875  1.00  0.00     0.025 C 
HETATM    9  C7  UNL     1      24.691  -0.885  54.673  1.00  0.00     0.078 C 
HETATM   10  C8  UNL     1      23.296  -0.641  54.323  1.00  0.00     0.074 C 
HETATM   11  C9  UNL     1      22.739  -0.015  53.323  1.00  0.00     0.079 C 
HETATM   12  C20 UNL     1      26.709   0.106  54.854  1.00  0.00     0.050 C 
HETATM   13  C21 UNL     1      26.417   1.626  54.406  1.00  0.00     0.044 C 
ENDROOT
BRANCH  11  14
HETATM   14  O4  UNL     1      21.395   0.112  53.084  1.00  0.00    -0.341 OA
BRANCH  14  15
HETATM   15  C10 UNL     1      20.578   1.088  53.644  1.00  0.00     0.278 C 
BRANCH  15  16
HETATM   16  C11 UNL     1      20.291   2.172  52.638  1.00  0.00     0.241 C 
HETATM   17  O5  UNL     1      19.512   1.339  52.161  1.00  0.00    -0.271 OA
HETATM   18  N1  UNL     1      20.781   3.475  52.475  1.00  0.00    -0.359 N 
HETATM   19  H8  UNL     1      21.484   3.668  53.237  1.00  0.00     0.162 HD
BRANCH  18  20
HETATM   20  C12 UNL     1      20.156   4.087  51.325  1.00  0.00     0.122 C 
BRANCH  20  21
HETATM   21  C13 UNL     1      21.078   4.632  50.311  1.00  0.00     0.020 C 
BRANCH  21  22
HETATM   22  C14 UNL     1      21.711   3.820  49.284  1.00  0.00     0.002 C 
BRANCH  22  23
HETATM   23  C15 UNL     1      23.016   4.251  48.745  1.00  0.00     0.000 C 
BRANCH  23  24
HETATM   24  C16 UNL     1      23.770   5.247  49.533  1.00  0.00     0.000 C 
BRANCH  24  25
HETATM   25  C17 UNL     1      24.867   4.544  50.344  1.00  0.00    -0.000 C 
BRANCH  25  26
HETATM   26  C18 UNL     1      25.753   3.686  49.495  1.00  0.00    -0.005 C 
HETATM   27  C19 UNL     1      27.055   4.358  49.125  1.00  0.00     0.005 C 
ENDBRANCH  25  26
ENDBRANCH  24  25
ENDBRANCH  23  24
ENDBRANCH  22  23
ENDBRANCH  21  22
ENDBRANCH  20  21
ENDBRANCH  18  20
ENDBRANCH  15  16
ENDBRANCH  14  15
ENDBRANCH  11  14
BRANCH   9  28
HETATM   28  O3  UNL     1      24.858  -1.426  55.973  1.00  0.00    -0.360 OA
HETATM   29  H4  UNL     1      25.615  -1.002  56.494  1.00  0.00     0.217 HD
ENDBRANCH   9  28
TORSDOF 11
ENDMDL
MODEL 7
REMARK VINA RESULT:      -6.9      1.879      3.201
REMARK  11 active torsions:
REMARK  status: ('A' for Active; 'I' for Inactive)
REMARK    1  A    between atoms: C7_9  and  O3_10 
REMARK    2  A    between atoms: C9_12  and  O4_13 
REMARK    3  A    between atoms: O4_13  and  C10_14 
REMARK    4  A    between atoms: C10_14  and  C11_15 
REMARK       I    between atoms: C11_15  and  N1_17 
REMARK    5  A    between atoms: N1_17  and  C12_18 
REMARK    6  A    between atoms: C12_18  and  C13_19 
REMARK    7  A    between atoms: C13_19  and  C14_20 
REMARK    8  A    between atoms: C14_20  and  C15_21 
REMARK    9  A    between atoms: C15_21  and  C16_22 
REMARK   10  A    between atoms: C16_22  and  C17_23 
REMARK   11  A    between atoms: C17_23  and  C18_24 
ROOT
HETATM    1  C1  UNL     1      22.513   0.206  52.695  1.00  0.00     0.047 A 
HETATM    2  C2  UNL     1      23.463   1.005  52.236  1.00  0.00    -0.015 A 
HETATM    3  O1  UNL     1      24.085   0.118  53.157  1.00  0.00     0.000 OA
HETATM    4  C3  UNL     1      25.439  -0.273  52.816  1.00  0.00    -0.048 C 
HETATM    5  C4  UNL     1      25.565  -0.661  54.076  1.00  0.00     0.063 C 
HETATM    6  C5  UNL     1      26.201   0.633  54.178  1.00  0.00     0.181 C 
HETATM    7  O2  UNL     1      26.673   1.059  55.290  1.00  0.00    -0.288 OA
HETATM    8  C6  UNL     1      26.349   1.541  53.049  1.00  0.00     0.025 C 
HETATM    9  C7  UNL     1      26.244   2.367  51.983  1.00  0.00     0.078 C 
HETATM   10  C8  UNL     1      25.002   2.624  51.263  1.00  0.00     0.074 C 
HETATM   11  C9  UNL     1      23.813   2.094  51.347  1.00  0.00     0.079 C 
HETATM   12  C20 UNL     1      27.607   0.722  52.708  1.00  0.00     0.050 C 
HETATM   13  C21 UNL     1      26.857  -0.620  52.223  1.00  0.00     0.044 C 
ENDROOT
BRANCH  11  14
HETATM   14  O4  UNL     1      22.702   2.457  50.630  1.00  0.00    -0.341 OA
BRANCH  14  15
HETATM   15  C10 UNL     1      22.679   2.668  49.256  1.00  0.00     0.278 C 
BRANCH  15  16
HETATM   16  C11 UNL     1      22.297   4.093  48.950  1.00  0.00     0.241 C 
HETATM   17  O5  UNL     1      22.580   3.779  47.788  1.00  0.00    -0.271 OA
HETATM   18  N1  UNL     1      21.846   5.151  49.750  1.00  0.00    -0.359 N 
HETATM   19  H8  UNL     1      21.787   4.817  50.748  1.00  0.00     0.162 HD
BRANCH  18  20
HETATM   20  C12 UNL     1      21.626   6.319  48.928  1.00  0.00     0.122 C 
BRANCH  20  21
HETATM   21  C13 UNL     1      22.538   7.453  49.173  1.00  0.00     0.020 C 
BRANCH  21  22
HETATM   22  C14 UNL     1      23.055   7.796  50.488  1.00  0.00     0.002 C 
BRANCH  22  23
HETATM   23  C15 UNL     1      24.160   6.991  51.046  1.00  0.00     0.000 C 
BRANCH  23  24
HETATM   24  C16 UNL     1      25.483   7.134  50.404  1.00  0.00     0.000 C 
BRANCH  24  25
HETATM   25  C17 UNL     1      25.884   5.810  49.741  1.00  0.00    -0.000 C 
BRANCH  25  26
HETATM   26  C18 UNL     1      26.788   6.005  48.563  1.00  0.00    -0.005 C 
HETATM   27  C19 UNL     1      27.963   5.055  48.551  1.00  0.00     0.005 C 
ENDBRANCH  25  26
ENDBRANCH  24  25
ENDBRANCH  23  24
ENDBRANCH  22  23
ENDBRANCH  21  22
ENDBRANCH  20  21
ENDBRANCH  18  20
ENDBRANCH  15  16
ENDBRANCH  14  15
ENDBRANCH  11  14
BRANCH   9  28
HETATM   28  O3  UNL     1      27.367   3.026  51.420  1.00  0.00    -0.360 OA
HETATM   29  H4  UNL     1      27.669   2.632  50.538  1.00  0.00     0.217 HD
ENDBRANCH   9  28
TORSDOF 11
ENDMDL
MODEL 8
REMARK VINA RESULT:      -6.7      2.825      4.501
REMARK  11 active torsions:
REMARK  status: ('A' for Active; 'I' for Inactive)
REMARK    1  A    between atoms: C7_9  and  O3_10 
REMARK    2  A    between atoms: C9_12  and  O4_13 
REMARK    3  A    between atoms: O4_13  and  C10_14 
REMARK    4  A    between atoms: C10_14  and  C11_15 
REMARK       I    between atoms: C11_15  and  N1_17 
REMARK    5  A    between atoms: N1_17  and  C12_18 
REMARK    6  A    between atoms: C12_18  and  C13_19 
REMARK    7  A    between atoms: C13_19  and  C14_20 
REMARK    8  A    between atoms: C14_20  and  C15_21 
REMARK    9  A    between atoms: C15_21  and  C16_22 
REMARK   10  A    between atoms: C16_22  and  C17_23 
REMARK   11  A    between atoms: C17_23  and  C18_24 
ROOT
HETATM    1  C1  UNL     1      22.630  -1.139  54.016  1.00  0.00     0.047 A 
HETATM    2  C2  UNL     1      22.994   0.018  53.486  1.00  0.00    -0.015 A 
HETATM    3  O1  UNL     1      24.188  -0.635  53.897  1.00  0.00     0.000 OA
HETATM    4  C3  UNL     1      25.337  -0.411  53.043  1.00  0.00    -0.048 C 
HETATM    5  C4  UNL     1      26.078  -0.847  54.052  1.00  0.00     0.063 C 
HETATM    6  C5  UNL     1      26.234   0.575  54.261  1.00  0.00     0.181 C 
HETATM    7  O2  UNL     1      26.941   1.034  55.225  1.00  0.00    -0.288 OA
HETATM    8  C6  UNL     1      25.608   1.580  53.413  1.00  0.00     0.025 C 
HETATM    9  C7  UNL     1      24.818   2.402  52.684  1.00  0.00     0.078 C 
HETATM   10  C8  UNL     1      23.383   2.213  52.501  1.00  0.00     0.074 C 
HETATM   11  C9  UNL     1      22.577   1.244  52.836  1.00  0.00     0.079 C 
HETATM   12  C20 UNL     1      26.818   1.376  52.482  1.00  0.00     0.050 C 
HETATM   13  C21 UNL     1      26.427  -0.094  51.951  1.00  0.00     0.044 C 
ENDROOT
BRANCH  11  14
HETATM   14  O4  UNL     1      21.221   1.204  52.639  1.00  0.00    -0.341 OA
BRANCH  14  15
HETATM   15  C10 UNL     1      20.384   2.314  52.653  1.00  0.00     0.278 C 
BRANCH  15  16
HETATM   16  C11 UNL     1      20.269   2.902  51.270  1.00  0.00     0.241 C 
HETATM   17  O5  UNL     1      20.099   3.964  51.880  1.00  0.00    -0.271 OA
HETATM   18  N1  UNL     1      20.347   2.343  49.988  1.00  0.00    -0.359 N 
HETATM   19  H8  UNL     1      20.519   1.307  50.082  1.00  0.00     0.162 HD
BRANCH  18  20
HETATM   20  C12 UNL     1      20.160   3.377  48.997  1.00  0.00     0.122 C 
BRANCH  20  21
HETATM   21  C13 UNL     1      21.250   3.524  48.013  1.00  0.00     0.020 C 
BRANCH  21  22
HETATM   22  C14 UNL     1      22.577   2.960  48.198  1.00  0.00     0.002 C 
BRANCH  22  23
HETATM   23  C15 UNL     1      23.589   3.754  48.922  1.00  0.00     0.000 C 
BRANCH  23  24
HETATM   24  C16 UNL     1      23.628   5.204  48.643  1.00  0.00     0.000 C 
BRANCH  24  25
HETATM   25  C17 UNL     1      23.975   5.971  49.925  1.00  0.00    -0.000 C 
BRANCH  25  26
HETATM   26  C18 UNL     1      22.873   5.926  50.940  1.00  0.00    -0.005 C 
HETATM   27  C19 UNL     1      21.705   6.819  50.589  1.00  0.00     0.005 C 
ENDBRANCH  25  26
ENDBRANCH  24  25
ENDBRANCH  23  24
ENDBRANCH  22  23
ENDBRANCH  21  22
ENDBRANCH  20  21
ENDBRANCH  18  20
ENDBRANCH  15  16
ENDBRANCH  14  15
ENDBRANCH  11  14
BRANCH   9  28
HETATM   28  O3  UNL     1      25.335   3.512  51.968  1.00  0.00    -0.360 OA
HETATM   29  H4  UNL     1      26.090   3.273  51.338  1.00  0.00     0.217 HD
ENDBRANCH   9  28
TORSDOF 11
ENDMDL
MODEL 9
REMARK VINA RESULT:      -6.7      1.801      2.447
REMARK  11 active torsions:
REMARK  status: ('A' for Active; 'I' for Inactive)
REMARK    1  A    between atoms: C7_9  and  O3_10 
REMARK    2  A    between atoms: C9_12  and  O4_13 
REMARK    3  A    between atoms: O4_13  and  C10_14 
REMARK    4  A    between atoms: C10_14  and  C11_15 
REMARK       I    between atoms: C11_15  and  N1_17 
REMARK    5  A    between atoms: N1_17  and  C12_18 
REMARK    6  A    between atoms: C12_18  and  C13_19 
REMARK    7  A    between atoms: C13_19  and  C14_20 
REMARK    8  A    between atoms: C14_20  and  C15_21 
REMARK    9  A    between atoms: C15_21  and  C16_22 
REMARK   10  A    between atoms: C16_22  and  C17_23 
REMARK   11  A    between atoms: C17_23  and  C18_24 
ROOT
HETATM    1  C1  UNL     1      26.431   2.859  51.224  1.00  0.00     0.047 A 
HETATM    2  C2  UNL     1      25.438   2.258  51.860  1.00  0.00    -0.015 A 
HETATM    3  O1  UNL     1      26.599   1.467  52.077  1.00  0.00     0.000 OA
HETATM    4  C3  UNL     1      26.679   0.834  53.378  1.00  0.00    -0.048 C 
HETATM    5  C4  UNL     1      27.597   0.038  52.853  1.00  0.00     0.063 C 
HETATM    6  C5  UNL     1      26.454  -0.840  52.741  1.00  0.00     0.181 C 
HETATM    7  O2  UNL     1      26.560  -2.012  52.236  1.00  0.00    -0.288 OA
HETATM    8  C6  UNL     1      25.116  -0.468  53.180  1.00  0.00     0.025 C 
HETATM    9  C7  UNL     1      23.900   0.066  53.436  1.00  0.00     0.078 C 
HETATM   10  C8  UNL     1      23.436   1.343  52.905  1.00  0.00     0.074 C 
HETATM   11  C9  UNL     1      24.037   2.281  52.226  1.00  0.00     0.079 C 
HETATM   12  C20 UNL     1      25.580  -0.914  54.579  1.00  0.00     0.050 C 
HETATM   13  C21 UNL     1      26.596   0.305  54.860  1.00  0.00     0.044 C 
ENDROOT
BRANCH  11  14
HETATM   14  O4  UNL     1      23.470   3.433  51.745  1.00  0.00    -0.341 OA
BRANCH  14  15
HETATM   15  C10 UNL     1      23.153   4.544  52.518  1.00  0.00     0.278 C 
BRANCH  15  16
HETATM   16  C11 UNL     1      22.337   5.525  51.718  1.00  0.00     0.241 C 
HETATM   17  O5  UNL     1      21.550   4.578  51.609  1.00  0.00    -0.271 OA
HETATM   18  N1  UNL     1      22.537   6.866  51.362  1.00  0.00    -0.359 N 
HETATM   19  H8  UNL     1      23.458   7.186  51.764  1.00  0.00     0.162 HD
BRANCH  18  20
HETATM   20  C12 UNL     1      21.420   7.330  50.572  1.00  0.00     0.122 C 
BRANCH  20  21
HETATM   21  C13 UNL     1      21.768   8.063  49.341  1.00  0.00     0.020 C 
BRANCH  21  22
HETATM   22  C14 UNL     1      23.135   8.260  48.885  1.00  0.00     0.002 C 
BRANCH  22  23
HETATM   23  C15 UNL     1      23.745   7.239  48.012  1.00  0.00     0.000 C 
BRANCH  23  24
HETATM   24  C16 UNL     1      24.914   6.510  48.548  1.00  0.00     0.000 C 
BRANCH  24  25
HETATM   25  C17 UNL     1      24.523   5.060  48.861  1.00  0.00    -0.000 C 
BRANCH  25  26
HETATM   26  C18 UNL     1      23.187   4.688  48.297  1.00  0.00    -0.005 C 
HETATM   27  C19 UNL     1      22.889   3.210  48.399  1.00  0.00     0.005 C 
ENDBRANCH  25  26
ENDBRANCH  24  25
ENDBRANCH  23  24
ENDBRANCH  22  23
ENDBRANCH  21  22
ENDBRANCH  20  21
ENDBRANCH  18  20
ENDBRANCH  15  16
ENDBRANCH  14  15
ENDBRANCH  11  14
BRANCH   9  28
HETATM   28  O3  UNL     1      22.968  -0.551  54.309  1.00  0.00    -0.360 OA
HETATM   29  H4  UNL     1      22.896  -0.099  55.211  1.00  0.00     0.217 HD
ENDBRANCH   9  28
TORSDOF 11
ENDMDL
