MODEL 1
REMARK VINA RESULT:      -8.0      0.000      0.000
REMARK  7 active torsions:
REMARK  status: ('A' for Active; 'I' for Inactive)
REMARK    1  A    between atoms: C2_2  and  C3_3 
REMARK       I    between atoms: C3_3  and  N1_5 
REMARK    2  A    between atoms: N1_5  and  C4_6 
REMARK    3  A    between atoms: C5_7  and  C6_8 
REMARK    4  A    between atoms: C9_11  and  N2_12 
REMARK    5  A    between atoms: N2_12  and  C10_13 
REMARK    6  A    between atoms: C10_13  and  C11_14 
REMARK    7  A    between atoms: C10_13  and  C13_16 
ROOT
HETATM    1  C4  UNL     1      24.433   3.687  49.711  1.00  0.00     0.030 A 
HETATM    2  C5  UNL     1      24.539   2.894  50.753  1.00  0.00    -0.013 A 
HETATM    3  C8  UNL     1      23.366   2.027  50.867  1.00  0.00     0.066 A 
HETATM    4  C9  UNL     1      22.877   1.079  51.649  1.00  0.00     0.143 A 
HETATM    5  N3  UNL     1      21.628   0.453  51.432  1.00  0.00    -0.223 NA
HETATM    6  C19 UNL     1      20.778   0.648  50.518  1.00  0.00     0.243 A 
HETATM    7  N4  UNL     1      20.925   1.594  49.466  1.00  0.00    -0.215 NA
HETATM    8  S1  UNL     1      22.274   2.433  49.499  1.00  0.00    -0.056 SA
HETATM    9  C20 UNL     1      23.307   3.714  48.743  1.00  0.00     0.150 A 
ENDROOT
BRANCH   4  10
HETATM   10  N2  UNL     1      23.456   0.539  52.808  1.00  0.00    -0.365 N 
HETATM   11  H10 UNL     1      23.443   1.372  53.467  1.00  0.00     0.162 HD
BRANCH  10  12
HETATM   12  C10 UNL     1      23.997  -0.635  53.417  1.00  0.00     0.116 C 
BRANCH  12  13
HETATM   13  C11 UNL     1      23.407  -0.924  54.804  1.00  0.00     0.025 C 
HETATM   14  C12 UNL     1      21.933  -1.260  54.708  1.00  0.00     0.007 C 
ENDBRANCH  12  13
BRANCH  12  15
HETATM   15  C13 UNL     1      25.462  -0.583  53.595  1.00  0.00    -0.036 A 
HETATM   16  C14 UNL     1      26.378  -1.274  52.839  1.00  0.00     0.009 A 
HETATM   17  C15 UNL     1      27.746  -1.238  52.971  1.00  0.00     0.001 A 
HETATM   18  C16 UNL     1      28.284  -0.437  53.954  1.00  0.00     0.000 A 
HETATM   19  C17 UNL     1      27.443   0.287  54.755  1.00  0.00     0.001 A 
HETATM   20  C18 UNL     1      26.086   0.201  54.565  1.00  0.00     0.009 A 
ENDBRANCH  12  15
ENDBRANCH  10  12
ENDBRANCH   4  10
BRANCH   2  21
HETATM   21  C6  UNL     1      25.542   2.694  51.824  1.00  0.00     0.037 C 
HETATM   22  C7  UNL     1      26.762   1.967  51.338  1.00  0.00     0.010 C 
ENDBRANCH   2  21
BRANCH   1  23
HETATM   23  N1  UNL     1      25.348   4.658  49.291  1.00  0.00    -0.326 N 
HETATM   24  C3  UNL     1      26.616   5.057  48.916  1.00  0.00     0.241 C 
HETATM   25  O1  UNL     1      27.460   4.144  48.914  1.00  0.00    -0.269 OA
HETATM   26  H4  UNL     1      24.934   5.638  49.172  1.00  0.00     0.169 HD
BRANCH  24  27
HETATM   27  C2  UNL     1      27.132   6.352  48.525  1.00  0.00     0.048 C 
HETATM   28  C1  UNL     1      28.309   6.693  48.015  1.00  0.00     0.037 C 
ENDBRANCH  24  27
ENDBRANCH   1  23
TORSDOF 7
ENDMDL
MODEL 2
REMARK VINA RESULT:      -7.5      3.276      5.604
REMARK  7 active torsions:
REMARK  status: ('A' for Active; 'I' for Inactive)
REMARK    1  A    between atoms: C2_2  and  C3_3 
REMARK       I    between atoms: C3_3  and  N1_5 
REMARK    2  A    between atoms: N1_5  and  C4_6 
REMARK    3  A    between atoms: C5_7  and  C6_8 
REMARK    4  A    between atoms: C9_11  and  N2_12 
REMARK    5  A    between atoms: N2_12  and  C10_13 
REMARK    6  A    between atoms: C10_13  and  C11_14 
REMARK    7  A    between atoms: C10_13  and  C13_16 
ROOT
HETATM    1  C4  UNL     1      20.639   0.833  52.406  1.00  0.00     0.030 A 
HETATM    2  C5  UNL     1      21.932   1.018  52.272  1.00  0.00    -0.013 A 
HETATM    3  C8  UNL     1      22.674   0.224  53.252  1.00  0.00     0.066 A 
HETATM    4  C9  UNL     1      23.918  -0.013  53.634  1.00  0.00     0.143 A 
HETATM    5  N3  UNL     1      24.258  -0.881  54.696  1.00  0.00    -0.223 NA
HETATM    6  C19 UNL     1      23.508  -1.563  55.450  1.00  0.00     0.243 A 
HETATM    7  N4  UNL     1      22.088  -1.591  55.367  1.00  0.00    -0.215 NA
HETATM    8  S1  UNL     1      21.463  -0.677  54.228  1.00  0.00    -0.056 SA
HETATM    9  C20 UNL     1      19.980  -0.066  53.387  1.00  0.00     0.150 A 
ENDROOT
BRANCH   4  10
HETATM   10  N2  UNL     1      25.097   0.535  53.105  1.00  0.00    -0.365 N 
HETATM   11  H10 UNL     1      24.941   0.423  52.061  1.00  0.00     0.162 HD
BRANCH  10  12
HETATM   12  C10 UNL     1      26.339   1.173  53.410  1.00  0.00     0.116 C 
BRANCH  12  13
HETATM   13  C11 UNL     1      26.682   2.320  52.448  1.00  0.00     0.025 C 
HETATM   14  C12 UNL     1      26.470   1.903  51.008  1.00  0.00     0.007 C 
ENDBRANCH  12  13
BRANCH  12  15
HETATM   15  C13 UNL     1      27.494   0.255  53.384  1.00  0.00    -0.036 A 
HETATM   16  C14 UNL     1      27.441  -1.077  53.049  1.00  0.00     0.009 A 
HETATM   17  C15 UNL     1      28.498  -1.955  53.003  1.00  0.00     0.001 A 
HETATM   18  C16 UNL     1      29.752  -1.481  53.319  1.00  0.00     0.000 A 
HETATM   19  C17 UNL     1      29.897  -0.164  53.665  1.00  0.00     0.001 A 
HETATM   20  C18 UNL     1      28.795   0.654  53.689  1.00  0.00     0.009 A 
ENDBRANCH  12  15
ENDBRANCH  10  12
ENDBRANCH   4  10
BRANCH   2  21
HETATM   21  C6  UNL     1      22.791   1.838  51.388  1.00  0.00     0.037 C 
HETATM   22  C7  UNL     1      22.847   3.276  51.816  1.00  0.00     0.010 C 
ENDBRANCH   2  21
BRANCH   1  23
HETATM   23  N1  UNL     1      19.618   1.431  51.659  1.00  0.00    -0.326 N 
HETATM   24  C3  UNL     1      18.792   2.496  51.358  1.00  0.00     0.241 C 
HETATM   25  O1  UNL     1      18.979   3.504  52.061  1.00  0.00    -0.269 OA
HETATM   26  H4  UNL     1      19.196   0.805  50.900  1.00  0.00     0.169 HD
BRANCH  24  27
HETATM   27  C2  UNL     1      17.748   2.643  50.366  1.00  0.00     0.048 C 
HETATM   28  C1  UNL     1      17.353   3.708  49.679  1.00  0.00     0.037 C 
ENDBRANCH  24  27
ENDBRANCH   1  23
TORSDOF 7
ENDMDL
MODEL 3
REMARK VINA RESULT:      -7.5      2.435      6.054
REMARK  7 active torsions:
REMARK  status: ('A' for Active; 'I' for Inactive)
REMARK    1  A    between atoms: C2_2  and  C3_3 
REMARK       I    between atoms: C3_3  and  N1_5 
REMARK    2  A    between atoms: N1_5  and  C4_6 
REMARK    3  A    between atoms: C5_7  and  C6_8 
REMARK    4  A    between atoms: C9_11  and  N2_12 
REMARK    5  A    between atoms: N2_12  and  C10_13 
REMARK    6  A    between atoms: C10_13  and  C11_14 
REMARK    7  A    between atoms: C10_13  and  C13_16 
ROOT
HETATM    1  C4  UNL     1      25.463   0.256  53.605  1.00  0.00     0.030 A 
HETATM    2  C5  UNL     1      24.916   1.243  52.933  1.00  0.00    -0.013 A 
HETATM    3  C8  UNL     1      23.459   1.105  52.904  1.00  0.00     0.066 A 
HETATM    4  C9  UNL     1      22.392   1.713  52.414  1.00  0.00     0.143 A 
HETATM    5  N3  UNL     1      21.071   1.242  52.594  1.00  0.00    -0.223 NA
HETATM    6  C19 UNL     1      20.659   0.221  53.212  1.00  0.00     0.243 A 
HETATM    7  N4  UNL     1      21.497  -0.708  53.888  1.00  0.00    -0.215 NA
HETATM    8  S1  UNL     1      23.051  -0.384  53.824  1.00  0.00    -0.056 SA
HETATM    9  C20 UNL     1      24.740  -0.852  54.278  1.00  0.00     0.150 A 
ENDROOT
BRANCH   4  10
HETATM   10  N2  UNL     1      22.351   2.881  51.636  1.00  0.00    -0.365 N 
HETATM   11  H10 UNL     1      22.217   3.631  52.375  1.00  0.00     0.162 HD
BRANCH  10  12
HETATM   12  C10 UNL     1      22.443   3.421  50.316  1.00  0.00     0.116 C 
BRANCH  12  13
HETATM   13  C11 UNL     1      22.793   2.367  49.255  1.00  0.00     0.025 C 
HETATM   14  C12 UNL     1      21.556   1.622  48.801  1.00  0.00     0.007 C 
ENDBRANCH  12  13
BRANCH  12  15
HETATM   15  C13 UNL     1      23.455   4.488  50.185  1.00  0.00    -0.036 A 
HETATM   16  C14 UNL     1      23.588   5.562  51.033  1.00  0.00     0.009 A 
HETATM   17  C15 UNL     1      24.525   6.565  50.947  1.00  0.00     0.001 A 
HETATM   18  C16 UNL     1      25.436   6.516  49.915  1.00  0.00     0.000 A 
HETATM   19  C17 UNL     1      25.376   5.480  49.023  1.00  0.00     0.001 A 
HETATM   20  C18 UNL     1      24.412   4.514  49.172  1.00  0.00     0.009 A 
ENDBRANCH  12  15
ENDBRANCH  10  12
ENDBRANCH   4  10
BRANCH   2  21
HETATM   21  C6  UNL     1      25.423   2.426  52.200  1.00  0.00     0.037 C 
HETATM   22  C7  UNL     1      26.381   2.055  51.106  1.00  0.00     0.010 C 
ENDBRANCH   2  21
BRANCH   1  23
HETATM   23  N1  UNL     1      26.827   0.043  53.832  1.00  0.00    -0.326 N 
HETATM   24  C3  UNL     1      28.081   0.476  54.218  1.00  0.00     0.241 C 
HETATM   25  O1  UNL     1      28.125   1.668  54.570  1.00  0.00    -0.269 OA
HETATM   26  H4  UNL     1      27.164  -0.951  53.624  1.00  0.00     0.169 HD
BRANCH  24  27
HETATM   27  C2  UNL     1      29.351  -0.216  54.283  1.00  0.00     0.048 C 
HETATM   28  C1  UNL     1      29.812  -1.243  53.580  1.00  0.00     0.037 C 
ENDBRANCH  24  27
ENDBRANCH   1  23
TORSDOF 7
ENDMDL
MODEL 4
REMARK VINA RESULT:      -7.4      2.802      6.155
REMARK  7 active torsions:
REMARK  status: ('A' for Active; 'I' for Inactive)
REMARK    1  A    between atoms: C2_2  and  C3_3 
REMARK       I    between atoms: C3_3  and  N1_5 
REMARK    2  A    between atoms: N1_5  and  C4_6 
REMARK    3  A    between atoms: C5_7  and  C6_8 
REMARK    4  A    between atoms: C9_11  and  N2_12 
REMARK    5  A    between atoms: N2_12  and  C10_13 
REMARK    6  A    between atoms: C10_13  and  C11_14 
REMARK    7  A    between atoms: C10_13  and  C13_16 
ROOT
HETATM    1  C4  UNL     1      25.111  -0.422  54.027  1.00  0.00     0.030 A 
HETATM    2  C5  UNL     1      24.412   0.133  53.064  1.00  0.00    -0.013 A 
HETATM    3  C8  UNL     1      22.987  -0.168  53.217  1.00  0.00     0.066 A 
HETATM    4  C9  UNL     1      21.832   0.061  52.615  1.00  0.00     0.143 A 
HETATM    5  N3  UNL     1      20.595  -0.441  53.081  1.00  0.00    -0.223 NA
HETATM    6  C19 UNL     1      20.347  -1.158  54.091  1.00  0.00     0.243 A 
HETATM    7  N4  UNL     1      21.326  -1.625  55.011  1.00  0.00    -0.215 NA
HETATM    8  S1  UNL     1      22.817  -1.183  54.690  1.00  0.00    -0.056 SA
HETATM    9  C20 UNL     1      24.568  -1.230  55.150  1.00  0.00     0.150 A 
ENDROOT
BRANCH   4  10
HETATM   10  N2  UNL     1      21.607   0.793  51.439  1.00  0.00    -0.365 N 
HETATM   11  H10 UNL     1      22.122   0.210  50.717  1.00  0.00     0.162 HD
BRANCH  10  12
HETATM   12  C10 UNL     1      20.968   1.936  50.868  1.00  0.00     0.116 C 
BRANCH  12  13
HETATM   13  C11 UNL     1      20.064   1.591  49.675  1.00  0.00     0.025 C 
HETATM   14  C12 UNL     1      18.801   0.894  50.135  1.00  0.00     0.007 C 
ENDBRANCH  12  13
BRANCH  12  15
HETATM   15  C13 UNL     1      21.915   2.960  50.385  1.00  0.00    -0.036 A 
HETATM   16  C14 UNL     1      22.106   4.196  50.956  1.00  0.00     0.009 A 
HETATM   17  C15 UNL     1      22.987   5.166  50.539  1.00  0.00     0.001 A 
HETATM   18  C16 UNL     1      23.771   4.901  49.438  1.00  0.00     0.000 A 
HETATM   19  C17 UNL     1      23.645   3.694  48.806  1.00  0.00     0.001 A 
HETATM   20  C18 UNL     1      22.744   2.774  49.280  1.00  0.00     0.009 A 
ENDBRANCH  12  15
ENDBRANCH  10  12
ENDBRANCH   4  10
BRANCH   2  21
HETATM   21  C6  UNL     1      24.728   0.959  51.876  1.00  0.00     0.037 C 
HETATM   22  C7  UNL     1      25.062   2.377  52.237  1.00  0.00     0.010 C 
ENDBRANCH   2  21
BRANCH   1  23
HETATM   23  N1  UNL     1      26.497  -0.367  54.205  1.00  0.00    -0.326 N 
HETATM   24  C3  UNL     1      27.674   0.328  54.405  1.00  0.00     0.241 C 
HETATM   25  O1  UNL     1      27.533   1.560  54.488  1.00  0.00    -0.269 OA
HETATM   26  H4  UNL     1      26.986  -1.320  54.195  1.00  0.00     0.169 HD
BRANCH  24  27
HETATM   27  C2  UNL     1      29.042  -0.129  54.534  1.00  0.00     0.048 C 
HETATM   28  C1  UNL     1      30.024  -0.176  53.642  1.00  0.00     0.037 C 
ENDBRANCH  24  27
ENDBRANCH   1  23
TORSDOF 7
ENDMDL
MODEL 5
REMARK VINA RESULT:      -7.3      3.037      6.229
REMARK  7 active torsions:
REMARK  status: ('A' for Active; 'I' for Inactive)
REMARK    1  A    between atoms: C2_2  and  C3_3 
REMARK       I    between atoms: C3_3  and  N1_5 
REMARK    2  A    between atoms: N1_5  and  C4_6 
REMARK    3  A    between atoms: C5_7  and  C6_8 
REMARK    4  A    between atoms: C9_11  and  N2_12 
REMARK    5  A    between atoms: N2_12  and  C10_13 
REMARK    6  A    between atoms: C10_13  and  C11_14 
REMARK    7  A    between atoms: C10_13  and  C13_16 
ROOT
HETATM    1  C4  UNL     1      20.531   1.969  52.258  1.00  0.00     0.030 A 
HETATM    2  C5  UNL     1      21.835   1.845  52.346  1.00  0.00    -0.013 A 
HETATM    3  C8  UNL     1      22.499   3.114  52.044  1.00  0.00     0.066 A 
HETATM    4  C9  UNL     1      23.715   3.625  51.947  1.00  0.00     0.143 A 
HETATM    5  N3  UNL     1      23.972   4.969  51.594  1.00  0.00    -0.223 NA
HETATM    6  C19 UNL     1      23.161   5.898  51.318  1.00  0.00     0.243 A 
HETATM    7  N4  UNL     1      21.745   5.759  51.309  1.00  0.00    -0.215 NA
HETATM    8  S1  UNL     1      21.209   4.311  51.680  1.00  0.00    -0.056 SA
HETATM    9  C20 UNL     1      19.790   3.212  51.924  1.00  0.00     0.150 A 
ENDROOT
BRANCH   4  10
HETATM   10  N2  UNL     1      24.940   2.969  52.144  1.00  0.00    -0.365 N 
HETATM   11  H10 UNL     1      24.729   2.362  52.990  1.00  0.00     0.162 HD
BRANCH  10  12
HETATM   12  C10 UNL     1      26.272   2.792  51.659  1.00  0.00     0.116 C 
BRANCH  12  13
HETATM   13  C11 UNL     1      26.344   2.637  50.133  1.00  0.00     0.025 C 
HETATM   14  C12 UNL     1      26.742   3.940  49.473  1.00  0.00     0.007 C 
ENDBRANCH  12  13
BRANCH  12  15
HETATM   15  C13 UNL     1      26.953   1.610  52.225  1.00  0.00    -0.036 A 
HETATM   16  C14 UNL     1      28.086   1.645  53.002  1.00  0.00     0.009 A 
HETATM   17  C15 UNL     1      28.737   0.567  53.554  1.00  0.00     0.001 A 
HETATM   18  C16 UNL     1      28.224  -0.690  53.322  1.00  0.00     0.000 A 
HETATM   19  C17 UNL     1      27.097  -0.818  52.557  1.00  0.00     0.001 A 
HETATM   20  C18 UNL     1      26.500   0.305  52.038  1.00  0.00     0.009 A 
ENDBRANCH  12  15
ENDBRANCH  10  12
ENDBRANCH   4  10
BRANCH   2  21
HETATM   21  C6  UNL     1      22.768   0.737  52.658  1.00  0.00     0.037 C 
HETATM   22  C7  UNL     1      22.434   0.054  53.953  1.00  0.00     0.010 C 
ENDBRANCH   2  21
BRANCH   1  23
HETATM   23  N1  UNL     1      19.571   0.972  52.462  1.00  0.00    -0.326 N 
HETATM   24  C3  UNL     1      18.652   0.051  51.997  1.00  0.00     0.241 C 
HETATM   25  O1  UNL     1      18.555   0.005  50.759  1.00  0.00    -0.269 OA
HETATM   26  H4  UNL     1      19.388   0.732  53.489  1.00  0.00     0.169 HD
BRANCH  24  27
HETATM   27  C2  UNL     1      17.782  -0.868  52.702  1.00  0.00     0.048 C 
HETATM   28  C1  UNL     1      18.069  -1.931  53.442  1.00  0.00     0.037 C 
ENDBRANCH  24  27
ENDBRANCH   1  23
TORSDOF 7
ENDMDL
MODEL 6
REMARK VINA RESULT:      -7.1      2.120      5.014
REMARK  7 active torsions:
REMARK  status: ('A' for Active; 'I' for Inactive)
REMARK    1  A    between atoms: C2_2  and  C3_3 
REMARK       I    between atoms: C3_3  and  N1_5 
REMARK    2  A    between atoms: N1_5  and  C4_6 
REMARK    3  A    between atoms: C5_7  and  C6_8 
REMARK    4  A    between atoms: C9_11  and  N2_12 
REMARK    5  A    between atoms: N2_12  and  C10_13 
REMARK    6  A    between atoms: C10_13  and  C11_14 
REMARK    7  A    between atoms: C10_13  and  C13_16 
ROOT
HETATM    1  C4  UNL     1      26.146   2.621  51.226  1.00  0.00     0.030 A 
HETATM    2  C5  UNL     1      24.935   2.132  51.363  1.00  0.00    -0.013 A 
HETATM    3  C8  UNL     1      24.884   1.172  52.467  1.00  0.00     0.066 A 
HETATM    4  C9  UNL     1      24.028   0.369  53.075  1.00  0.00     0.143 A 
HETATM    5  N3  UNL     1      24.376  -0.469  54.159  1.00  0.00    -0.223 NA
HETATM    6  C19 UNL     1      25.490  -0.619  54.735  1.00  0.00     0.243 A 
HETATM    7  N4  UNL     1      26.683   0.071  54.380  1.00  0.00    -0.215 NA
HETATM    8  S1  UNL     1      26.538   1.086  53.167  1.00  0.00    -0.056 SA
HETATM    9  C20 UNL     1      27.324   2.291  52.068  1.00  0.00     0.150 A 
ENDROOT
BRANCH   4  10
HETATM   10  N2  UNL     1      22.671   0.175  52.774  1.00  0.00    -0.365 N 
HETATM   11  H10 UNL     1      22.724  -0.444  51.913  1.00  0.00     0.162 HD
BRANCH  10  12
HETATM   12  C10 UNL     1      21.326   0.450  53.171  1.00  0.00     0.116 C 
BRANCH  12  13
HETATM   13  C11 UNL     1      20.535  -0.812  53.544  1.00  0.00     0.025 C 
HETATM   14  C12 UNL     1      21.267  -1.620  54.595  1.00  0.00     0.007 C 
ENDBRANCH  12  13
BRANCH  12  15
HETATM   15  C13 UNL     1      20.535   1.139  52.132  1.00  0.00    -0.036 A 
HETATM   16  C14 UNL     1      20.301   0.660  50.865  1.00  0.00     0.009 A 
HETATM   17  C15 UNL     1      19.560   1.269  49.880  1.00  0.00     0.001 A 
HETATM   18  C16 UNL     1      18.980   2.486  50.162  1.00  0.00     0.000 A 
HETATM   19  C17 UNL     1      19.162   3.038  51.401  1.00  0.00     0.001 A 
HETATM   20  C18 UNL     1      19.915   2.372  52.335  1.00  0.00     0.009 A 
ENDBRANCH  12  15
ENDBRANCH  10  12
ENDBRANCH   4  10
BRANCH   2  21
HETATM   21  C6  UNL     1      23.642   2.312  50.663  1.00  0.00     0.037 C 
HETATM   22  C7  UNL     1      23.000   3.632  50.976  1.00  0.00     0.010 C 
ENDBRANCH   2  21
BRANCH   1  23
HETATM   23  N1  UNL     1      26.579   3.549  50.273  1.00  0.00    -0.326 N 
HETATM   24  C3  UNL     1      26.504   4.778  49.647  1.00  0.00     0.241 C 
HETATM   25  O1  UNL     1      25.620   5.528  50.095  1.00  0.00    -0.269 OA
HETATM   26  H4  UNL     1      27.395   3.217  49.665  1.00  0.00     0.169 HD
BRANCH  24  27
HETATM   27  C2  UNL     1      27.276   5.343  48.560  1.00  0.00     0.048 C 
HETATM   28  C1  UNL     1      28.589   5.430  48.388  1.00  0.00     0.037 C 
ENDBRANCH  24  27
ENDBRANCH   1  23
TORSDOF 7
ENDMDL
MODEL 7
REMARK VINA RESULT:      -7.1      3.337      6.905
REMARK  7 active torsions:
REMARK  status: ('A' for Active; 'I' for Inactive)
REMARK    1  A    between atoms: C2_2  and  C3_3 
REMARK       I    between atoms: C3_3  and  N1_5 
REMARK    2  A    between atoms: N1_5  and  C4_6 
REMARK    3  A    between atoms: C5_7  and  C6_8 
REMARK    4  A    between atoms: C9_11  and  N2_12 
REMARK    5  A    between atoms: N2_12  and  C10_13 
REMARK    6  A    between atoms: C10_13  and  C11_14 
REMARK    7  A    between atoms: C10_13  and  C13_16 
ROOT
HETATM    1  C4  UNL     1      25.122  -0.349  54.063  1.00  0.00     0.030 A 
HETATM    2  C5  UNL     1      24.389   0.286  53.178  1.00  0.00    -0.013 A 
HETATM    3  C8  UNL     1      22.976  -0.062  53.328  1.00  0.00     0.066 A 
HETATM    4  C9  UNL     1      21.802   0.200  52.778  1.00  0.00     0.143 A 
HETATM    5  N3  UNL     1      20.587  -0.377  53.214  1.00  0.00    -0.223 NA
HETATM    6  C19 UNL     1      20.378  -1.202  54.148  1.00  0.00     0.243 A 
HETATM    7  N4  UNL     1      21.388  -1.740  54.993  1.00  0.00    -0.215 NA
HETATM    8  S1  UNL     1      22.861  -1.230  54.689  1.00  0.00    -0.056 SA
HETATM    9  C20 UNL     1      24.623  -1.283  55.105  1.00  0.00     0.150 A 
ENDROOT
BRANCH   4  10
HETATM   10  N2  UNL     1      21.534   1.046  51.691  1.00  0.00    -0.365 N 
HETATM   11  H10 UNL     1      22.077   0.576  50.909  1.00  0.00     0.162 HD
BRANCH  10  12
HETATM   12  C10 UNL     1      20.832   2.210  51.250  1.00  0.00     0.116 C 
BRANCH  12  13
HETATM   13  C11 UNL     1      20.905   3.375  52.247  1.00  0.00     0.025 C 
HETATM   14  C12 UNL     1      21.641   4.555  51.650  1.00  0.00     0.007 C 
ENDBRANCH  12  13
BRANCH  12  15
HETATM   15  C13 UNL     1      19.396   1.972  50.999  1.00  0.00    -0.036 A 
HETATM   16  C14 UNL     1      18.884   0.969  50.211  1.00  0.00     0.009 A 
HETATM   17  C15 UNL     1      17.555   0.713  49.968  1.00  0.00     0.001 A 
HETATM   18  C16 UNL     1      16.617   1.529  50.561  1.00  0.00     0.000 A 
HETATM   19  C17 UNL     1      17.040   2.555  51.362  1.00  0.00     0.001 A 
HETATM   20  C18 UNL     1      18.384   2.750  51.559  1.00  0.00     0.009 A 
ENDBRANCH  12  15
ENDBRANCH  10  12
ENDBRANCH   4  10
BRANCH   2  21
HETATM   21  C6  UNL     1      24.660   1.240  52.078  1.00  0.00     0.037 C 
HETATM   22  C7  UNL     1      24.692   2.665  52.549  1.00  0.00     0.010 C 
ENDBRANCH   2  21
BRANCH   1  23
HETATM   23  N1  UNL     1      26.511  -0.280  54.217  1.00  0.00    -0.326 N 
HETATM   24  C3  UNL     1      27.683   0.427  54.402  1.00  0.00     0.241 C 
HETATM   25  O1  UNL     1      27.529   1.657  54.501  1.00  0.00    -0.269 OA
HETATM   26  H4  UNL     1      27.011  -1.226  54.188  1.00  0.00     0.169 HD
BRANCH  24  27
HETATM   27  C2  UNL     1      29.058  -0.015  54.503  1.00  0.00     0.048 C 
HETATM   28  C1  UNL     1      29.819  -0.673  53.637  1.00  0.00     0.037 C 
ENDBRANCH  24  27
ENDBRANCH   1  23
TORSDOF 7
ENDMDL
MODEL 8
REMARK VINA RESULT:      -7.0      2.816      6.298
REMARK  7 active torsions:
REMARK  status: ('A' for Active; 'I' for Inactive)
REMARK    1  A    between atoms: C2_2  and  C3_3 
REMARK       I    between atoms: C3_3  and  N1_5 
REMARK    2  A    between atoms: N1_5  and  C4_6 
REMARK    3  A    between atoms: C5_7  and  C6_8 
REMARK    4  A    between atoms: C9_11  and  N2_12 
REMARK    5  A    between atoms: N2_12  and  C10_13 
REMARK    6  A    between atoms: C10_13  and  C11_14 
REMARK    7  A    between atoms: C10_13  and  C13_16 
ROOT
HETATM    1  C4  UNL     1      20.228   0.869  51.208  1.00  0.00     0.030 A 
HETATM    2  C5  UNL     1      21.381   1.373  51.586  1.00  0.00    -0.013 A 
HETATM    3  C8  UNL     1      21.981   2.160  50.508  1.00  0.00     0.066 A 
HETATM    4  C9  UNL     1      23.068   2.869  50.254  1.00  0.00     0.143 A 
HETATM    5  N3  UNL     1      23.316   3.504  49.015  1.00  0.00    -0.223 NA
HETATM    6  C19 UNL     1      22.609   3.530  47.969  1.00  0.00     0.243 A 
HETATM    7  N4  UNL     1      21.348   2.885  47.828  1.00  0.00    -0.215 NA
HETATM    8  S1  UNL     1      20.852   2.092  49.112  1.00  0.00    -0.056 SA
HETATM    9  C20 UNL     1      19.578   1.065  49.887  1.00  0.00     0.150 A 
ENDROOT
BRANCH   4  10
HETATM   10  N2  UNL     1      24.156   3.108  51.108  1.00  0.00    -0.365 N 
HETATM   11  H10 UNL     1      23.673   3.476  51.979  1.00  0.00     0.162 HD
BRANCH  10  12
HETATM   12  C10 UNL     1      25.575   3.027  51.259  1.00  0.00     0.116 C 
BRANCH  12  13
HETATM   13  C11 UNL     1      26.314   2.823  49.929  1.00  0.00     0.025 C 
HETATM   14  C12 UNL     1      26.763   4.147  49.348  1.00  0.00     0.007 C 
ENDBRANCH  12  13
BRANCH  12  15
HETATM   15  C13 UNL     1      26.010   1.929  52.145  1.00  0.00    -0.036 A 
HETATM   16  C14 UNL     1      26.018   1.975  53.519  1.00  0.00     0.009 A 
HETATM   17  C15 UNL     1      26.405   0.968  54.371  1.00  0.00     0.001 A 
HETATM   18  C16 UNL     1      26.835  -0.220  53.822  1.00  0.00     0.000 A 
HETATM   19  C17 UNL     1      26.860  -0.352  52.460  1.00  0.00     0.001 A 
HETATM   20  C18 UNL     1      26.458   0.697  51.671  1.00  0.00     0.009 A 
ENDBRANCH  12  15
ENDBRANCH  10  12
ENDBRANCH   4  10
BRANCH   2  21
HETATM   21  C6  UNL     1      22.201   1.316  52.818  1.00  0.00     0.037 C 
HETATM   22  C7  UNL     1      23.007   0.053  52.911  1.00  0.00     0.010 C 
ENDBRANCH   2  21
BRANCH   1  23
HETATM   23  N1  UNL     1      19.375   0.054  51.960  1.00  0.00    -0.326 N 
HETATM   24  C3  UNL     1      19.124  -0.806  53.011  1.00  0.00     0.241 C 
HETATM   25  O1  UNL     1      20.111  -1.037  53.731  1.00  0.00    -0.269 OA
HETATM   26  H4  UNL     1      18.366   0.017  51.604  1.00  0.00     0.169 HD
BRANCH  24  27
HETATM   27  C2  UNL     1      17.912  -1.483  53.422  1.00  0.00     0.048 C 
HETATM   28  C1  UNL     1      17.681  -2.767  53.665  1.00  0.00     0.037 C 
ENDBRANCH  24  27
ENDBRANCH   1  23
TORSDOF 7
ENDMDL
MODEL 9
REMARK VINA RESULT:      -6.9      2.233      5.371
REMARK  7 active torsions:
REMARK  status: ('A' for Active; 'I' for Inactive)
REMARK    1  A    between atoms: C2_2  and  C3_3 
REMARK       I    between atoms: C3_3  and  N1_5 
REMARK    2  A    between atoms: N1_5  and  C4_6 
REMARK    3  A    between atoms: C5_7  and  C6_8 
REMARK    4  A    between atoms: C9_11  and  N2_12 
REMARK    5  A    between atoms: N2_12  and  C10_13 
REMARK    6  A    between atoms: C10_13  and  C11_14 
REMARK    7  A    between atoms: C10_13  and  C13_16 
ROOT
HETATM    1  C4  UNL     1      25.784   2.481  50.776  1.00  0.00     0.030 A 
HETATM    2  C5  UNL     1      24.474   2.457  50.862  1.00  0.00    -0.013 A 
HETATM    3  C8  UNL     1      24.035   1.433  51.811  1.00  0.00     0.066 A 
HETATM    4  C9  UNL     1      22.922   0.922  52.309  1.00  0.00     0.143 A 
HETATM    5  N3  UNL     1      22.897  -0.134  53.248  1.00  0.00    -0.223 NA
HETATM    6  C19 UNL     1      23.857  -0.766  53.774  1.00  0.00     0.243 A 
HETATM    7  N4  UNL     1      25.232  -0.519  53.503  1.00  0.00    -0.215 NA
HETATM    8  S1  UNL     1      25.514   0.643  52.458  1.00  0.00    -0.056 SA
HETATM    9  C20 UNL     1      26.728   1.622  51.537  1.00  0.00     0.150 A 
ENDROOT
BRANCH   4  10
HETATM   10  N2  UNL     1      21.600   1.287  52.008  1.00  0.00    -0.365 N 
HETATM   11  H10 UNL     1      21.356   1.918  52.827  1.00  0.00     0.162 HD
BRANCH  10  12
HETATM   12  C10 UNL     1      20.530   1.168  51.069  1.00  0.00     0.116 C 
BRANCH  12  13
HETATM   13  C11 UNL     1      19.951   2.523  50.637  1.00  0.00     0.025 C 
HETATM   14  C12 UNL     1      19.896   3.487  51.803  1.00  0.00     0.007 C 
ENDBRANCH  12  13
BRANCH  12  15
HETATM   15  C13 UNL     1      19.391   0.375  51.571  1.00  0.00    -0.036 A 
HETATM   16  C14 UNL     1      18.201   0.188  50.908  1.00  0.00     0.009 A 
HETATM   17  C15 UNL     1      17.127  -0.553  51.341  1.00  0.00     0.001 A 
HETATM   18  C16 UNL     1      17.223  -1.185  52.561  1.00  0.00     0.000 A 
HETATM   19  C17 UNL     1      18.374  -1.052  53.290  1.00  0.00     0.001 A 
HETATM   20  C18 UNL     1      19.406  -0.295  52.793  1.00  0.00     0.009 A 
ENDBRANCH  12  15
ENDBRANCH  10  12
ENDBRANCH   4  10
BRANCH   2  21
HETATM   21  C6  UNL     1      23.364   3.200  50.223  1.00  0.00     0.037 C 
HETATM   22  C7  UNL     1      23.226   2.879  48.763  1.00  0.00     0.010 C 
ENDBRANCH   2  21
BRANCH   1  23
HETATM   23  N1  UNL     1      26.563   3.314  49.965  1.00  0.00    -0.326 N 
HETATM   24  C3  UNL     1      26.824   4.526  49.357  1.00  0.00     0.241 C 
HETATM   25  O1  UNL     1      25.984   5.411  49.600  1.00  0.00    -0.269 OA
HETATM   26  H4  UNL     1      27.438   2.849  49.559  1.00  0.00     0.169 HD
BRANCH  24  27
HETATM   27  C2  UNL     1      27.903   4.946  48.488  1.00  0.00     0.048 C 
HETATM   28  C1  UNL     1      28.366   6.158  48.211  1.00  0.00     0.037 C 
ENDBRANCH  24  27
ENDBRANCH   1  23
TORSDOF 7
ENDMDL
