MODEL 1
REMARK VINA RESULT:      -8.5      0.000      0.000
REMARK  3 active torsions:
REMARK  status: ('A' for Active; 'I' for Inactive)
REMARK    1  A    between atoms: C1_2  and  C2_3 
REMARK    2  A    between atoms: C11_13  and  N1_14 
REMARK    3  A    between atoms: N1_14  and  C12_15 
ROOT
HETATM    1  C2  UNL     1      19.629  -0.469  52.907  1.00  0.00     0.016 C 
HETATM    2  C3  UNL     1      19.873   0.216  51.618  1.00  0.00     0.012 C 
HETATM    3  C4  UNL     1      20.674   1.224  51.230  1.00  0.00     0.012 C 
HETATM    4  C5  UNL     1      21.662   2.075  51.982  1.00  0.00     0.204 C 
HETATM    5  O2  UNL     1      22.490   2.708  51.115  1.00  0.00    -0.375 OA
HETATM    6  C6  UNL     1      21.949   3.546  50.176  1.00  0.00     0.174 C 
HETATM    7  C7  UNL     1      23.199   4.049  49.422  1.00  0.00     0.025 C 
HETATM    8  C8  UNL     1      24.540   4.081  49.223  1.00  0.00     0.022 C 
HETATM    9  C9  UNL     1      25.771   3.490  49.786  1.00  0.00    -0.023 C 
HETATM   10  C10 UNL     1      26.438   2.703  50.653  1.00  0.00    -0.002 C 
HETATM   11  C11 UNL     1      27.038   1.802  51.666  1.00  0.00     0.131 C 
HETATM   12  C14 UNL     1      26.113   0.698  52.113  1.00  0.00     0.026 C 
HETATM   13  C15 UNL     1      24.980   1.240  52.636  1.00  0.00     0.140 C 
HETATM   14  O4  UNL     1      23.763   1.692  53.200  1.00  0.00    -0.322 OA
HETATM   15  C16 UNL     1      22.545   1.142  52.788  1.00  0.00     0.115 C 
HETATM   16  C17 UNL     1      22.738  -0.023  53.330  1.00  0.00     0.115 C 
HETATM   17  N2  UNL     1      21.842  -0.769  53.784  1.00  0.00    -0.280 NA
HETATM   18  C18 UNL     1      20.439  -0.795  54.113  1.00  0.00     0.192 C 
ENDROOT
BRANCH  11  19
HETATM   19  N1  UNL     1      27.421   2.531  52.853  1.00  0.00    -0.358 N 
HETATM   20  H11 UNL     1      26.891   3.395  53.093  1.00  0.00     0.162 HD
BRANCH  19  21
HETATM   21  C12 UNL     1      28.455   2.196  53.747  1.00  0.00     0.166 A 
HETATM   22  C13 UNL     1      29.215   1.151  54.134  1.00  0.00     0.200 A 
HETATM   23  O3  UNL     1      29.411   2.358  54.737  1.00  0.00    -0.300 OA
ENDBRANCH  19  21
ENDBRANCH  11  19
BRANCH   1  24
HETATM   24  C1  UNL     1      18.416  -0.909  53.060  1.00  0.00     0.230 C 
HETATM   25  O1  UNL     1      17.338  -1.405  53.402  1.00  0.00    -0.283 OA
ENDBRANCH   1  24
TORSDOF 3
ENDMDL
MODEL 2
REMARK VINA RESULT:      -8.1      2.496      6.918
REMARK  3 active torsions:
REMARK  status: ('A' for Active; 'I' for Inactive)
REMARK    1  A    between atoms: C1_2  and  C2_3 
REMARK    2  A    between atoms: C11_13  and  N1_14 
REMARK    3  A    between atoms: N1_14  and  C12_15 
ROOT
HETATM    1  C2  UNL     1      28.441  -0.050  53.427  1.00  0.00     0.016 C 
HETATM    2  C3  UNL     1      27.267  -0.877  53.067  1.00  0.00     0.012 C 
HETATM    3  C4  UNL     1      25.937  -0.684  53.109  1.00  0.00     0.012 C 
HETATM    4  C5  UNL     1      25.101   0.485  53.555  1.00  0.00     0.204 C 
HETATM    5  O2  UNL     1      23.836   0.366  53.080  1.00  0.00    -0.375 OA
HETATM    6  C6  UNL     1      23.103  -0.740  53.421  1.00  0.00     0.174 C 
HETATM    7  C7  UNL     1      21.764  -0.485  52.698  1.00  0.00     0.025 C 
HETATM    8  C8  UNL     1      20.958   0.268  51.908  1.00  0.00     0.022 C 
HETATM    9  C9  UNL     1      20.991   1.547  51.168  1.00  0.00    -0.023 C 
HETATM   10  C10 UNL     1      21.591   2.681  50.757  1.00  0.00    -0.002 C 
HETATM   11  C11 UNL     1      22.371   3.884  50.382  1.00  0.00     0.131 C 
HETATM   12  C14 UNL     1      23.862   3.657  50.372  1.00  0.00     0.026 C 
HETATM   13  C15 UNL     1      24.266   3.249  51.605  1.00  0.00     0.140 C 
HETATM   14  O4  UNL     1      24.797   2.820  52.845  1.00  0.00    -0.322 OA
HETATM   15  C16 UNL     1      25.671   1.729  52.901  1.00  0.00     0.115 C 
HETATM   16  C17 UNL     1      26.664   2.327  52.314  1.00  0.00     0.115 C 
HETATM   17  N2  UNL     1      27.876   2.103  52.531  1.00  0.00    -0.280 NA
HETATM   18  C18 UNL     1      28.763   1.404  53.426  1.00  0.00     0.192 C 
ENDROOT
BRANCH  11  19
HETATM   19  N1  UNL     1      22.122   4.975  51.296  1.00  0.00    -0.358 N 
HETATM   20  H11 UNL     1      21.937   4.747  52.295  1.00  0.00     0.162 HD
BRANCH  19  21
HETATM   21  C12 UNL     1      22.103   6.346  50.982  1.00  0.00     0.166 A 
HETATM   22  C13 UNL     1      22.931   7.374  50.704  1.00  0.00     0.200 A 
HETATM   23  O3  UNL     1      21.588   7.606  50.720  1.00  0.00    -0.300 OA
ENDBRANCH  19  21
ENDBRANCH  11  19
BRANCH   1  24
HETATM   24  C1  UNL     1      29.464  -0.728  53.853  1.00  0.00     0.230 C 
HETATM   25  O1  UNL     1      30.529  -1.317  54.061  1.00  0.00    -0.283 OA
ENDBRANCH   1  24
TORSDOF 3
ENDMDL
MODEL 3
REMARK VINA RESULT:      -7.9      2.329      7.471
REMARK  3 active torsions:
REMARK  status: ('A' for Active; 'I' for Inactive)
REMARK    1  A    between atoms: C1_2  and  C2_3 
REMARK    2  A    between atoms: C11_13  and  N1_14 
REMARK    3  A    between atoms: N1_14  and  C12_15 
ROOT
HETATM    1  C2  UNL     1      27.497   0.064  53.128  1.00  0.00     0.016 C 
HETATM    2  C3  UNL     1      26.455  -0.935  53.456  1.00  0.00     0.012 C 
HETATM    3  C4  UNL     1      25.144  -0.861  53.745  1.00  0.00     0.012 C 
HETATM    4  C5  UNL     1      24.199   0.305  53.852  1.00  0.00     0.204 C 
HETATM    5  O2  UNL     1      22.914  -0.127  53.804  1.00  0.00    -0.375 OA
HETATM    6  C6  UNL     1      22.480  -1.018  54.750  1.00  0.00     0.174 C 
HETATM    7  C7  UNL     1      21.006  -1.236  54.348  1.00  0.00     0.025 C 
HETATM    8  C8  UNL     1      19.941  -0.997  53.544  1.00  0.00     0.022 C 
HETATM    9  C9  UNL     1      19.592  -0.194  52.353  1.00  0.00    -0.023 C 
HETATM   10  C10 UNL     1      19.879   0.678  51.367  1.00  0.00    -0.002 C 
HETATM   11  C11 UNL     1      20.333   1.645  50.339  1.00  0.00     0.131 C 
HETATM   12  C14 UNL     1      21.812   1.569  50.053  1.00  0.00     0.026 C 
HETATM   13  C15 UNL     1      22.507   1.801  51.199  1.00  0.00     0.140 C 
HETATM   14  O4  UNL     1      23.331   2.028  52.327  1.00  0.00    -0.322 OA
HETATM   15  C16 UNL     1      24.391   1.162  52.616  1.00  0.00     0.115 C 
HETATM   16  C17 UNL     1      25.126   1.515  51.604  1.00  0.00     0.115 C 
HETATM   17  N2  UNL     1      26.377   1.520  51.583  1.00  0.00    -0.280 NA
HETATM   18  C18 UNL     1      27.531   1.382  52.436  1.00  0.00     0.192 C 
ENDROOT
BRANCH  11  19
HETATM   19  N1  UNL     1      20.055   3.004  50.740  1.00  0.00    -0.358 N 
HETATM   20  H11 UNL     1      20.829   3.700  50.689  1.00  0.00     0.162 HD
BRANCH  19  21
HETATM   21  C12 UNL     1      18.825   3.510  51.200  1.00  0.00     0.166 A 
HETATM   22  C13 UNL     1      17.824   4.337  50.835  1.00  0.00     0.200 A 
HETATM   23  O3  UNL     1      17.743   3.710  52.043  1.00  0.00    -0.300 OA
ENDBRANCH  19  21
ENDBRANCH  11  19
BRANCH   1  24
HETATM   24  C1  UNL     1      28.691  -0.254  53.529  1.00  0.00     0.230 C 
HETATM   25  O1  UNL     1      29.751  -0.768  53.899  1.00  0.00    -0.283 OA
ENDBRANCH   1  24
TORSDOF 3
ENDMDL
MODEL 4
REMARK VINA RESULT:      -7.8      2.598      4.969
REMARK  3 active torsions:
REMARK  status: ('A' for Active; 'I' for Inactive)
REMARK    1  A    between atoms: C1_2  and  C2_3 
REMARK    2  A    between atoms: C11_13  and  N1_14 
REMARK    3  A    between atoms: N1_14  and  C12_15 
ROOT
HETATM    1  C2  UNL     1      21.204   4.625  50.745  1.00  0.00     0.016 C 
HETATM    2  C3  UNL     1      20.709   3.848  51.904  1.00  0.00     0.012 C 
HETATM    3  C4  UNL     1      20.985   2.630  52.402  1.00  0.00     0.012 C 
HETATM    4  C5  UNL     1      21.934   1.550  51.957  1.00  0.00     0.204 C 
HETATM    5  O2  UNL     1      22.135   0.661  52.962  1.00  0.00    -0.375 OA
HETATM    6  C6  UNL     1      21.058  -0.010  53.478  1.00  0.00     0.174 C 
HETATM    7  C7  UNL     1      21.708  -0.897  54.560  1.00  0.00     0.025 C 
HETATM    8  C8  UNL     1      22.789  -1.343  55.247  1.00  0.00     0.022 C 
HETATM    9  C9  UNL     1      24.250  -1.132  55.297  1.00  0.00    -0.023 C 
HETATM   10  C10 UNL     1      25.395  -0.551  54.886  1.00  0.00    -0.002 C 
HETATM   11  C11 UNL     1      26.570   0.164  54.336  1.00  0.00     0.131 C 
HETATM   12  C14 UNL     1      26.235   1.514  53.753  1.00  0.00     0.026 C 
HETATM   13  C15 UNL     1      25.319   1.363  52.758  1.00  0.00     0.140 C 
HETATM   14  O4  UNL     1      24.370   1.324  51.709  1.00  0.00    -0.322 OA
HETATM   15  C16 UNL     1      23.281   2.201  51.708  1.00  0.00     0.115 C 
HETATM   16  C17 UNL     1      23.977   3.273  51.473  1.00  0.00     0.115 C 
HETATM   17  N2  UNL     1      23.576   4.274  50.837  1.00  0.00    -0.280 NA
HETATM   18  C18 UNL     1      22.493   4.736  50.007  1.00  0.00     0.192 C 
ENDROOT
BRANCH  11  19
HETATM   19  N1  UNL     1      27.202  -0.599  53.285  1.00  0.00    -0.358 N 
HETATM   20  H11 UNL     1      26.743  -0.624  52.350  1.00  0.00     0.162 HD
BRANCH  19  21
HETATM   21  C12 UNL     1      28.402  -1.329  53.381  1.00  0.00     0.166 A 
HETATM   22  C13 UNL     1      29.731  -1.155  53.533  1.00  0.00     0.200 A 
HETATM   23  O3  UNL     1      29.249  -2.425  53.422  1.00  0.00    -0.300 OA
ENDBRANCH  19  21
ENDBRANCH  11  19
BRANCH   1  24
HETATM   24  C1  UNL     1      20.322   5.418  50.214  1.00  0.00     0.230 C 
HETATM   25  O1  UNL     1      19.516   6.050  49.524  1.00  0.00    -0.283 OA
ENDBRANCH   1  24
TORSDOF 3
ENDMDL
MODEL 5
REMARK VINA RESULT:      -7.4      1.825      7.142
REMARK  3 active torsions:
REMARK  status: ('A' for Active; 'I' for Inactive)
REMARK    1  A    between atoms: C1_2  and  C2_3 
REMARK    2  A    between atoms: C11_13  and  N1_14 
REMARK    3  A    between atoms: N1_14  and  C12_15 
ROOT
HETATM    1  C2  UNL     1      28.023   0.230  53.398  1.00  0.00     0.016 C 
HETATM    2  C3  UNL     1      27.514   1.612  53.253  1.00  0.00     0.012 C 
HETATM    3  C4  UNL     1      26.443   2.158  52.650  1.00  0.00     0.012 C 
HETATM    4  C5  UNL     1      25.312   1.553  51.861  1.00  0.00     0.204 C 
HETATM    5  O2  UNL     1      24.285   2.434  51.764  1.00  0.00    -0.375 OA
HETATM    6  C6  UNL     1      24.511   3.651  51.176  1.00  0.00     0.174 C 
HETATM    7  C7  UNL     1      23.124   4.322  51.262  1.00  0.00     0.025 C 
HETATM    8  C8  UNL     1      21.815   4.317  51.619  1.00  0.00     0.022 C 
HETATM    9  C9  UNL     1      20.834   3.423  52.268  1.00  0.00    -0.023 C 
HETATM   10  C10 UNL     1      20.469   2.270  52.863  1.00  0.00    -0.002 C 
HETATM   11  C11 UNL     1      20.209   0.957  53.498  1.00  0.00     0.131 C 
HETATM   12  C14 UNL     1      21.429   0.346  54.140  1.00  0.00     0.026 C 
HETATM   13  C15 UNL     1      22.402   0.186  53.203  1.00  0.00     0.140 C 
HETATM   14  O4  UNL     1      23.483  -0.027  52.314  1.00  0.00    -0.322 OA
HETATM   15  C16 UNL     1      24.775   0.382  52.661  1.00  0.00     0.115 C 
HETATM   16  C17 UNL     1      24.946  -0.506  53.594  1.00  0.00     0.115 C 
HETATM   17  N2  UNL     1      26.041  -1.021  53.914  1.00  0.00    -0.280 NA
HETATM   18  C18 UNL     1      27.415  -1.126  53.494  1.00  0.00     0.192 C 
ENDROOT
BRANCH  11  19
HETATM   19  N1  UNL     1      19.720  -0.003  52.535  1.00  0.00    -0.358 N 
HETATM   20  H11 UNL     1      20.321  -0.223  51.712  1.00  0.00     0.162 HD
BRANCH  19  21
HETATM   21  C12 UNL     1      18.496  -0.694  52.584  1.00  0.00     0.166 A 
HETATM   22  C13 UNL     1      17.840  -1.623  53.309  1.00  0.00     0.200 A 
HETATM   23  O3  UNL     1      17.217  -1.087  52.221  1.00  0.00    -0.300 OA
ENDBRANCH  19  21
ENDBRANCH  11  19
BRANCH   1  24
HETATM   24  C1  UNL     1      29.318   0.138  53.460  1.00  0.00     0.230 C 
HETATM   25  O1  UNL     1      30.512  -0.170  53.503  1.00  0.00    -0.283 OA
ENDBRANCH   1  24
TORSDOF 3
ENDMDL
MODEL 6
REMARK VINA RESULT:      -7.4      2.792      4.184
REMARK  3 active torsions:
REMARK  status: ('A' for Active; 'I' for Inactive)
REMARK    1  A    between atoms: C1_2  and  C2_3 
REMARK    2  A    between atoms: C11_13  and  N1_14 
REMARK    3  A    between atoms: N1_14  and  C12_15 
ROOT
HETATM    1  C2  UNL     1      22.459  -0.287  53.473  1.00  0.00     0.016 C 
HETATM    2  C3  UNL     1      21.564   0.325  52.466  1.00  0.00     0.012 C 
HETATM    3  C4  UNL     1      21.429   1.565  51.962  1.00  0.00     0.012 C 
HETATM    4  C5  UNL     1      22.159   2.851  52.239  1.00  0.00     0.204 C 
HETATM    5  O2  UNL     1      21.929   3.744  51.244  1.00  0.00    -0.375 OA
HETATM    6  C6  UNL     1      20.639   4.123  50.981  1.00  0.00     0.174 C 
HETATM    7  C7  UNL     1      20.818   5.122  49.818  1.00  0.00     0.025 C 
HETATM    8  C8  UNL     1      21.594   5.804  48.940  1.00  0.00     0.022 C 
HETATM    9  C9  UNL     1      23.021   5.954  48.586  1.00  0.00    -0.023 C 
HETATM   10  C10 UNL     1      24.331   5.676  48.736  1.00  0.00    -0.002 C 
HETATM   11  C11 UNL     1      25.732   5.279  49.011  1.00  0.00     0.131 C 
HETATM   12  C14 UNL     1      25.860   3.899  49.606  1.00  0.00     0.026 C 
HETATM   13  C15 UNL     1      25.160   3.841  50.771  1.00  0.00     0.140 C 
HETATM   14  O4  UNL     1      24.466   3.667  51.992  1.00  0.00    -0.322 OA
HETATM   15  C16 UNL     1      23.645   2.552  52.187  1.00  0.00     0.115 C 
HETATM   16  C17 UNL     1      24.612   1.686  52.240  1.00  0.00     0.115 C 
HETATM   17  N2  UNL     1      24.605   0.629  52.911  1.00  0.00    -0.280 NA
HETATM   18  C18 UNL     1      23.860  -0.068  53.929  1.00  0.00     0.192 C 
ENDROOT
BRANCH  11  19
HETATM   19  N1  UNL     1      26.363   6.192  49.935  1.00  0.00    -0.358 N 
HETATM   20  H11 UNL     1      27.050   5.805  50.617  1.00  0.00     0.162 HD
BRANCH  19  21
HETATM   21  C12 UNL     1      26.154   7.581  50.020  1.00  0.00     0.166 A 
HETATM   22  C13 UNL     1      26.830   8.743  50.122  1.00  0.00     0.200 A 
HETATM   23  O3  UNL     1      25.468   8.784  50.075  1.00  0.00    -0.300 OA
ENDBRANCH  19  21
ENDBRANCH  11  19
BRANCH   1  24
HETATM   24  C1  UNL     1      21.924  -1.260  54.147  1.00  0.00     0.230 C 
HETATM   25  O1  UNL     1      21.627  -2.256  54.814  1.00  0.00    -0.283 OA
ENDBRANCH   1  24
TORSDOF 3
ENDMDL
MODEL 7
REMARK VINA RESULT:      -7.3      2.899      7.547
REMARK  3 active torsions:
REMARK  status: ('A' for Active; 'I' for Inactive)
REMARK    1  A    between atoms: C1_2  and  C2_3 
REMARK    2  A    between atoms: C11_13  and  N1_14 
REMARK    3  A    between atoms: N1_14  and  C12_15 
ROOT
HETATM    1  C2  UNL     1      25.314   0.414  53.674  1.00  0.00     0.016 C 
HETATM    2  C3  UNL     1      24.273  -0.627  53.524  1.00  0.00     0.012 C 
HETATM    3  C4  UNL     1      22.928  -0.615  53.525  1.00  0.00     0.012 C 
HETATM    4  C5  UNL     1      21.929   0.499  53.685  1.00  0.00     0.204 C 
HETATM    5  O2  UNL     1      20.707   0.098  53.255  1.00  0.00    -0.375 OA
HETATM    6  C6  UNL     1      20.120  -0.987  53.852  1.00  0.00     0.174 C 
HETATM    7  C7  UNL     1      18.780  -1.096  53.094  1.00  0.00     0.025 C 
HETATM    8  C8  UNL     1      17.904  -0.668  52.151  1.00  0.00     0.022 C 
HETATM    9  C9  UNL     1      17.785   0.393  51.130  1.00  0.00    -0.023 C 
HETATM   10  C10 UNL     1      18.238   1.470  50.459  1.00  0.00    -0.002 C 
HETATM   11  C11 UNL     1      18.859   2.647  49.807  1.00  0.00     0.131 C 
HETATM   12  C14 UNL     1      20.367   2.631  49.845  1.00  0.00     0.026 C 
HETATM   13  C15 UNL     1      20.786   2.585  51.139  1.00  0.00     0.140 C 
HETATM   14  O4  UNL     1      21.335   2.536  52.442  1.00  0.00    -0.322 OA
HETATM   15  C16 UNL     1      22.345   1.621  52.752  1.00  0.00     0.115 C 
HETATM   16  C17 UNL     1      23.265   2.195  52.036  1.00  0.00     0.115 C 
HETATM   17  N2  UNL     1      24.490   2.198  52.295  1.00  0.00    -0.280 NA
HETATM   18  C18 UNL     1      25.436   1.857  53.327  1.00  0.00     0.192 C 
ENDROOT
BRANCH  11  19
HETATM   19  N1  UNL     1      18.439   3.877  50.437  1.00  0.00    -0.358 N 
HETATM   20  H11 UNL     1      19.005   4.735  50.267  1.00  0.00     0.162 HD
BRANCH  19  21
HETATM   21  C12 UNL     1      17.321   4.053  51.273  1.00  0.00     0.166 A 
HETATM   22  C13 UNL     1      15.975   4.133  51.229  1.00  0.00     0.200 A 
HETATM   23  O3  UNL     1      16.595   4.247  52.438  1.00  0.00    -0.300 OA
ENDBRANCH  19  21
ENDBRANCH  11  19
BRANCH   1  24
HETATM   24  C1  UNL     1      26.406   0.004  54.245  1.00  0.00     0.230 C 
HETATM   25  O1  UNL     1      27.534  -0.368  54.582  1.00  0.00    -0.283 OA
ENDBRANCH   1  24
TORSDOF 3
ENDMDL
MODEL 8
REMARK VINA RESULT:      -7.3      2.792      8.017
REMARK  3 active torsions:
REMARK  status: ('A' for Active; 'I' for Inactive)
REMARK    1  A    between atoms: C1_2  and  C2_3 
REMARK    2  A    between atoms: C11_13  and  N1_14 
REMARK    3  A    between atoms: N1_14  and  C12_15 
ROOT
HETATM    1  C2  UNL     1      26.517   4.912  48.998  1.00  0.00     0.016 C 
HETATM    2  C3  UNL     1      26.759   3.574  49.582  1.00  0.00     0.012 C 
HETATM    3  C4  UNL     1      26.174   2.857  50.558  1.00  0.00     0.012 C 
HETATM    4  C5  UNL     1      25.008   3.151  51.464  1.00  0.00     0.204 C 
HETATM    5  O2  UNL     1      24.555   2.005  52.031  1.00  0.00    -0.375 OA
HETATM    6  C6  UNL     1      25.413   1.259  52.795  1.00  0.00     0.174 C 
HETATM    7  C7  UNL     1      24.522   0.081  53.239  1.00  0.00     0.025 C 
HETATM    8  C8  UNL     1      23.338  -0.580  53.256  1.00  0.00     0.022 C 
HETATM    9  C9  UNL     1      21.971  -0.446  52.711  1.00  0.00    -0.023 C 
HETATM   10  C10 UNL     1      21.022   0.185  51.992  1.00  0.00    -0.002 C 
HETATM   11  C11 UNL     1      20.080   0.983  51.172  1.00  0.00     0.131 C 
HETATM   12  C14 UNL     1      20.759   1.804  50.104  1.00  0.00     0.026 C 
HETATM   13  C15 UNL     1      21.650   2.653  50.684  1.00  0.00     0.140 C 
HETATM   14  O4  UNL     1      22.603   3.575  51.177  1.00  0.00    -0.322 OA
HETATM   15  C16 UNL     1      23.873   3.659  50.597  1.00  0.00     0.115 C 
HETATM   16  C17 UNL     1      23.470   4.180  49.476  1.00  0.00     0.115 C 
HETATM   17  N2  UNL     1      24.129   4.972  48.766  1.00  0.00    -0.280 NA
HETATM   18  C18 UNL     1      25.326   5.775  48.766  1.00  0.00     0.192 C 
ENDROOT
BRANCH  11  19
HETATM   19  N1  UNL     1      19.324   1.903  51.989  1.00  0.00    -0.358 N 
HETATM   20  H11 UNL     1      19.667   2.101  52.953  1.00  0.00     0.162 HD
BRANCH  19  21
HETATM   21  C12 UNL     1      18.150   2.585  51.620  1.00  0.00     0.166 A 
HETATM   22  C13 UNL     1      17.700   3.819  51.316  1.00  0.00     0.200 A 
HETATM   23  O3  UNL     1      16.816   2.782  51.299  1.00  0.00    -0.300 OA
ENDBRANCH  19  21
ENDBRANCH  11  19
BRANCH   1  24
HETATM   24  C1  UNL     1      27.587   5.513  48.570  1.00  0.00     0.230 C 
HETATM   25  O1  UNL     1      28.655   5.884  48.076  1.00  0.00    -0.283 OA
ENDBRANCH   1  24
TORSDOF 3
ENDMDL
MODEL 9
REMARK VINA RESULT:      -7.2      2.759      6.613
REMARK  3 active torsions:
REMARK  status: ('A' for Active; 'I' for Inactive)
REMARK    1  A    between atoms: C1_2  and  C2_3 
REMARK    2  A    between atoms: C11_13  and  N1_14 
REMARK    3  A    between atoms: N1_14  and  C12_15 
ROOT
HETATM    1  C2  UNL     1      27.079   0.260  53.153  1.00  0.00     0.016 C 
HETATM    2  C3  UNL     1      27.543   1.538  52.569  1.00  0.00     0.012 C 
HETATM    3  C4  UNL     1      27.057   2.372  51.632  1.00  0.00     0.012 C 
HETATM    4  C5  UNL     1      25.811   2.324  50.788  1.00  0.00     0.204 C 
HETATM    5  O2  UNL     1      25.558   3.547  50.258  1.00  0.00    -0.375 OA
HETATM    6  C6  UNL     1      26.503   4.128  49.455  1.00  0.00     0.174 C 
HETATM    7  C7  UNL     1      25.834   5.464  49.071  1.00  0.00     0.025 C 
HETATM    8  C8  UNL     1      24.800   6.340  49.124  1.00  0.00     0.022 C 
HETATM    9  C9  UNL     1      23.463   6.460  49.742  1.00  0.00    -0.023 C 
HETATM   10  C10 UNL     1      22.448   6.009  50.505  1.00  0.00    -0.002 C 
HETATM   11  C11 UNL     1      21.414   5.391  51.369  1.00  0.00     0.131 C 
HETATM   12  C14 UNL     1      21.976   4.434  52.390  1.00  0.00     0.026 C 
HETATM   13  C15 UNL     1      22.656   3.442  51.755  1.00  0.00     0.140 C 
HETATM   14  O4  UNL     1      23.388   2.364  51.203  1.00  0.00    -0.322 OA
HETATM   15  C16 UNL     1      24.646   2.027  51.712  1.00  0.00     0.115 C 
HETATM   16  C17 UNL     1      24.209   1.571  52.848  1.00  0.00     0.115 C 
HETATM   17  N2  UNL     1      24.739   0.654  53.514  1.00  0.00    -0.280 NA
HETATM   18  C18 UNL     1      25.757  -0.363  53.442  1.00  0.00     0.192 C 
ENDROOT
BRANCH  11  19
HETATM   19  N1  UNL     1      20.454   4.648  50.586  1.00  0.00    -0.358 N 
HETATM   20  H11 UNL     1      20.617   4.563  49.560  1.00  0.00     0.162 HD
BRANCH  19  21
HETATM   21  C12 UNL     1      19.296   4.007  51.063  1.00  0.00     0.166 A 
HETATM   22  C13 UNL     1      18.549   2.901  50.869  1.00  0.00     0.200 A 
HETATM   23  O3  UNL     1      18.161   3.788  51.828  1.00  0.00    -0.300 OA
ENDBRANCH  19  21
ENDBRANCH  11  19
BRANCH   1  24
HETATM   24  C1  UNL     1      28.033  -0.543  53.517  1.00  0.00     0.230 C 
HETATM   25  O1  UNL     1      28.790  -1.469  53.826  1.00  0.00    -0.283 OA
ENDBRANCH   1  24
TORSDOF 3
ENDMDL
