MODEL 1
REMARK VINA RESULT:      -7.8      0.000      0.000
REMARK  5 active torsions:
REMARK  status: ('A' for Active; 'I' for Inactive)
REMARK    1  A    between atoms: C2_2  and  C4_4 
REMARK    2  A    between atoms: C5_7  and  C6_8 
REMARK       I    between atoms: C6_8  and  N2_10 
REMARK    3  A    between atoms: N2_10  and  C7_11 
REMARK    4  A    between atoms: C12_18  and  N5_19 
REMARK    5  A    between atoms: N5_19  and  C13_20 
ROOT
HETATM    1  C7  UNL     1      25.085   2.721  51.754  1.00  0.00     0.036 A 
HETATM    2  C8  UNL     1      23.835   2.198  51.485  1.00  0.00     0.032 A 
HETATM    3  C9  UNL     1      23.425   1.102  52.217  1.00  0.00     0.035 A 
HETATM    4  C10 UNL     1      24.243   0.554  53.182  1.00  0.00     0.072 A 
HETATM    5  N3  UNL     1      23.847  -0.530  53.912  1.00  0.00    -0.241 NA
HETATM    6  C11 UNL     1      24.685  -1.044  54.858  1.00  0.00     0.235 A 
HETATM    7  N4  UNL     1      25.892  -0.522  55.103  1.00  0.00    -0.224 NA
HETATM    8  C12 UNL     1      26.353   0.544  54.428  1.00  0.00     0.138 A 
HETATM    9  C14 UNL     1      25.495   1.050  53.476  1.00  0.00     0.041 A 
HETATM   10  C15 UNL     1      25.875   2.145  52.728  1.00  0.00     0.047 A 
ENDROOT
BRANCH   1  11
HETATM   11  N2  UNL     1      25.475   3.852  50.980  1.00  0.00    -0.321 N 
HETATM   12  C6  UNL     1      26.348   3.837  49.859  1.00  0.00     0.283 C 
HETATM   13  O1  UNL     1      26.903   2.824  49.386  1.00  0.00    -0.265 OA
HETATM   14  H8  UNL     1      25.012   4.687  51.376  1.00  0.00     0.169 HD
BRANCH  12  15
HETATM   15  C5  UNL     1      26.516   5.249  49.302  1.00  0.00     0.185 A 
HETATM   16  S1  UNL     1      25.237   6.429  50.055  1.00  0.00     0.039 SA
HETATM   17  N1  UNL     1      25.929   7.839  49.049  1.00  0.00    -0.194 NA
HETATM   18  C4  UNL     1      26.953   7.186  48.361  1.00  0.00     0.139 A 
HETATM   19  N6  UNL     1      27.126   5.881  48.595  1.00  0.00    -0.218 NA
BRANCH  18  20
HETATM   20  C2  UNL     1      27.721   8.068  47.445  1.00  0.00     0.050 C 
HETATM   21  C1  UNL     1      26.909   8.401  46.227  1.00  0.00     0.018 C 
HETATM   22  C3  UNL     1      28.974   7.323  47.017  1.00  0.00     0.018 C 
ENDBRANCH  18  20
ENDBRANCH  12  15
ENDBRANCH   1  11
BRANCH   8  23
HETATM   23  N5  UNL     1      27.646   1.090  54.701  1.00  0.00    -0.361 N 
HETATM   24  H12 UNL     1      27.864   2.085  54.800  1.00  0.00     0.162 HD
BRANCH  23  25
HETATM   25  C13 UNL     1      28.745   0.151  54.852  1.00  0.00     0.237 C 
HETATM   26 CL1  UNL     1      28.906  -0.747  53.309  1.00  0.00    -0.109 Cl
ENDBRANCH  23  25
ENDBRANCH   8  23
TORSDOF 5
ENDMDL
MODEL 2
REMARK VINA RESULT:      -7.5      1.665      1.945
REMARK  5 active torsions:
REMARK  status: ('A' for Active; 'I' for Inactive)
REMARK    1  A    between atoms: C2_2  and  C4_4 
REMARK    2  A    between atoms: C5_7  and  C6_8 
REMARK       I    between atoms: C6_8  and  N2_10 
REMARK    3  A    between atoms: N2_10  and  C7_11 
REMARK    4  A    between atoms: C12_18  and  N5_19 
REMARK    5  A    between atoms: N5_19  and  C13_20 
ROOT
HETATM    1  C7  UNL     1      25.936   2.511  51.522  1.00  0.00     0.036 A 
HETATM    2  C8  UNL     1      24.567   2.691  51.539  1.00  0.00     0.032 A 
HETATM    3  C9  UNL     1      23.816   1.846  52.332  1.00  0.00     0.035 A 
HETATM    4  C10 UNL     1      24.423   0.858  53.078  1.00  0.00     0.072 A 
HETATM    5  N3  UNL     1      23.690   0.017  53.866  1.00  0.00    -0.241 NA
HETATM    6  C11 UNL     1      24.327  -0.948  54.590  1.00  0.00     0.235 A 
HETATM    7  N4  UNL     1      25.655  -1.105  54.560  1.00  0.00    -0.224 NA
HETATM    8  C12 UNL     1      26.445  -0.318  53.810  1.00  0.00     0.138 A 
HETATM    9  C14 UNL     1      25.786   0.651  53.084  1.00  0.00     0.041 A 
HETATM   10  C15 UNL     1      26.507   1.511  52.283  1.00  0.00     0.047 A 
ENDROOT
BRANCH   1  11
HETATM   11  N2  UNL     1      26.678   3.401  50.692  1.00  0.00    -0.321 N 
HETATM   12  C6  UNL     1      26.205   4.033  49.510  1.00  0.00     0.283 C 
HETATM   13  O1  UNL     1      25.064   3.899  49.024  1.00  0.00    -0.265 OA
HETATM   14  H8  UNL     1      27.622   3.507  51.100  1.00  0.00     0.169 HD
BRANCH  12  15
HETATM   15  C5  UNL     1      27.300   4.911  48.908  1.00  0.00     0.185 A 
HETATM   16  S1  UNL     1      26.637   6.642  48.512  1.00  0.00     0.039 SA
HETATM   17  N1  UNL     1      28.313   7.149  47.870  1.00  0.00    -0.194 NA
HETATM   18  C4  UNL     1      29.032   5.968  48.066  1.00  0.00     0.139 A 
HETATM   19  N6  UNL     1      28.384   4.928  48.598  1.00  0.00    -0.218 NA
BRANCH  18  20
HETATM   20  C2  UNL     1      30.453   6.051  47.640  1.00  0.00     0.050 C 
HETATM   21  C1  UNL     1      31.364   6.055  48.833  1.00  0.00     0.018 C 
HETATM   22  C3  UNL     1      30.639   7.347  46.870  1.00  0.00     0.018 C 
ENDBRANCH  18  20
ENDBRANCH  12  15
ENDBRANCH   1  11
BRANCH   8  23
HETATM   23  N5  UNL     1      27.862  -0.499  53.787  1.00  0.00    -0.361 N 
HETATM   24  H12 UNL     1      28.391  -0.972  53.049  1.00  0.00     0.162 HD
BRANCH  23  25
HETATM   25  C13 UNL     1      28.618   0.035  54.907  1.00  0.00     0.237 C 
HETATM   26 CL1  UNL     1      29.338   1.590  54.381  1.00  0.00    -0.109 Cl
ENDBRANCH  23  25
ENDBRANCH   8  23
TORSDOF 5
ENDMDL
MODEL 3
REMARK VINA RESULT:      -7.4      4.173      7.975
REMARK  5 active torsions:
REMARK  status: ('A' for Active; 'I' for Inactive)
REMARK    1  A    between atoms: C2_2  and  C4_4 
REMARK    2  A    between atoms: C5_7  and  C6_8 
REMARK       I    between atoms: C6_8  and  N2_10 
REMARK    3  A    between atoms: N2_10  and  C7_11 
REMARK    4  A    between atoms: C12_18  and  N5_19 
REMARK    5  A    between atoms: N5_19  and  C13_20 
ROOT
HETATM    1  C7  UNL     1      23.951   0.321  52.988  1.00  0.00     0.036 A 
HETATM    2  C8  UNL     1      24.450  -0.555  53.931  1.00  0.00     0.032 A 
HETATM    3  C9  UNL     1      25.779  -0.434  54.284  1.00  0.00     0.035 A 
HETATM    4  C10 UNL     1      26.574   0.534  53.706  1.00  0.00     0.072 A 
HETATM    5  N3  UNL     1      27.890   0.663  54.048  1.00  0.00    -0.241 NA
HETATM    6  C11 UNL     1      28.644   1.633  53.455  1.00  0.00     0.235 A 
HETATM    7  N4  UNL     1      28.141   2.473  52.543  1.00  0.00    -0.224 NA
HETATM    8  C12 UNL     1      26.856   2.410  52.155  1.00  0.00     0.138 A 
HETATM    9  C14 UNL     1      26.108   1.424  52.762  1.00  0.00     0.041 A 
HETATM   10  C15 UNL     1      24.778   1.277  52.433  1.00  0.00     0.047 A 
ENDROOT
BRANCH   1  11
HETATM   11  N2  UNL     1      22.576   0.167  52.649  1.00  0.00    -0.321 N 
HETATM   12  C6  UNL     1      21.651   1.218  52.406  1.00  0.00     0.283 C 
HETATM   13  O1  UNL     1      21.911   2.437  52.455  1.00  0.00    -0.265 OA
HETATM   14  H8  UNL     1      22.366  -0.845  52.610  1.00  0.00     0.169 HD
BRANCH  12  15
HETATM   15  C5  UNL     1      20.275   0.644  52.073  1.00  0.00     0.185 A 
HETATM   16  S1  UNL     1      19.666   1.280  50.394  1.00  0.00     0.039 SA
HETATM   17  N1  UNL     1      18.094   0.295  50.578  1.00  0.00    -0.194 NA
HETATM   18  C4  UNL     1      18.310  -0.306  51.820  1.00  0.00     0.139 A 
HETATM   19  N6  UNL     1      19.457  -0.033  52.451  1.00  0.00    -0.218 NA
BRANCH  18  20
HETATM   20  C2  UNL     1      17.199  -1.185  52.266  1.00  0.00     0.050 C 
HETATM   21  C1  UNL     1      16.011  -0.367  52.685  1.00  0.00     0.018 C 
HETATM   22  C3  UNL     1      17.688  -1.994  53.455  1.00  0.00     0.018 C 
ENDBRANCH  18  20
ENDBRANCH  12  15
ENDBRANCH   1  11
BRANCH   8  23
HETATM   23  N5  UNL     1      26.334   3.313  51.179  1.00  0.00    -0.361 N 
HETATM   24  H12 UNL     1      25.813   4.171  51.379  1.00  0.00     0.162 HD
BRANCH  23  25
HETATM   25  C13 UNL     1      26.563   2.986  49.781  1.00  0.00     0.237 C 
HETATM   26 CL1  UNL     1      27.226   4.450  48.985  1.00  0.00    -0.109 Cl
ENDBRANCH  23  25
ENDBRANCH   8  23
TORSDOF 5
ENDMDL
MODEL 4
REMARK VINA RESULT:      -7.4      2.434      3.554
REMARK  5 active torsions:
REMARK  status: ('A' for Active; 'I' for Inactive)
REMARK    1  A    between atoms: C2_2  and  C4_4 
REMARK    2  A    between atoms: C5_7  and  C6_8 
REMARK       I    between atoms: C6_8  and  N2_10 
REMARK    3  A    between atoms: N2_10  and  C7_11 
REMARK    4  A    between atoms: C12_18  and  N5_19 
REMARK    5  A    between atoms: N5_19  and  C13_20 
ROOT
HETATM    1  C7  UNL     1      26.076   2.192  51.655  1.00  0.00     0.036 A 
HETATM    2  C8  UNL     1      26.922   1.231  52.174  1.00  0.00     0.032 A 
HETATM    3  C9  UNL     1      26.369   0.247  52.967  1.00  0.00     0.035 A 
HETATM    4  C10 UNL     1      25.015   0.232  53.227  1.00  0.00     0.072 A 
HETATM    5  N3  UNL     1      24.456  -0.737  54.011  1.00  0.00    -0.241 NA
HETATM    6  C11 UNL     1      23.113  -0.719  54.246  1.00  0.00     0.235 A 
HETATM    7  N4  UNL     1      22.310   0.221  53.732  1.00  0.00    -0.224 NA
HETATM    8  C12 UNL     1      22.783   1.207  52.952  1.00  0.00     0.138 A 
HETATM    9  C14 UNL     1      24.142   1.174  52.726  1.00  0.00     0.041 A 
HETATM   10  C15 UNL     1      24.726   2.143  51.937  1.00  0.00     0.047 A 
ENDROOT
BRANCH   1  11
HETATM   11  N2  UNL     1      26.683   3.191  50.840  1.00  0.00    -0.321 N 
HETATM   12  C6  UNL     1      26.172   3.692  49.612  1.00  0.00     0.283 C 
HETATM   13  O1  UNL     1      25.113   3.326  49.065  1.00  0.00    -0.265 OA
HETATM   14  H8  UNL     1      27.559   3.491  51.298  1.00  0.00     0.169 HD
BRANCH  12  15
HETATM   15  C5  UNL     1      27.112   4.754  49.044  1.00  0.00     0.185 A 
HETATM   16  S1  UNL     1      26.263   6.448  48.992  1.00  0.00     0.039 SA
HETATM   17  N1  UNL     1      27.804   7.211  48.270  1.00  0.00    -0.194 NA
HETATM   18  C4  UNL     1      28.638   6.093  48.205  1.00  0.00     0.139 A 
HETATM   19  N6  UNL     1      28.147   4.926  48.632  1.00  0.00    -0.218 NA
BRANCH  18  20
HETATM   20  C2  UNL     1      29.988   6.380  47.654  1.00  0.00     0.050 C 
HETATM   21  C1  UNL     1      30.872   5.171  47.763  1.00  0.00     0.018 C 
HETATM   22  C3  UNL     1      30.595   7.513  48.464  1.00  0.00     0.018 C 
ENDBRANCH  18  20
ENDBRANCH  12  15
ENDBRANCH   1  11
BRANCH   8  23
HETATM   23  N5  UNL     1      21.914   2.205  52.413  1.00  0.00    -0.361 N 
HETATM   24  H12 UNL     1      22.006   3.214  52.551  1.00  0.00     0.162 HD
BRANCH  23  25
HETATM   25  C13 UNL     1      20.804   1.746  51.595  1.00  0.00     0.237 C 
HETATM   26 CL1  UNL     1      21.475   0.678  50.321  1.00  0.00    -0.109 Cl
ENDBRANCH  23  25
ENDBRANCH   8  23
TORSDOF 5
ENDMDL
MODEL 5
REMARK VINA RESULT:      -7.3      4.894      8.040
REMARK  5 active torsions:
REMARK  status: ('A' for Active; 'I' for Inactive)
REMARK    1  A    between atoms: C2_2  and  C4_4 
REMARK    2  A    between atoms: C5_7  and  C6_8 
REMARK       I    between atoms: C6_8  and  N2_10 
REMARK    3  A    between atoms: N2_10  and  C7_11 
REMARK    4  A    between atoms: C12_18  and  N5_19 
REMARK    5  A    between atoms: N5_19  and  C13_20 
ROOT
HETATM    1  C7  UNL     1      23.577   1.184  52.962  1.00  0.00     0.036 A 
HETATM    2  C8  UNL     1      23.811   2.543  53.035  1.00  0.00     0.032 A 
HETATM    3  C9  UNL     1      25.093   2.962  53.328  1.00  0.00     0.035 A 
HETATM    4  C10 UNL     1      26.100   2.044  53.540  1.00  0.00     0.072 A 
HETATM    5  N3  UNL     1      27.373   2.447  53.831  1.00  0.00    -0.241 NA
HETATM    6  C11 UNL     1      28.342   1.509  54.034  1.00  0.00     0.235 A 
HETATM    7  N4  UNL     1      28.095   0.197  53.959  1.00  0.00    -0.224 NA
HETATM    8  C12 UNL     1      26.870  -0.278  53.678  1.00  0.00     0.138 A 
HETATM    9  C14 UNL     1      25.902   0.682  53.476  1.00  0.00     0.041 A 
HETATM   10  C15 UNL     1      24.611   0.297  53.180  1.00  0.00     0.047 A 
ENDROOT
BRANCH   1  11
HETATM   11  N2  UNL     1      22.242   0.790  52.658  1.00  0.00    -0.321 N 
HETATM   12  C6  UNL     1      21.309   0.224  53.568  1.00  0.00     0.283 C 
HETATM   13  O1  UNL     1      21.524  -0.011  54.774  1.00  0.00    -0.265 OA
HETATM   14  H8  UNL     1      22.069   0.986  51.658  1.00  0.00     0.169 HD
BRANCH  12  15
HETATM   15  C5  UNL     1      19.986  -0.062  52.858  1.00  0.00     0.185 A 
HETATM   16  S1  UNL     1      19.983   0.676  51.113  1.00  0.00     0.039 SA
HETATM   17  N1  UNL     1      18.257   0.031  50.831  1.00  0.00    -0.194 NA
HETATM   18  C4  UNL     1      18.013  -0.595  52.054  1.00  0.00     0.139 A 
HETATM   19  N6  UNL     1      18.981  -0.557  52.976  1.00  0.00    -0.218 NA
BRANCH  18  20
HETATM   20  C2  UNL     1      16.672  -1.230  52.150  1.00  0.00     0.050 C 
HETATM   21  C1  UNL     1      15.676  -0.276  52.744  1.00  0.00     0.018 C 
HETATM   22  C3  UNL     1      16.793  -2.447  53.052  1.00  0.00     0.018 C 
ENDBRANCH  18  20
ENDBRANCH  12  15
ENDBRANCH   1  11
BRANCH   8  23
HETATM   23  N5  UNL     1      26.621  -1.683  53.602  1.00  0.00    -0.361 N 
HETATM   24  H12 UNL     1      26.033  -2.220  54.245  1.00  0.00     0.162 HD
BRANCH  23  25
HETATM   25  C13 UNL     1      27.257  -2.413  52.519  1.00  0.00     0.237 C 
HETATM   26 CL1  UNL     1      28.900  -2.875  53.068  1.00  0.00    -0.109 Cl
ENDBRANCH  23  25
ENDBRANCH   8  23
TORSDOF 5
ENDMDL
MODEL 6
REMARK VINA RESULT:      -7.2      3.263      8.099
REMARK  5 active torsions:
REMARK  status: ('A' for Active; 'I' for Inactive)
REMARK    1  A    between atoms: C2_2  and  C4_4 
REMARK    2  A    between atoms: C5_7  and  C6_8 
REMARK       I    between atoms: C6_8  and  N2_10 
REMARK    3  A    between atoms: N2_10  and  C7_11 
REMARK    4  A    between atoms: C12_18  and  N5_19 
REMARK    5  A    between atoms: N5_19  and  C13_20 
ROOT
HETATM    1  C7  UNL     1      25.432   3.648  50.096  1.00  0.00     0.036 A 
HETATM    2  C8  UNL     1      24.130   3.496  49.663  1.00  0.00     0.032 A 
HETATM    3  C9  UNL     1      23.599   4.484  48.858  1.00  0.00     0.035 A 
HETATM    4  C10 UNL     1      24.352   5.583  48.505  1.00  0.00     0.072 A 
HETATM    5  N3  UNL     1      23.837   6.567  47.710  1.00  0.00    -0.241 NA
HETATM    6  C11 UNL     1      24.614   7.639  47.381  1.00  0.00     0.235 A 
HETATM    7  N4  UNL     1      25.874   7.767  47.812  1.00  0.00    -0.224 NA
HETATM    8  C12 UNL     1      26.452   6.843  48.597  1.00  0.00     0.138 A 
HETATM    9  C14 UNL     1      25.654   5.767  48.920  1.00  0.00     0.041 A 
HETATM   10  C15 UNL     1      26.155   4.762  49.721  1.00  0.00     0.047 A 
ENDROOT
BRANCH   1  11
HETATM   11  N2  UNL     1      25.946   2.609  50.924  1.00  0.00    -0.321 N 
HETATM   12  C6  UNL     1      25.558   2.338  52.265  1.00  0.00     0.283 C 
HETATM   13  O1  UNL     1      24.705   2.976  52.914  1.00  0.00    -0.265 OA
HETATM   14  H8  UNL     1      26.652   2.085  50.381  1.00  0.00     0.169 HD
BRANCH  12  15
HETATM   15  C5  UNL     1      26.339   1.143  52.809  1.00  0.00     0.185 A 
HETATM   16  S1  UNL     1      25.166  -0.255  53.320  1.00  0.00     0.039 SA
HETATM   17  N1  UNL     1      26.619  -1.299  53.842  1.00  0.00    -0.194 NA
HETATM   18  C4  UNL     1      27.676  -0.436  53.546  1.00  0.00     0.139 A 
HETATM   19  N6  UNL     1      27.376   0.760  53.030  1.00  0.00    -0.218 NA
BRANCH  18  20
HETATM   20  C2  UNL     1      29.017  -0.995  53.859  1.00  0.00     0.050 C 
HETATM   21  C1  UNL     1      30.100  -0.071  53.383  1.00  0.00     0.018 C 
HETATM   22  C3  UNL     1      29.149  -2.327  53.141  1.00  0.00     0.018 C 
ENDBRANCH  18  20
ENDBRANCH  12  15
ENDBRANCH   1  11
BRANCH   8  23
HETATM   23  N5  UNL     1      27.799   6.995  49.049  1.00  0.00    -0.361 N 
HETATM   24  H12 UNL     1      28.357   6.274  49.514  1.00  0.00     0.162 HD
BRANCH  23  25
HETATM   25  C13 UNL     1      28.432   8.285  48.830  1.00  0.00     0.237 C 
HETATM   26 CL1  UNL     1      29.626   8.083  47.507  1.00  0.00    -0.109 Cl
ENDBRANCH  23  25
ENDBRANCH   8  23
TORSDOF 5
ENDMDL
MODEL 7
REMARK VINA RESULT:      -7.2      5.511      7.791
REMARK  5 active torsions:
REMARK  status: ('A' for Active; 'I' for Inactive)
REMARK    1  A    between atoms: C2_2  and  C4_4 
REMARK    2  A    between atoms: C5_7  and  C6_8 
REMARK       I    between atoms: C6_8  and  N2_10 
REMARK    3  A    between atoms: N2_10  and  C7_11 
REMARK    4  A    between atoms: C12_18  and  N5_19 
REMARK    5  A    between atoms: N5_19  and  C13_20 
ROOT
HETATM    1  C7  UNL     1      21.715  -0.043  52.669  1.00  0.00     0.036 A 
HETATM    2  C8  UNL     1      20.931  -0.627  53.644  1.00  0.00     0.032 A 
HETATM    3  C9  UNL     1      19.572  -0.704  53.417  1.00  0.00     0.035 A 
HETATM    4  C10 UNL     1      19.025  -0.212  52.251  1.00  0.00     0.072 A 
HETATM    5  N3  UNL     1      17.681  -0.283  52.016  1.00  0.00    -0.241 NA
HETATM    6  C11 UNL     1      17.177   0.215  50.850  1.00  0.00     0.235 A 
HETATM    7  N4  UNL     1      17.955   0.777  49.918  1.00  0.00    -0.224 NA
HETATM    8  C12 UNL     1      19.284   0.884  50.075  1.00  0.00     0.138 A 
HETATM    9  C14 UNL     1      19.777   0.377  51.258  1.00  0.00     0.041 A 
HETATM   10  C15 UNL     1      21.131   0.438  51.515  1.00  0.00     0.047 A 
ENDROOT
BRANCH   1  11
HETATM   11  N2  UNL     1      23.113   0.020  52.938  1.00  0.00    -0.321 N 
HETATM   12  C6  UNL     1      23.924   1.186  52.881  1.00  0.00     0.283 C 
HETATM   13  O1  UNL     1      23.527   2.331  52.585  1.00  0.00    -0.265 OA
HETATM   14  H8  UNL     1      23.436  -0.931  53.182  1.00  0.00     0.169 HD
BRANCH  12  15
HETATM   15  C5  UNL     1      25.369   0.840  53.236  1.00  0.00     0.185 A 
HETATM   16  S1  UNL     1      25.439  -0.640  54.418  1.00  0.00     0.039 SA
HETATM   17  N1  UNL     1      27.301  -0.544  54.446  1.00  0.00    -0.194 NA
HETATM   18  C4  UNL     1      27.516   0.542  53.594  1.00  0.00     0.139 A 
HETATM   19  N6  UNL     1      26.443   1.135  53.061  1.00  0.00    -0.218 NA
BRANCH  18  20
HETATM   20  C2  UNL     1      28.949   0.883  53.402  1.00  0.00     0.050 C 
HETATM   21  C1  UNL     1      29.811  -0.335  53.576  1.00  0.00     0.018 C 
HETATM   22  C3  UNL     1      29.331   1.914  54.450  1.00  0.00     0.018 C 
ENDBRANCH  18  20
ENDBRANCH  12  15
ENDBRANCH   1  11
BRANCH   8  23
HETATM   23  N5  UNL     1      20.101   1.488  49.070  1.00  0.00    -0.361 N 
HETATM   24  H12 UNL     1      20.944   1.077  48.661  1.00  0.00     0.162 HD
BRANCH  23  25
HETATM   25  C13 UNL     1      19.700   2.798  48.586  1.00  0.00     0.237 C 
HETATM   26 CL1  UNL     1      20.395   4.022  49.696  1.00  0.00    -0.109 Cl
ENDBRANCH  23  25
ENDBRANCH   8  23
TORSDOF 5
ENDMDL
MODEL 8
REMARK VINA RESULT:      -7.1      2.008      2.647
REMARK  5 active torsions:
REMARK  status: ('A' for Active; 'I' for Inactive)
REMARK    1  A    between atoms: C2_2  and  C4_4 
REMARK    2  A    between atoms: C5_7  and  C6_8 
REMARK       I    between atoms: C6_8  and  N2_10 
REMARK    3  A    between atoms: N2_10  and  C7_11 
REMARK    4  A    between atoms: C12_18  and  N5_19 
REMARK    5  A    between atoms: N5_19  and  C13_20 
ROOT
HETATM    1  C7  UNL     1      22.918   2.806  51.983  1.00  0.00     0.036 A 
HETATM    2  C8  UNL     1      21.568   3.096  52.002  1.00  0.00     0.032 A 
HETATM    3  C9  UNL     1      20.720   2.175  52.583  1.00  0.00     0.035 A 
HETATM    4  C10 UNL     1      21.214   1.006  53.123  1.00  0.00     0.072 A 
HETATM    5  N3  UNL     1      20.384   0.088  53.700  1.00  0.00    -0.241 NA
HETATM    6  C11 UNL     1      20.911  -1.056  54.224  1.00  0.00     0.235 A 
HETATM    7  N4  UNL     1      22.223  -1.317  54.196  1.00  0.00    -0.224 NA
HETATM    8  C12 UNL     1      23.103  -0.464  53.647  1.00  0.00     0.138 A 
HETATM    9  C14 UNL     1      22.555   0.686  53.121  1.00  0.00     0.041 A 
HETATM   10  C15 UNL     1      23.375   1.627  52.535  1.00  0.00     0.047 A 
ENDROOT
BRANCH   1  11
HETATM   11  N2  UNL     1      23.763   3.780  51.376  1.00  0.00    -0.321 N 
HETATM   12  C6  UNL     1      24.140   3.823  50.007  1.00  0.00     0.283 C 
HETATM   13  O1  UNL     1      23.783   3.009  49.131  1.00  0.00    -0.265 OA
HETATM   14  H8  UNL     1      24.055   4.451  52.106  1.00  0.00     0.169 HD
BRANCH  12  15
HETATM   15  C5  UNL     1      25.054   5.019  49.748  1.00  0.00     0.185 A 
HETATM   16  S1  UNL     1      24.467   6.540  50.715  1.00  0.00     0.039 SA
HETATM   17  N1  UNL     1      25.878   7.541  50.020  1.00  0.00    -0.194 NA
HETATM   18  C4  UNL     1      26.505   6.582  49.221  1.00  0.00     0.139 A 
HETATM   19  N6  UNL     1      25.972   5.357  49.188  1.00  0.00    -0.218 NA
BRANCH  18  20
HETATM   20  C2  UNL     1      27.707   7.085  48.508  1.00  0.00     0.050 C 
HETATM   21  C1  UNL     1      27.316   7.776  47.233  1.00  0.00     0.018 C 
HETATM   22  C3  UNL     1      28.588   5.893  48.175  1.00  0.00     0.018 C 
ENDBRANCH  18  20
ENDBRANCH  12  15
ENDBRANCH   1  11
BRANCH   8  23
HETATM   23  N5  UNL     1      24.502  -0.758  53.623  1.00  0.00    -0.361 N 
HETATM   24  H12 UNL     1      25.058  -0.942  52.784  1.00  0.00     0.162 HD
BRANCH  23  25
HETATM   25  C13 UNL     1      25.193  -0.798  54.901  1.00  0.00     0.237 C 
HETATM   26 CL1  UNL     1      26.578   0.336  54.802  1.00  0.00    -0.109 Cl
ENDBRANCH  23  25
ENDBRANCH   8  23
TORSDOF 5
ENDMDL
MODEL 9
REMARK VINA RESULT:      -7.1      3.323      8.620
REMARK  5 active torsions:
REMARK  status: ('A' for Active; 'I' for Inactive)
REMARK    1  A    between atoms: C2_2  and  C4_4 
REMARK    2  A    between atoms: C5_7  and  C6_8 
REMARK       I    between atoms: C6_8  and  N2_10 
REMARK    3  A    between atoms: N2_10  and  C7_11 
REMARK    4  A    between atoms: C12_18  and  N5_19 
REMARK    5  A    between atoms: N5_19  and  C13_20 
ROOT
HETATM    1  C7  UNL     1      25.926   4.073  50.240  1.00  0.00     0.036 A 
HETATM    2  C8  UNL     1      27.003   3.813  49.415  1.00  0.00     0.032 A 
HETATM    3  C9  UNL     1      27.464   4.839  48.615  1.00  0.00     0.035 A 
HETATM    4  C10 UNL     1      26.861   6.079  48.645  1.00  0.00     0.072 A 
HETATM    5  N3  UNL     1      27.309   7.102  47.858  1.00  0.00    -0.241 NA
HETATM    6  C11 UNL     1      26.687   8.315  47.916  1.00  0.00     0.235 A 
HETATM    7  N4  UNL     1      25.645   8.546  48.724  1.00  0.00    -0.224 NA
HETATM    8  C12 UNL     1      25.147   7.592  49.527  1.00  0.00     0.138 A 
HETATM    9  C14 UNL     1      25.786   6.373  49.456  1.00  0.00     0.041 A 
HETATM   10  C15 UNL     1      25.351   5.327  50.243  1.00  0.00     0.047 A 
ENDROOT
BRANCH   1  11
HETATM   11  N2  UNL     1      25.479   2.991  51.051  1.00  0.00    -0.321 N 
HETATM   12  C6  UNL     1      26.280   2.226  51.942  1.00  0.00     0.283 C 
HETATM   13  O1  UNL     1      27.499   2.393  52.144  1.00  0.00    -0.265 OA
HETATM   14  H8  UNL     1      24.468   2.857  50.879  1.00  0.00     0.169 HD
BRANCH  12  15
HETATM   15  C5  UNL     1      25.432   1.157  52.629  1.00  0.00     0.185 A 
HETATM   16  S1  UNL     1      26.420   0.280  53.988  1.00  0.00     0.039 SA
HETATM   17  N1  UNL     1      24.947  -0.792  54.382  1.00  0.00    -0.194 NA
HETATM   18  C4  UNL     1      24.021  -0.311  53.455  1.00  0.00     0.139 A 
HETATM   19  N6  UNL     1      24.414   0.674  52.640  1.00  0.00    -0.218 NA
BRANCH  18  20
HETATM   20  C2  UNL     1      22.699  -0.985  53.516  1.00  0.00     0.050 C 
HETATM   21  C1  UNL     1      21.620  -0.086  52.985  1.00  0.00     0.018 C 
HETATM   22  C3  UNL     1      22.404  -1.308  54.971  1.00  0.00     0.018 C 
ENDBRANCH  18  20
ENDBRANCH  12  15
ENDBRANCH   1  11
BRANCH   8  23
HETATM   23  N5  UNL     1      24.033   7.854  50.383  1.00  0.00    -0.361 N 
HETATM   24  H12 UNL     1      24.025   7.750  51.401  1.00  0.00     0.162 HD
BRANCH  23  25
HETATM   25  C13 UNL     1      22.804   8.308  49.753  1.00  0.00     0.237 C 
HETATM   26 CL1  UNL     1      21.434   7.665  50.714  1.00  0.00    -0.109 Cl
ENDBRANCH  23  25
ENDBRANCH   8  23
TORSDOF 5
ENDMDL
