MODEL 1
REMARK VINA RESULT:      -8.2      0.000      0.000
REMARK  4 active torsions:
REMARK  status: ('A' for Active; 'I' for Inactive)
REMARK    1  A    between atoms: C2_2  and  O1_3 
REMARK    2  A    between atoms: O1_3  and  C3_4 
REMARK    3  A    between atoms: C7_9  and  N2_10 
REMARK    4  A    between atoms: N2_10  and  C8_11 
ROOT
HETATM    1  C3  UNL     1      19.825  -0.085  52.479  1.00  0.00     0.102 C 
HETATM    2  C4  UNL     1      20.179  -0.839  53.527  1.00  0.00     0.028 C 
HETATM    3  C5  UNL     1      21.609  -1.043  53.588  1.00  0.00     0.091 A 
HETATM    4  C6  UNL     1      22.338  -1.348  54.778  1.00  0.00     0.105 A 
HETATM    5  N1  UNL     1      23.439  -0.686  54.673  1.00  0.00    -0.246 NA
HETATM    6  C7  UNL     1      23.477   0.072  53.458  1.00  0.00     0.137 A 
HETATM    7  C14 UNL     1      22.352  -0.116  52.770  1.00  0.00     0.037 A 
HETATM    8  C15 UNL     1      21.933   0.605  51.582  1.00  0.00     0.116 C 
HETATM    9  C16 UNL     1      20.586   0.633  51.462  1.00  0.00     0.136 C 
HETATM   10  O2  UNL     1      20.022   1.316  50.415  1.00  0.00    -0.344 OA
HETATM   11  C17 UNL     1      20.820   1.521  49.244  1.00  0.00     0.202 C 
HETATM   12  C18 UNL     1      22.224   1.973  49.573  1.00  0.00     0.202 C 
HETATM   13  O3  UNL     1      22.749   1.200  50.666  1.00  0.00    -0.345 OA
ENDROOT
BRANCH   6  14
HETATM   14  N2  UNL     1      24.605   0.898  53.099  1.00  0.00    -0.340 N 
HETATM   15  H9  UNL     1      24.420   1.897  52.812  1.00  0.00     0.167 HD
BRANCH  14  16
HETATM   16  C8  UNL     1      25.892   0.296  53.161  1.00  0.00     0.035 A 
HETATM   17  C9  UNL     1      26.245  -0.967  52.730  1.00  0.00     0.032 A 
HETATM   18  C10 UNL     1      27.551  -1.397  52.866  1.00  0.00     0.046 A 
HETATM   19  C11 UNL     1      28.507  -0.568  53.434  1.00  0.00     0.138 A 
HETATM   20  F1  UNL     1      29.772  -1.009  53.556  1.00  0.00    -0.204 F 
HETATM   21  C12 UNL     1      28.178   0.684  53.867  1.00  0.00     0.074 A 
HETATM   22 CL1  UNL     1      29.410   1.729  54.588  1.00  0.00    -0.081 Cl
HETATM   23  C13 UNL     1      26.858   1.108  53.724  1.00  0.00     0.056 A 
ENDBRANCH  14  16
ENDBRANCH   6  14
BRANCH   1  24
HETATM   24  O1  UNL     1      18.433   0.115  52.333  1.00  0.00    -0.349 OA
BRANCH  24  25
HETATM   25  C2  UNL     1      17.648  -1.003  52.712  1.00  0.00     0.171 C 
HETATM   26  C1  UNL     1      16.157  -0.666  52.705  1.00  0.00     0.034 C 
ENDBRANCH  24  25
ENDBRANCH   1  24
TORSDOF 4
ENDMDL
MODEL 2
REMARK VINA RESULT:      -7.9      4.845      6.602
REMARK  4 active torsions:
REMARK  status: ('A' for Active; 'I' for Inactive)
REMARK    1  A    between atoms: C2_2  and  O1_3 
REMARK    2  A    between atoms: O1_3  and  C3_4 
REMARK    3  A    between atoms: C7_9  and  N2_10 
REMARK    4  A    between atoms: N2_10  and  C8_11 
ROOT
HETATM    1  C3  UNL     1      24.092   0.748  52.989  1.00  0.00     0.102 C 
HETATM    2  C4  UNL     1      23.101   1.295  52.274  1.00  0.00     0.028 C 
HETATM    3  C5  UNL     1      23.556   2.422  51.491  1.00  0.00     0.091 A 
HETATM    4  C6  UNL     1      22.924   2.893  50.300  1.00  0.00     0.105 A 
HETATM    5  N1  UNL     1      23.894   3.230  49.520  1.00  0.00    -0.246 NA
HETATM    6  C7  UNL     1      25.165   2.989  50.135  1.00  0.00     0.137 A 
HETATM    7  C14 UNL     1      24.991   2.475  51.351  1.00  0.00     0.037 A 
HETATM    8  C15 UNL     1      26.022   1.934  52.218  1.00  0.00     0.116 C 
HETATM    9  C16 UNL     1      25.528   0.999  53.061  1.00  0.00     0.136 C 
HETATM   10  O2  UNL     1      26.382   0.354  53.919  1.00  0.00    -0.344 OA
HETATM   11  C17 UNL     1      27.604   1.014  54.266  1.00  0.00     0.202 C 
HETATM   12  C18 UNL     1      28.296   1.617  53.065  1.00  0.00     0.202 C 
HETATM   13  O3  UNL     1      27.339   2.287  52.227  1.00  0.00    -0.345 OA
ENDROOT
BRANCH   6  14
HETATM   14  N2  UNL     1      26.412   3.286  49.471  1.00  0.00    -0.340 N 
HETATM   15  H9  UNL     1      27.055   2.483  49.237  1.00  0.00     0.167 HD
BRANCH  14  16
HETATM   16  C8  UNL     1      26.680   4.652  49.181  1.00  0.00     0.035 A 
HETATM   17  C9  UNL     1      25.861   5.736  49.431  1.00  0.00     0.032 A 
HETATM   18  C10 UNL     1      26.279   7.006  49.082  1.00  0.00     0.046 A 
HETATM   19  C11 UNL     1      27.515   7.198  48.483  1.00  0.00     0.138 A 
HETATM   20  F1  UNL     1      27.901   8.443  48.153  1.00  0.00    -0.204 F 
HETATM   21  C12 UNL     1      28.339   6.140  48.228  1.00  0.00     0.074 A 
HETATM   22 CL1  UNL     1      29.913   6.402  47.464  1.00  0.00    -0.081 Cl
HETATM   23  C13 UNL     1      27.908   4.863  48.584  1.00  0.00     0.056 A 
ENDBRANCH  14  16
ENDBRANCH   6  14
BRANCH   1  24
HETATM   24  O1  UNL     1      23.705  -0.331  53.816  1.00  0.00    -0.349 OA
BRANCH  24  25
HETATM   25  C2  UNL     1      22.519  -0.982  53.395  1.00  0.00     0.171 C 
HETATM   26  C1  UNL     1      21.605  -1.300  54.579  1.00  0.00     0.034 C 
ENDBRANCH  24  25
ENDBRANCH   1  24
TORSDOF 4
ENDMDL
MODEL 3
REMARK VINA RESULT:      -7.8      4.251      7.651
REMARK  4 active torsions:
REMARK  status: ('A' for Active; 'I' for Inactive)
REMARK    1  A    between atoms: C2_2  and  O1_3 
REMARK    2  A    between atoms: O1_3  and  C3_4 
REMARK    3  A    between atoms: C7_9  and  N2_10 
REMARK    4  A    between atoms: N2_10  and  C8_11 
ROOT
HETATM    1  C3  UNL     1      26.746   0.007  53.683  1.00  0.00     0.102 C 
HETATM    2  C4  UNL     1      27.240   0.723  52.667  1.00  0.00     0.028 C 
HETATM    3  C5  UNL     1      26.196   1.261  51.825  1.00  0.00     0.091 A 
HETATM    4  C6  UNL     1      26.331   2.420  51.001  1.00  0.00     0.105 A 
HETATM    5  N1  UNL     1      25.198   3.028  51.093  1.00  0.00    -0.246 NA
HETATM    6  C7  UNL     1      24.302   2.329  51.966  1.00  0.00     0.137 A 
HETATM    7  C14 UNL     1      24.894   1.238  52.447  1.00  0.00     0.037 A 
HETATM    8  C15 UNL     1      24.388   0.366  53.491  1.00  0.00     0.116 C 
HETATM    9  C16 UNL     1      25.390  -0.257  54.153  1.00  0.00     0.136 C 
HETATM   10  O2  UNL     1      25.083  -1.083  55.203  1.00  0.00    -0.344 OA
HETATM   11  C17 UNL     1      23.773  -1.660  55.240  1.00  0.00     0.202 C 
HETATM   12  C18 UNL     1      22.690  -0.654  54.928  1.00  0.00     0.202 C 
HETATM   13  O3  UNL     1      23.079   0.161  53.809  1.00  0.00    -0.345 OA
ENDROOT
BRANCH   6  14
HETATM   14  N2  UNL     1      22.965   2.800  52.236  1.00  0.00    -0.340 N 
HETATM   15  H9  UNL     1      22.834   3.524  52.993  1.00  0.00     0.167 HD
BRANCH  14  16
HETATM   16  C8  UNL     1      21.914   2.247  51.453  1.00  0.00     0.035 A 
HETATM   17  C9  UNL     1      22.033   1.349  50.411  1.00  0.00     0.032 A 
HETATM   18  C10 UNL     1      20.900   0.910  49.753  1.00  0.00     0.046 A 
HETATM   19  C11 UNL     1      19.647   1.367  50.131  1.00  0.00     0.138 A 
HETATM   20  F1  UNL     1      18.558   0.926  49.475  1.00  0.00    -0.204 F 
HETATM   21  C12 UNL     1      19.508   2.256  51.158  1.00  0.00     0.074 A 
HETATM   22 CL1  UNL     1      17.902   2.828  51.630  1.00  0.00    -0.081 Cl
HETATM   23  C13 UNL     1      20.657   2.692  51.817  1.00  0.00     0.056 A 
ENDBRANCH  14  16
ENDBRANCH   6  14
BRANCH   1  24
HETATM   24  O1  UNL     1      27.717  -0.589  54.521  1.00  0.00    -0.349 OA
BRANCH  24  25
HETATM   25  C2  UNL     1      29.032  -0.105  54.311  1.00  0.00     0.171 C 
HETATM   26  C1  UNL     1      29.943  -1.192  53.741  1.00  0.00     0.034 C 
ENDBRANCH  24  25
ENDBRANCH   1  24
TORSDOF 4
ENDMDL
MODEL 4
REMARK VINA RESULT:      -7.8      2.481      3.663
REMARK  4 active torsions:
REMARK  status: ('A' for Active; 'I' for Inactive)
REMARK    1  A    between atoms: C2_2  and  O1_3 
REMARK    2  A    between atoms: O1_3  and  C3_4 
REMARK    3  A    between atoms: C7_9  and  N2_10 
REMARK    4  A    between atoms: N2_10  and  C8_11 
ROOT
HETATM    1  C3  UNL     1      20.414   2.786  52.383  1.00  0.00     0.102 C 
HETATM    2  C4  UNL     1      21.063   3.912  52.067  1.00  0.00     0.028 C 
HETATM    3  C5  UNL     1      22.495   3.769  52.206  1.00  0.00     0.091 A 
HETATM    4  C6  UNL     1      23.463   4.555  51.510  1.00  0.00     0.105 A 
HETATM    5  N1  UNL     1      24.410   3.731  51.213  1.00  0.00    -0.246 NA
HETATM    6  C7  UNL     1      24.111   2.408  51.671  1.00  0.00     0.137 A 
HETATM    7  C14 UNL     1      22.925   2.393  52.278  1.00  0.00     0.037 A 
HETATM    8  C15 UNL     1      22.192   1.221  52.720  1.00  0.00     0.116 C 
HETATM    9  C16 UNL     1      20.858   1.443  52.742  1.00  0.00     0.136 C 
HETATM   10  O2  UNL     1      20.016   0.420  53.094  1.00  0.00    -0.344 OA
HETATM   11  C17 UNL     1      20.550  -0.638  53.899  1.00  0.00     0.202 C 
HETATM   12  C18 UNL     1      21.901  -1.107  53.413  1.00  0.00     0.202 C 
HETATM   13  O3  UNL     1      22.728   0.021  53.081  1.00  0.00    -0.345 OA
ENDROOT
BRANCH   6  14
HETATM   14  N2  UNL     1      25.012   1.299  51.468  1.00  0.00    -0.340 N 
HETATM   15  H9  UNL     1      24.950   0.765  50.560  1.00  0.00     0.167 HD
BRANCH  14  16
HETATM   16  C8  UNL     1      25.925   1.008  52.519  1.00  0.00     0.035 A 
HETATM   17  C9  UNL     1      26.129   1.737  53.674  1.00  0.00     0.032 A 
HETATM   18  C10 UNL     1      27.063   1.309  54.599  1.00  0.00     0.046 A 
HETATM   19  C11 UNL     1      27.795   0.154  54.373  1.00  0.00     0.138 A 
HETATM   20  F1  UNL     1      28.699  -0.244  55.287  1.00  0.00    -0.204 F 
HETATM   21  C12 UNL     1      27.609  -0.581  53.237  1.00  0.00     0.074 A 
HETATM   22 CL1  UNL     1      28.551  -2.054  52.965  1.00  0.00    -0.081 Cl
HETATM   23  C13 UNL     1      26.664  -0.141  52.311  1.00  0.00     0.056 A 
ENDBRANCH  14  16
ENDBRANCH   6  14
BRANCH   1  24
HETATM   24  O1  UNL     1      19.004   2.871  52.314  1.00  0.00    -0.349 OA
BRANCH  24  25
HETATM   25  C2  UNL     1      18.530   3.763  51.320  1.00  0.00     0.171 C 
HETATM   26  C1  UNL     1      17.023   3.988  51.444  1.00  0.00     0.034 C 
ENDBRANCH  24  25
ENDBRANCH   1  24
TORSDOF 4
ENDMDL
MODEL 5
REMARK VINA RESULT:      -7.6      1.546      2.135
REMARK  4 active torsions:
REMARK  status: ('A' for Active; 'I' for Inactive)
REMARK    1  A    between atoms: C2_2  and  O1_3 
REMARK    2  A    between atoms: O1_3  and  C3_4 
REMARK    3  A    between atoms: C7_9  and  N2_10 
REMARK    4  A    between atoms: N2_10  and  C8_11 
ROOT
HETATM    1  C3  UNL     1      20.486   1.429  50.443  1.00  0.00     0.102 C 
HETATM    2  C4  UNL     1      20.297   0.451  51.338  1.00  0.00     0.028 C 
HETATM    3  C5  UNL     1      21.537   0.038  51.957  1.00  0.00     0.091 A 
HETATM    4  C6  UNL     1      21.638  -0.583  53.239  1.00  0.00     0.105 A 
HETATM    5  N1  UNL     1      22.698  -0.076  53.771  1.00  0.00    -0.246 NA
HETATM    6  C7  UNL     1      23.311   0.881  52.900  1.00  0.00     0.137 A 
HETATM    7  C14 UNL     1      22.609   0.986  51.773  1.00  0.00     0.037 A 
HETATM    8  C15 UNL     1      22.800   1.967  50.720  1.00  0.00     0.116 C 
HETATM    9  C16 UNL     1      21.653   2.207  50.045  1.00  0.00     0.136 C 
HETATM   10  O2  UNL     1      21.651   3.146  49.045  1.00  0.00    -0.344 OA
HETATM   11  C17 UNL     1      22.898   3.449  48.411  1.00  0.00     0.202 C 
HETATM   12  C18 UNL     1      24.023   3.628  49.404  1.00  0.00     0.202 C 
HETATM   13  O3  UNL     1      23.966   2.599  50.406  1.00  0.00    -0.345 OA
ENDROOT
BRANCH   6  14
HETATM   14  N2  UNL     1      24.516   1.591  53.258  1.00  0.00    -0.340 N 
HETATM   15  H9  UNL     1      24.432   2.605  53.540  1.00  0.00     0.167 HD
BRANCH  14  16
HETATM   16  C8  UNL     1      25.735   0.861  53.205  1.00  0.00     0.035 A 
HETATM   17  C9  UNL     1      25.933  -0.398  52.675  1.00  0.00     0.032 A 
HETATM   18  C10 UNL     1      27.193  -0.965  52.706  1.00  0.00     0.046 A 
HETATM   19  C11 UNL     1      28.258  -0.277  53.266  1.00  0.00     0.138 A 
HETATM   20  F1  UNL     1      29.476  -0.848  53.285  1.00  0.00    -0.204 F 
HETATM   21  C12 UNL     1      28.083   0.969  53.796  1.00  0.00     0.074 A 
HETATM   22 CL1  UNL     1      29.453   1.835  54.506  1.00  0.00    -0.081 Cl
HETATM   23  C13 UNL     1      26.809   1.532  53.760  1.00  0.00     0.056 A 
ENDBRANCH  14  16
ENDBRANCH   6  14
BRANCH   1  24
HETATM   24  O1  UNL     1      19.318   1.848  49.765  1.00  0.00    -0.349 OA
BRANCH  24  25
HETATM   25  C2  UNL     1      18.248   2.200  50.625  1.00  0.00     0.171 C 
HETATM   26  C1  UNL     1      18.439   3.600  51.211  1.00  0.00     0.034 C 
ENDBRANCH  24  25
ENDBRANCH   1  24
TORSDOF 4
ENDMDL
MODEL 6
REMARK VINA RESULT:      -7.5      4.304      7.555
REMARK  4 active torsions:
REMARK  status: ('A' for Active; 'I' for Inactive)
REMARK    1  A    between atoms: C2_2  and  O1_3 
REMARK    2  A    between atoms: O1_3  and  C3_4 
REMARK    3  A    between atoms: C7_9  and  N2_10 
REMARK    4  A    between atoms: N2_10  and  C8_11 
ROOT
HETATM    1  C3  UNL     1      26.270  -0.140  52.978  1.00  0.00     0.102 C 
HETATM    2  C4  UNL     1      25.668  -0.851  53.939  1.00  0.00     0.028 C 
HETATM    3  C5  UNL     1      24.325  -0.384  54.196  1.00  0.00     0.091 A 
HETATM    4  C6  UNL     1      23.281  -1.180  54.759  1.00  0.00     0.105 A 
HETATM    5  N1  UNL     1      22.215  -0.828  54.124  1.00  0.00    -0.246 NA
HETATM    6  C7  UNL     1      22.502   0.169  53.137  1.00  0.00     0.137 A 
HETATM    7  C14 UNL     1      23.803   0.456  53.146  1.00  0.00     0.037 A 
HETATM    8  C15 UNL     1      24.515   1.280  52.186  1.00  0.00     0.116 C 
HETATM    9  C16 UNL     1      25.818   0.927  52.092  1.00  0.00     0.136 C 
HETATM   10  O2  UNL     1      26.623   1.579  51.194  1.00  0.00    -0.344 OA
HETATM   11  C17 UNL     1      26.236   2.894  50.780  1.00  0.00     0.202 C 
HETATM   12  C18 UNL     1      24.765   2.985  50.449  1.00  0.00     0.202 C 
HETATM   13  O3  UNL     1      23.989   2.295  51.444  1.00  0.00    -0.345 OA
ENDROOT
BRANCH   6  14
HETATM   14  N2  UNL     1      21.479   0.735  52.291  1.00  0.00    -0.340 N 
HETATM   15  H9  UNL     1      21.740   1.546  51.667  1.00  0.00     0.167 HD
BRANCH  14  16
HETATM   16  C8  UNL     1      20.184   0.151  52.364  1.00  0.00     0.035 A 
HETATM   17  C9  UNL     1      19.653  -0.575  53.411  1.00  0.00     0.032 A 
HETATM   18  C10 UNL     1      18.368  -1.075  53.317  1.00  0.00     0.046 A 
HETATM   19  C11 UNL     1      17.612  -0.853  52.176  1.00  0.00     0.138 A 
HETATM   20  F1  UNL     1      16.363  -1.349  52.106  1.00  0.00    -0.204 F 
HETATM   21  C12 UNL     1      18.118  -0.138  51.130  1.00  0.00     0.074 A 
HETATM   22 CL1  UNL     1      17.139   0.138  49.682  1.00  0.00    -0.081 Cl
HETATM   23  C13 UNL     1      19.415   0.363  51.235  1.00  0.00     0.056 A 
ENDBRANCH  14  16
ENDBRANCH   6  14
BRANCH   1  24
HETATM   24  O1  UNL     1      27.607  -0.515  52.708  1.00  0.00    -0.349 OA
BRANCH  24  25
HETATM   25  C2  UNL     1      28.465  -0.435  53.834  1.00  0.00     0.171 C 
HETATM   26  C1  UNL     1      29.876  -0.916  53.496  1.00  0.00     0.034 C 
ENDBRANCH  24  25
ENDBRANCH   1  24
TORSDOF 4
ENDMDL
MODEL 7
REMARK VINA RESULT:      -7.5      4.498      7.556
REMARK  4 active torsions:
REMARK  status: ('A' for Active; 'I' for Inactive)
REMARK    1  A    between atoms: C2_2  and  O1_3 
REMARK    2  A    between atoms: O1_3  and  C3_4 
REMARK    3  A    between atoms: C7_9  and  N2_10 
REMARK    4  A    between atoms: N2_10  and  C8_11 
ROOT
HETATM    1  C3  UNL     1      26.259   0.629  52.902  1.00  0.00     0.102 C 
HETATM    2  C4  UNL     1      25.513  -0.080  53.757  1.00  0.00     0.028 C 
HETATM    3  C5  UNL     1      24.105   0.214  53.619  1.00  0.00     0.091 A 
HETATM    4  C6  UNL     1      23.048  -0.672  53.991  1.00  0.00     0.105 A 
HETATM    5  N1  UNL     1      22.152  -0.524  53.076  1.00  0.00    -0.246 NA
HETATM    6  C7  UNL     1      22.571   0.422  52.086  1.00  0.00     0.137 A 
HETATM    7  C14 UNL     1      23.782   0.888  52.385  1.00  0.00     0.037 A 
HETATM    8  C15 UNL     1      24.621   1.724  51.545  1.00  0.00     0.116 C 
HETATM    9  C16 UNL     1      25.934   1.550  51.818  1.00  0.00     0.136 C 
HETATM   10  O2  UNL     1      26.865   2.234  51.080  1.00  0.00    -0.344 OA
HETATM   11  C17 UNL     1      26.452   3.446  50.439  1.00  0.00     0.202 C 
HETATM   12  C18 UNL     1      25.117   3.305  49.745  1.00  0.00     0.202 C 
HETATM   13  O3  UNL     1      24.194   2.594  50.587  1.00  0.00    -0.345 OA
ENDROOT
BRANCH   6  14
HETATM   14  N2  UNL     1      21.745   0.772  50.954  1.00  0.00    -0.340 N 
HETATM   15  H9  UNL     1      21.966   0.332  50.021  1.00  0.00     0.167 HD
BRANCH  14  16
HETATM   16  C8  UNL     1      20.685   1.690  51.188  1.00  0.00     0.035 A 
HETATM   17  C9  UNL     1      20.789   3.051  51.394  1.00  0.00     0.032 A 
HETATM   18  C10 UNL     1      19.648   3.802  51.607  1.00  0.00     0.046 A 
HETATM   19  C11 UNL     1      18.401   3.196  51.615  1.00  0.00     0.138 A 
HETATM   20  F1  UNL     1      17.305   3.946  51.824  1.00  0.00    -0.204 F 
HETATM   21  C12 UNL     1      18.277   1.852  51.413  1.00  0.00     0.074 A 
HETATM   22 CL1  UNL     1      16.678   1.094  51.425  1.00  0.00    -0.081 Cl
HETATM   23  C13 UNL     1      19.433   1.103  51.199  1.00  0.00     0.056 A 
ENDBRANCH  14  16
ENDBRANCH   6  14
BRANCH   1  24
HETATM   24  O1  UNL     1      27.654   0.425  53.016  1.00  0.00    -0.349 OA
BRANCH  24  25
HETATM   25  C2  UNL     1      28.030  -0.939  53.109  1.00  0.00     0.171 C 
HETATM   26  C1  UNL     1      29.511  -1.088  53.456  1.00  0.00     0.034 C 
ENDBRANCH  24  25
ENDBRANCH   1  24
TORSDOF 4
ENDMDL
MODEL 8
REMARK VINA RESULT:      -7.3      4.321      6.103
REMARK  4 active torsions:
REMARK  status: ('A' for Active; 'I' for Inactive)
REMARK    1  A    between atoms: C2_2  and  O1_3 
REMARK    2  A    between atoms: O1_3  and  C3_4 
REMARK    3  A    between atoms: C7_9  and  N2_10 
REMARK    4  A    between atoms: N2_10  and  C8_11 
ROOT
HETATM    1  C3  UNL     1      22.865   0.037  52.801  1.00  0.00     0.102 C 
HETATM    2  C4  UNL     1      21.789   0.765  52.483  1.00  0.00     0.028 C 
HETATM    3  C5  UNL     1      22.149   2.053  51.935  1.00  0.00     0.091 A 
HETATM    4  C6  UNL     1      21.319   2.831  51.071  1.00  0.00     0.105 A 
HETATM    5  N1  UNL     1      22.128   3.352  50.213  1.00  0.00    -0.246 NA
HETATM    6  C7  UNL     1      23.479   2.941  50.455  1.00  0.00     0.137 A 
HETATM    7  C14 UNL     1      23.524   2.125  51.507  1.00  0.00     0.037 A 
HETATM    8  C15 UNL     1      24.672   1.361  51.962  1.00  0.00     0.116 C 
HETATM    9  C16 UNL     1      24.299   0.242  52.623  1.00  0.00     0.136 C 
HETATM   10  O2  UNL     1      25.265  -0.617  53.080  1.00  0.00    -0.344 OA
HETATM   11  C17 UNL     1      26.575  -0.087  53.312  1.00  0.00     0.202 C 
HETATM   12  C18 UNL     1      27.044   0.804  52.186  1.00  0.00     0.202 C 
HETATM   13  O3  UNL     1      25.983   1.683  51.775  1.00  0.00    -0.345 OA
ENDROOT
BRANCH   6  14
HETATM   14  N2  UNL     1      24.580   3.389  49.636  1.00  0.00    -0.340 N 
HETATM   15  H9  UNL     1      25.011   2.701  48.961  1.00  0.00     0.167 HD
BRANCH  14  16
HETATM   16  C8  UNL     1      25.003   4.736  49.803  1.00  0.00     0.035 A 
HETATM   17  C9  UNL     1      24.465   5.681  50.653  1.00  0.00     0.032 A 
HETATM   18  C10 UNL     1      25.003   6.954  50.691  1.00  0.00     0.046 A 
HETATM   19  C11 UNL     1      26.077   7.286  49.880  1.00  0.00     0.138 A 
HETATM   20  F1  UNL     1      26.584   8.531  49.934  1.00  0.00    -0.204 F 
HETATM   21  C12 UNL     1      26.623   6.366  49.033  1.00  0.00     0.074 A 
HETATM   22 CL1  UNL     1      27.995   6.806  48.005  1.00  0.00    -0.081 Cl
HETATM   23  C13 UNL     1      26.075   5.085  49.002  1.00  0.00     0.056 A 
ENDBRANCH  14  16
ENDBRANCH   6  14
BRANCH   1  24
HETATM   24  O1  UNL     1      22.584  -1.219  53.388  1.00  0.00    -0.349 OA
BRANCH  24  25
HETATM   25  C2  UNL     1      22.150  -1.140  54.735  1.00  0.00     0.171 C 
HETATM   26  C1  UNL     1      23.291  -1.436  55.708  1.00  0.00     0.034 C 
ENDBRANCH  24  25
ENDBRANCH   1  24
TORSDOF 4
ENDMDL
MODEL 9
REMARK VINA RESULT:      -7.2      2.505      3.916
REMARK  4 active torsions:
REMARK  status: ('A' for Active; 'I' for Inactive)
REMARK    1  A    between atoms: C2_2  and  O1_3 
REMARK    2  A    between atoms: O1_3  and  C3_4 
REMARK    3  A    between atoms: C7_9  and  N2_10 
REMARK    4  A    between atoms: N2_10  and  C8_11 
ROOT
HETATM    1  C3  UNL     1      21.444   2.980  49.183  1.00  0.00     0.102 C 
HETATM    2  C4  UNL     1      20.895   1.822  49.566  1.00  0.00     0.028 C 
HETATM    3  C5  UNL     1      21.772   1.067  50.432  1.00  0.00     0.091 A 
HETATM    4  C6  UNL     1      21.337   0.088  51.378  1.00  0.00     0.105 A 
HETATM    5  N1  UNL     1      22.101   0.255  52.404  1.00  0.00    -0.246 NA
HETATM    6  C7  UNL     1      23.030   1.324  52.193  1.00  0.00     0.137 A 
HETATM    7  C14 UNL     1      22.843   1.858  50.987  1.00  0.00     0.037 A 
HETATM    8  C15 UNL     1      23.460   3.066  50.469  1.00  0.00     0.116 C 
HETATM    9  C16 UNL     1      22.687   3.660  49.532  1.00  0.00     0.136 C 
HETATM   10  O2  UNL     1      23.104   4.841  48.972  1.00  0.00    -0.344 OA
HETATM   11  C17 UNL     1      24.507   5.130  48.990  1.00  0.00     0.202 C 
HETATM   12  C18 UNL     1      25.139   4.841  50.332  1.00  0.00     0.202 C 
HETATM   13  O3  UNL     1      24.665   3.583  50.842  1.00  0.00    -0.345 OA
ENDROOT
BRANCH   6  14
HETATM   14  N2  UNL     1      24.000   1.711  53.189  1.00  0.00    -0.340 N 
HETATM   15  H9  UNL     1      23.725   2.447  53.895  1.00  0.00     0.167 HD
BRANCH  14  16
HETATM   16  C8  UNL     1      25.266   1.064  53.144  1.00  0.00     0.035 A 
HETATM   17  C9  UNL     1      25.517  -0.260  52.845  1.00  0.00     0.032 A 
HETATM   18  C10 UNL     1      26.817  -0.729  52.846  1.00  0.00     0.046 A 
HETATM   19  C11 UNL     1      27.869   0.123  53.146  1.00  0.00     0.138 A 
HETATM   20  F1  UNL     1      29.126  -0.355  53.140  1.00  0.00    -0.204 F 
HETATM   21  C12 UNL     1      27.642   1.435  53.444  1.00  0.00     0.074 A 
HETATM   22 CL1  UNL     1      28.996   2.509  53.823  1.00  0.00    -0.081 Cl
HETATM   23  C13 UNL     1      26.327   1.898  53.440  1.00  0.00     0.056 A 
ENDBRANCH  14  16
ENDBRANCH   6  14
BRANCH   1  24
HETATM   24  O1  UNL     1      20.657   3.748  48.294  1.00  0.00    -0.349 OA
BRANCH  24  25
HETATM   25  C2  UNL     1      20.609   3.231  46.975  1.00  0.00     0.171 C 
HETATM   26  C1  UNL     1      19.870   4.179  46.030  1.00  0.00     0.034 C 
ENDBRANCH  24  25
ENDBRANCH   1  24
TORSDOF 4
ENDMDL
