MODEL 1
REMARK VINA RESULT:      -9.6      0.000      0.000
REMARK  2 active torsions:
REMARK  status: ('A' for Active; 'I' for Inactive)
REMARK    1  A    between atoms: N1_2  and  C2_3 
REMARK    2  A    between atoms: C13_17  and  O2_18 
ROOT
HETATM    1  C2  UNL     1      27.852   0.686  53.994  1.00  0.00     0.030 C 
HETATM    2  C3  UNL     1      26.786  -0.094  54.238  1.00  0.00     0.059 C 
HETATM    3  C4  UNL     1      25.394   0.224  53.797  1.00  0.00     0.070 A 
HETATM    4  N2  UNL     1      24.790  -0.745  54.492  1.00  0.00    -0.241 NA
HETATM    5  C5  UNL     1      23.472  -0.945  54.499  1.00  0.00     0.235 A 
HETATM    6  N3  UNL     1      22.633  -0.139  53.772  1.00  0.00    -0.224 NA
HETATM    7  C6  UNL     1      23.315   0.836  53.083  1.00  0.00     0.144 A 
HETATM    8  C7  UNL     1      24.705   1.167  52.975  1.00  0.00     0.027 A 
HETATM    9  C8  UNL     1      25.393   2.207  52.151  1.00  0.00     0.080 C 
HETATM   10  C9  UNL     1      26.792   1.697  51.738  1.00  0.00     0.182 C 
HETATM   11  O1  UNL     1      27.689   2.483  52.375  1.00  0.00    -0.384 OA
HETATM   12  C10 UNL     1      28.360   1.908  53.398  1.00  0.00     0.224 C 
HETATM   13  C11 UNL     1      24.795   2.609  50.879  1.00  0.00    -0.039 C 
HETATM   14  C12 UNL     1      25.742   3.225  49.888  1.00  0.00     0.047 C 
HETATM   15  C13 UNL     1      23.675   2.671  50.110  1.00  0.00     0.083 C 
HETATM   16  C15 UNL     1      22.361   2.500  50.727  1.00  0.00     0.052 C 
HETATM   17  C16 UNL     1      21.491   1.774  50.001  1.00  0.00     0.018 C 
HETATM   18  C17 UNL     1      20.862   0.611  50.737  1.00  0.00     0.018 C 
HETATM   19  C18 UNL     1      21.236   0.398  52.037  1.00  0.00     0.098 C 
HETATM   20  N4  UNL     1      22.134   1.400  52.510  1.00  0.00    -0.287 N 
HETATM   21  C19 UNL     1      21.786   2.840  52.165  1.00  0.00     0.292 C 
HETATM   22  F1  UNL     1      22.600   3.709  52.794  1.00  0.00    -0.194 F 
HETATM   23 CL1  UNL     1      20.102   3.110  52.164  1.00  0.00    -0.054 Cl
ENDROOT
BRANCH   1  24
HETATM   24  N1  UNL     1      28.997   0.026  54.582  1.00  0.00    -0.396 N 
HETATM   25  C1  UNL     1      29.798  -0.893  53.773  1.00  0.00     0.146 C 
HETATM   26  H4  UNL     1      29.203   0.244  55.583  1.00  0.00     0.159 HD
ENDBRANCH   1  24
BRANCH  15  27
HETATM   27  O2  UNL     1      23.367   2.858  48.815  1.00  0.00    -0.355 OA
HETATM   28  C14 UNL     1      22.862   3.912  48.090  1.00  0.00     0.210 C 
ENDBRANCH  15  27
TORSDOF 2
ENDMDL
MODEL 2
REMARK VINA RESULT:      -8.8      3.159      6.461
REMARK  2 active torsions:
REMARK  status: ('A' for Active; 'I' for Inactive)
REMARK    1  A    between atoms: N1_2  and  C2_3 
REMARK    2  A    between atoms: C13_17  and  O2_18 
ROOT
HETATM    1  C2  UNL     1      22.297   5.297  49.700  1.00  0.00     0.030 C 
HETATM    2  C3  UNL     1      23.507   4.877  49.296  1.00  0.00     0.059 C 
HETATM    3  C4  UNL     1      24.383   3.955  50.082  1.00  0.00     0.070 A 
HETATM    4  N2  UNL     1      25.470   4.089  49.316  1.00  0.00    -0.241 NA
HETATM    5  C5  UNL     1      26.630   3.478  49.557  1.00  0.00     0.235 A 
HETATM    6  N3  UNL     1      26.779   2.653  50.643  1.00  0.00    -0.224 NA
HETATM    7  C6  UNL     1      25.628   2.559  51.388  1.00  0.00     0.144 A 
HETATM    8  C7  UNL     1      24.325   3.142  51.254  1.00  0.00     0.027 A 
HETATM    9  C8  UNL     1      23.088   2.947  52.070  1.00  0.00     0.080 C 
HETATM   10  C9  UNL     1      21.844   3.084  51.161  1.00  0.00     0.182 C 
HETATM   11  O1  UNL     1      21.199   4.202  51.563  1.00  0.00    -0.384 OA
HETATM   12  C10 UNL     1      21.274   5.264  50.729  1.00  0.00     0.224 C 
HETATM   13  C11 UNL     1      22.876   1.663  52.734  1.00  0.00    -0.039 C 
HETATM   14  C12 UNL     1      21.448   1.343  53.077  1.00  0.00     0.047 C 
HETATM   15  C13 UNL     1      23.429   0.517  53.214  1.00  0.00     0.083 C 
HETATM   16  C15 UNL     1      24.872   0.448  53.437  1.00  0.00     0.052 C 
HETATM   17  C16 UNL     1      25.437  -0.723  53.089  1.00  0.00     0.018 C 
HETATM   18  C17 UNL     1      26.614  -0.607  52.145  1.00  0.00     0.018 C 
HETATM   19  C18 UNL     1      26.980   0.646  51.729  1.00  0.00     0.098 C 
HETATM   20  N4  UNL     1      26.200   1.667  52.347  1.00  0.00    -0.287 N 
HETATM   21  C19 UNL     1      25.960   1.528  53.842  1.00  0.00     0.292 C 
HETATM   22  F1  UNL     1      25.360   2.621  54.350  1.00  0.00    -0.194 F 
HETATM   23 CL1  UNL     1      27.304   0.853  54.646  1.00  0.00    -0.054 Cl
ENDROOT
BRANCH   1  24
HETATM   24  N1  UNL     1      21.787   6.166  48.662  1.00  0.00    -0.396 N 
HETATM   25  C1  UNL     1      22.347   6.088  47.313  1.00  0.00     0.146 C 
HETATM   26  H4  UNL     1      21.022   6.824  48.934  1.00  0.00     0.159 HD
ENDBRANCH   1  24
BRANCH  15  27
HETATM   27  O2  UNL     1      23.018  -0.708  53.584  1.00  0.00    -0.355 OA
HETATM   28  C14 UNL     1      22.505  -1.239  54.744  1.00  0.00     0.210 C 
ENDBRANCH  15  27
TORSDOF 2
ENDMDL
MODEL 3
REMARK VINA RESULT:      -8.7      2.649      4.259
REMARK  2 active torsions:
REMARK  status: ('A' for Active; 'I' for Inactive)
REMARK    1  A    between atoms: N1_2  and  C2_3 
REMARK    2  A    between atoms: C13_17  and  O2_18 
ROOT
HETATM    1  C2  UNL     1      26.247   0.920  53.953  1.00  0.00     0.030 C 
HETATM    2  C3  UNL     1      25.784   2.103  53.516  1.00  0.00     0.059 C 
HETATM    3  C4  UNL     1      24.490   2.283  52.791  1.00  0.00     0.070 A 
HETATM    4  N2  UNL     1      24.687   3.558  52.442  1.00  0.00    -0.241 NA
HETATM    5  C5  UNL     1      23.822   4.275  51.725  1.00  0.00     0.235 A 
HETATM    6  N3  UNL     1      22.643   3.727  51.290  1.00  0.00    -0.224 NA
HETATM    7  C6  UNL     1      22.501   2.417  51.680  1.00  0.00     0.144 A 
HETATM    8  C7  UNL     1      23.328   1.528  52.443  1.00  0.00     0.027 A 
HETATM    9  C8  UNL     1      23.086   0.123  52.890  1.00  0.00     0.080 C 
HETATM   10  C9  UNL     1      23.781  -0.112  54.251  1.00  0.00     0.182 C 
HETATM   11  O1  UNL     1      24.773  -1.002  54.024  1.00  0.00    -0.384 OA
HETATM   12  C10 UNL     1      26.032  -0.511  54.060  1.00  0.00     0.224 C 
HETATM   13  C11 UNL     1      21.712  -0.311  53.138  1.00  0.00    -0.039 C 
HETATM   14  C12 UNL     1      21.566  -1.495  54.053  1.00  0.00     0.047 C 
HETATM   15  C13 UNL     1      20.388  -0.104  52.910  1.00  0.00     0.083 C 
HETATM   16  C15 UNL     1      19.968   0.744  51.796  1.00  0.00     0.052 C 
HETATM   17  C16 UNL     1      18.924   1.548  52.067  1.00  0.00     0.018 C 
HETATM   18  C17 UNL     1      19.154   3.014  51.769  1.00  0.00     0.018 C 
HETATM   19  C18 UNL     1      20.378   3.383  51.277  1.00  0.00     0.098 C 
HETATM   20  N4  UNL     1      21.227   2.260  51.052  1.00  0.00    -0.287 N 
HETATM   21  C19 UNL     1      20.595   1.055  50.374  1.00  0.00     0.292 C 
HETATM   22  F1  UNL     1      21.516   0.124  50.061  1.00  0.00    -0.194 F 
HETATM   23 CL1  UNL     1      19.429   1.510  49.216  1.00  0.00    -0.054 Cl
ENDROOT
BRANCH   1  24
HETATM   24  N1  UNL     1      27.518   1.179  54.595  1.00  0.00    -0.396 N 
HETATM   25  C1  UNL     1      28.517   0.114  54.676  1.00  0.00     0.146 C 
HETATM   26  H4  UNL     1      27.664   2.140  54.979  1.00  0.00     0.159 HD
ENDBRANCH   1  24
BRANCH  15  27
HETATM   27  O2  UNL     1      19.215  -0.476  53.452  1.00  0.00    -0.355 OA
HETATM   28  C14 UNL     1      18.296  -1.460  53.171  1.00  0.00     0.210 C 
ENDBRANCH  15  27
TORSDOF 2
ENDMDL
MODEL 4
REMARK VINA RESULT:      -8.4      2.703      4.134
REMARK  2 active torsions:
REMARK  status: ('A' for Active; 'I' for Inactive)
REMARK    1  A    between atoms: N1_2  and  C2_3 
REMARK    2  A    between atoms: C13_17  and  O2_18 
ROOT
HETATM    1  C2  UNL     1      26.257   0.096  53.393  1.00  0.00     0.030 C 
HETATM    2  C3  UNL     1      26.706   1.127  52.659  1.00  0.00     0.059 C 
HETATM    3  C4  UNL     1      25.879   1.875  51.665  1.00  0.00     0.070 A 
HETATM    4  N2  UNL     1      26.882   2.580  51.132  1.00  0.00    -0.241 NA
HETATM    5  C5  UNL     1      26.731   3.450  50.134  1.00  0.00     0.235 A 
HETATM    6  N3  UNL     1      25.498   3.677  49.577  1.00  0.00    -0.224 NA
HETATM    7  C6  UNL     1      24.512   2.923  50.168  1.00  0.00     0.144 A 
HETATM    8  C7  UNL     1      24.520   1.965  51.234  1.00  0.00     0.027 A 
HETATM    9  C8  UNL     1      23.394   1.221  51.877  1.00  0.00     0.080 C 
HETATM   10  C9  UNL     1      23.718   0.985  53.370  1.00  0.00     0.182 C 
HETATM   11  O1  UNL     1      23.877  -0.349  53.520  1.00  0.00    -0.384 OA
HETATM   12  C10 UNL     1      25.144  -0.777  53.720  1.00  0.00     0.224 C 
HETATM   13  C11 UNL     1      22.071   1.841  51.916  1.00  0.00    -0.039 C 
HETATM   14  C12 UNL     1      21.150   1.325  52.986  1.00  0.00     0.047 C 
HETATM   15  C13 UNL     1      21.223   2.764  51.389  1.00  0.00     0.083 C 
HETATM   16  C15 UNL     1      21.505   3.339  50.075  1.00  0.00     0.052 C 
HETATM   17  C16 UNL     1      21.248   4.656  49.973  1.00  0.00     0.018 C 
HETATM   18  C17 UNL     1      22.400   5.493  49.461  1.00  0.00     0.018 C 
HETATM   19  C18 UNL     1      23.575   4.853  49.168  1.00  0.00     0.098 C 
HETATM   20  N4  UNL     1      23.474   3.440  49.333  1.00  0.00    -0.287 N 
HETATM   21  C19 UNL     1      22.223   2.779  48.777  1.00  0.00     0.292 C 
HETATM   22  F1  UNL     1      22.305   1.436  48.838  1.00  0.00    -0.194 F 
HETATM   23 CL1  UNL     1      21.686   3.527  47.342  1.00  0.00    -0.054 Cl
ENDROOT
BRANCH   1  24
HETATM   24  N1  UNL     1      27.360  -0.342  54.221  1.00  0.00    -0.396 N 
HETATM   25  C1  UNL     1      28.440   0.592  54.540  1.00  0.00     0.146 C 
HETATM   26  H4  UNL     1      27.330  -1.330  54.560  1.00  0.00     0.159 HD
ENDBRANCH   1  24
BRANCH  15  27
HETATM   27  O2  UNL     1      20.083   3.383  51.740  1.00  0.00    -0.355 OA
HETATM   28  C14 UNL     1      18.749   3.152  51.494  1.00  0.00     0.210 C 
ENDBRANCH  15  27
TORSDOF 2
ENDMDL
MODEL 5
REMARK VINA RESULT:      -8.3      2.901      5.762
REMARK  2 active torsions:
REMARK  status: ('A' for Active; 'I' for Inactive)
REMARK    1  A    between atoms: N1_2  and  C2_3 
REMARK    2  A    between atoms: C13_17  and  O2_18 
ROOT
HETATM    1  C2  UNL     1      19.866  -0.747  53.569  1.00  0.00     0.030 C 
HETATM    2  C3  UNL     1      19.518  -0.025  52.492  1.00  0.00     0.059 C 
HETATM    3  C4  UNL     1      20.317   1.116  51.950  1.00  0.00     0.070 A 
HETATM    4  N2  UNL     1      19.399   1.543  51.076  1.00  0.00    -0.241 NA
HETATM    5  C5  UNL     1      19.564   2.600  50.282  1.00  0.00     0.235 A 
HETATM    6  N3  UNL     1      20.721   3.336  50.319  1.00  0.00    -0.224 NA
HETATM    7  C6  UNL     1      21.621   2.847  51.236  1.00  0.00     0.144 A 
HETATM    8  C7  UNL     1      21.589   1.736  52.142  1.00  0.00     0.027 A 
HETATM    9  C8  UNL     1      22.634   1.216  53.075  1.00  0.00     0.080 C 
HETATM   10  C9  UNL     1      22.496  -0.319  53.200  1.00  0.00     0.182 C 
HETATM   11  O1  UNL     1      22.108  -0.565  54.471  1.00  0.00    -0.384 OA
HETATM   12  C10 UNL     1      20.827  -0.964  54.635  1.00  0.00     0.224 C 
HETATM   13  C11 UNL     1      24.042   1.397  52.727  1.00  0.00    -0.039 C 
HETATM   14  C12 UNL     1      24.996   0.439  53.384  1.00  0.00     0.047 C 
HETATM   15  C13 UNL     1      24.963   2.089  52.005  1.00  0.00     0.083 C 
HETATM   16  C15 UNL     1      24.605   3.382  51.424  1.00  0.00     0.052 C 
HETATM   17  C16 UNL     1      25.091   3.594  50.187  1.00  0.00     0.018 C 
HETATM   18  C17 UNL     1      24.057   3.987  49.154  1.00  0.00     0.018 C 
HETATM   19  C18 UNL     1      22.751   4.076  49.558  1.00  0.00     0.098 C 
HETATM   20  N4  UNL     1      22.604   3.846  50.958  1.00  0.00    -0.287 N 
HETATM   21  C19 UNL     1      23.609   4.533  51.868  1.00  0.00     0.292 C 
HETATM   22  F1  UNL     1      23.282   4.384  53.166  1.00  0.00    -0.194 F 
HETATM   23 CL1  UNL     1      24.060   6.069  51.282  1.00  0.00    -0.054 Cl
ENDROOT
BRANCH   1  24
HETATM   24  N1  UNL     1      18.834  -1.744  53.757  1.00  0.00    -0.396 N 
HETATM   25  C1  UNL     1      17.483  -1.490  53.257  1.00  0.00     0.146 C 
HETATM   26  H4  UNL     1      19.112  -2.621  54.253  1.00  0.00     0.159 HD
ENDBRANCH   1  24
BRANCH  15  27
HETATM   27  O2  UNL     1      26.240   1.937  51.614  1.00  0.00    -0.355 OA
HETATM   28  C14 UNL     1      27.460   2.189  52.196  1.00  0.00     0.210 C 
ENDBRANCH  15  27
TORSDOF 2
ENDMDL
MODEL 6
REMARK VINA RESULT:      -8.1      2.953      5.147
REMARK  2 active torsions:
REMARK  status: ('A' for Active; 'I' for Inactive)
REMARK    1  A    between atoms: N1_2  and  C2_3 
REMARK    2  A    between atoms: C13_17  and  O2_18 
ROOT
HETATM    1  C2  UNL     1      26.135   5.516  49.659  1.00  0.00     0.030 C 
HETATM    2  C3  UNL     1      24.940   5.926  50.114  1.00  0.00     0.059 C 
HETATM    3  C4  UNL     1      23.839   5.006  50.533  1.00  0.00     0.070 A 
HETATM    4  N2  UNL     1      22.895   5.945  50.657  1.00  0.00    -0.241 NA
HETATM    5  C5  UNL     1      21.635   5.691  51.008  1.00  0.00     0.235 A 
HETATM    6  N3  UNL     1      21.221   4.410  51.270  1.00  0.00    -0.224 NA
HETATM    7  C6  UNL     1      22.236   3.494  51.124  1.00  0.00     0.144 A 
HETATM    8  C7  UNL     1      23.618   3.614  50.763  1.00  0.00     0.027 A 
HETATM    9  C8  UNL     1      24.693   2.579  50.684  1.00  0.00     0.080 C 
HETATM   10  C9  UNL     1      26.052   3.217  51.053  1.00  0.00     0.182 C 
HETATM   11  O1  UNL     1      26.799   3.201  49.926  1.00  0.00    -0.384 OA
HETATM   12  C10 UNL     1      26.996   4.396  49.327  1.00  0.00     0.224 C 
HETATM   13  C11 UNL     1      24.619   1.418  51.568  1.00  0.00    -0.039 C 
HETATM   14  C12 UNL     1      25.924   0.717  51.822  1.00  0.00     0.047 C 
HETATM   15  C13 UNL     1      23.841   0.619  52.347  1.00  0.00     0.083 C 
HETATM   16  C15 UNL     1      22.387   0.657  52.197  1.00  0.00     0.052 C 
HETATM   17  C16 UNL     1      21.703   0.588  53.354  1.00  0.00     0.018 C 
HETATM   18  C17 UNL     1      20.692   1.695  53.563  1.00  0.00     0.018 C 
HETATM   19  C18 UNL     1      20.578   2.650  52.588  1.00  0.00     0.098 C 
HETATM   20  N4  UNL     1      21.414   2.376  51.466  1.00  0.00    -0.287 N 
HETATM   21  C19 UNL     1      21.430   0.940  50.965  1.00  0.00     0.292 C 
HETATM   22  F1  UNL     1      22.116   0.827  49.812  1.00  0.00    -0.194 F 
HETATM   23 CL1  UNL     1      19.906   0.191  51.118  1.00  0.00    -0.054 Cl
ENDROOT
BRANCH   1  24
HETATM   24  N1  UNL     1      26.903   6.707  49.367  1.00  0.00    -0.396 N 
HETATM   25  C1  UNL     1      26.454   8.002  49.879  1.00  0.00     0.146 C 
HETATM   26  H4  UNL     1      27.764   6.581  48.789  1.00  0.00     0.159 HD
ENDBRANCH   1  24
BRANCH  15  27
HETATM   27  O2  UNL     1      24.011  -0.291  53.321  1.00  0.00    -0.355 OA
HETATM   28  C14 UNL     1      24.933  -0.461  54.327  1.00  0.00     0.210 C 
ENDBRANCH  15  27
TORSDOF 2
ENDMDL
MODEL 7
REMARK VINA RESULT:      -8.1      3.293      5.387
REMARK  2 active torsions:
REMARK  status: ('A' for Active; 'I' for Inactive)
REMARK    1  A    between atoms: N1_2  and  C2_3 
REMARK    2  A    between atoms: C13_17  and  O2_18 
ROOT
HETATM    1  C2  UNL     1      20.791   0.102  53.694  1.00  0.00     0.030 C 
HETATM    2  C3  UNL     1      20.001   0.943  53.008  1.00  0.00     0.059 C 
HETATM    3  C4  UNL     1      20.480   2.196  52.347  1.00  0.00     0.070 A 
HETATM    4  N2  UNL     1      19.270   2.682  52.048  1.00  0.00    -0.241 NA
HETATM    5  C5  UNL     1      19.068   3.847  51.435  1.00  0.00     0.235 A 
HETATM    6  N3  UNL     1      20.124   4.641  51.065  1.00  0.00    -0.224 NA
HETATM    7  C6  UNL     1      21.336   4.087  51.400  1.00  0.00     0.144 A 
HETATM    8  C7  UNL     1      21.707   2.862  52.046  1.00  0.00     0.027 A 
HETATM    9  C8  UNL     1      23.056   2.283  52.326  1.00  0.00     0.080 C 
HETATM   10  C9  UNL     1      22.978   0.740  52.265  1.00  0.00     0.182 C 
HETATM   11  O1  UNL     1      23.201   0.297  53.522  1.00  0.00    -0.384 OA
HETATM   12  C10 UNL     1      22.127  -0.200  54.176  1.00  0.00     0.224 C 
HETATM   13  C11 UNL     1      24.159   2.598  51.421  1.00  0.00    -0.039 C 
HETATM   14  C12 UNL     1      25.300   1.619  51.432  1.00  0.00     0.047 C 
HETATM   15  C13 UNL     1      24.663   3.440  50.479  1.00  0.00     0.083 C 
HETATM   16  C15 UNL     1      24.090   4.775  50.321  1.00  0.00     0.052 C 
HETATM   17  C16 UNL     1      23.972   5.186  49.045  1.00  0.00     0.018 C 
HETATM   18  C17 UNL     1      22.587   5.654  48.653  1.00  0.00     0.018 C 
HETATM   19  C18 UNL     1      21.601   5.605  49.602  1.00  0.00     0.098 C 
HETATM   20  N4  UNL     1      22.096   5.174  50.869  1.00  0.00    -0.287 N 
HETATM   21  C19 UNL     1      23.408   5.789  51.330  1.00  0.00     0.292 C 
HETATM   22  F1  UNL     1      23.696   5.443  52.599  1.00  0.00    -0.194 F 
HETATM   23 CL1  UNL     1      23.558   7.417  50.845  1.00  0.00    -0.054 Cl
ENDROOT
BRANCH   1  24
HETATM   24  N1  UNL     1      19.947  -0.974  54.167  1.00  0.00    -0.396 N 
HETATM   25  C1  UNL     1      18.699  -1.276  53.466  1.00  0.00     0.146 C 
HETATM   26  H4  UNL     1      20.279  -1.496  55.009  1.00  0.00     0.159 HD
ENDBRANCH   1  24
BRANCH  15  27
HETATM   27  O2  UNL     1      25.627   3.423  49.543  1.00  0.00    -0.355 OA
HETATM   28  C14 UNL     1      26.893   3.956  49.457  1.00  0.00     0.210 C 
ENDBRANCH  15  27
TORSDOF 2
ENDMDL
MODEL 8
REMARK VINA RESULT:      -7.7      2.833      4.649
REMARK  2 active torsions:
REMARK  status: ('A' for Active; 'I' for Inactive)
REMARK    1  A    between atoms: N1_2  and  C2_3 
REMARK    2  A    between atoms: C13_17  and  O2_18 
ROOT
HETATM    1  C2  UNL     1      24.483   0.024  53.453  1.00  0.00     0.030 C 
HETATM    2  C3  UNL     1      25.107   1.078  52.904  1.00  0.00     0.059 C 
HETATM    3  C4  UNL     1      24.623   1.804  51.691  1.00  0.00     0.070 A 
HETATM    4  N2  UNL     1      25.716   2.553  51.515  1.00  0.00    -0.241 NA
HETATM    5  C5  UNL     1      25.868   3.426  50.520  1.00  0.00     0.235 A 
HETATM    6  N3  UNL     1      24.878   3.611  49.588  1.00  0.00    -0.224 NA
HETATM    7  C6  UNL     1      23.784   2.813  49.824  1.00  0.00     0.144 A 
HETATM    8  C7  UNL     1      23.478   1.846  50.838  1.00  0.00     0.027 A 
HETATM    9  C8  UNL     1      22.235   1.053  51.077  1.00  0.00     0.080 C 
HETATM   10  C9  UNL     1      22.059   0.814  52.595  1.00  0.00     0.182 C 
HETATM   11  O1  UNL     1      22.214  -0.514  52.792  1.00  0.00    -0.384 OA
HETATM   12  C10 UNL     1      23.360  -0.895  53.399  1.00  0.00     0.224 C 
HETATM   13  C11 UNL     1      20.949   1.621  50.678  1.00  0.00    -0.039 C 
HETATM   14  C12 UNL     1      19.748   1.059  51.387  1.00  0.00     0.047 C 
HETATM   15  C13 UNL     1      20.285   2.515  49.898  1.00  0.00     0.083 C 
HETATM   16  C15 UNL     1      20.959   3.114  48.748  1.00  0.00     0.052 C 
HETATM   17  C16 UNL     1      20.698   4.421  48.563  1.00  0.00     0.018 C 
HETATM   18  C17 UNL     1      21.920   5.307  48.455  1.00  0.00     0.018 C 
HETATM   19  C18 UNL     1      23.151   4.716  48.566  1.00  0.00     0.098 C 
HETATM   20  N4  UNL     1      23.057   3.299  48.694  1.00  0.00    -0.287 N 
HETATM   21  C19 UNL     1      22.085   2.595  47.760  1.00  0.00     0.292 C 
HETATM   22  F1  UNL     1      22.196   1.256  47.848  1.00  0.00    -0.194 F 
HETATM   23 CL1  UNL     1      22.020   3.337  46.225  1.00  0.00    -0.054 Cl
ENDROOT
BRANCH   1  24
HETATM   24  N1  UNL     1      25.270  -0.380  54.599  1.00  0.00    -0.396 N 
HETATM   25  C1  UNL     1      26.589   0.214  54.816  1.00  0.00     0.146 C 
HETATM   26  H4  UNL     1      24.846  -1.095  55.232  1.00  0.00     0.159 HD
ENDBRANCH   1  24
BRANCH  15  27
HETATM   27  O2  UNL     1      19.069   3.086  49.853  1.00  0.00    -0.355 OA
HETATM   28  C14 UNL     1      17.902   2.810  49.180  1.00  0.00     0.210 C 
ENDBRANCH  15  27
TORSDOF 2
ENDMDL
MODEL 9
REMARK VINA RESULT:      -7.2      3.577      5.993
REMARK  2 active torsions:
REMARK  status: ('A' for Active; 'I' for Inactive)
REMARK    1  A    between atoms: N1_2  and  C2_3 
REMARK    2  A    between atoms: C13_17  and  O2_18 
ROOT
HETATM    1  C2  UNL     1      21.648   1.543  52.310  1.00  0.00     0.030 C 
HETATM    2  C3  UNL     1      20.949   2.464  51.627  1.00  0.00     0.059 C 
HETATM    3  C4  UNL     1      21.537   3.715  51.059  1.00  0.00     0.070 A 
HETATM    4  N2  UNL     1      20.378   4.289  50.723  1.00  0.00    -0.241 NA
HETATM    5  C5  UNL     1      20.279   5.493  50.161  1.00  0.00     0.235 A 
HETATM    6  N3  UNL     1      21.399   6.237  49.888  1.00  0.00    -0.224 NA
HETATM    7  C6  UNL     1      22.556   5.592  50.258  1.00  0.00     0.144 A 
HETATM    8  C7  UNL     1      22.816   4.317  50.857  1.00  0.00     0.027 A 
HETATM    9  C8  UNL     1      24.111   3.642  51.177  1.00  0.00     0.080 C 
HETATM   10  C9  UNL     1      23.945   2.112  51.032  1.00  0.00     0.182 C 
HETATM   11  O1  UNL     1      24.071   1.595  52.274  1.00  0.00    -0.384 OA
HETATM   12  C10 UNL     1      22.935   1.135  52.844  1.00  0.00     0.224 C 
HETATM   13  C11 UNL     1      25.280   3.931  50.349  1.00  0.00    -0.039 C 
HETATM   14  C12 UNL     1      26.358   2.884  50.368  1.00  0.00     0.047 C 
HETATM   15  C13 UNL     1      25.884   4.785  49.479  1.00  0.00     0.083 C 
HETATM   16  C15 UNL     1      25.402   6.160  49.361  1.00  0.00     0.052 C 
HETATM   17  C16 UNL     1      25.379   6.639  48.104  1.00  0.00     0.018 C 
HETATM   18  C17 UNL     1      24.048   7.211  47.664  1.00  0.00     0.018 C 
HETATM   19  C18 UNL     1      23.010   7.177  48.558  1.00  0.00     0.098 C 
HETATM   20  N4  UNL     1      23.408   6.655  49.824  1.00  0.00    -0.287 N 
HETATM   21  C19 UNL     1      24.726   7.164  50.385  1.00  0.00     0.292 C 
HETATM   22  F1  UNL     1      24.923   6.739  51.647  1.00  0.00    -0.194 F 
HETATM   23 CL1  UNL     1      25.000   8.801  49.994  1.00  0.00    -0.054 Cl
ENDROOT
BRANCH   1  24
HETATM   24  N1  UNL     1      20.716   0.500  52.681  1.00  0.00    -0.396 N 
HETATM   25  C1  UNL     1      20.616   0.084  54.081  1.00  0.00     0.146 C 
HETATM   26  H4  UNL     1      20.145   0.083  51.912  1.00  0.00     0.159 HD
ENDBRANCH   1  24
BRANCH  15  27
HETATM   27  O2  UNL     1      26.896   4.754  48.595  1.00  0.00    -0.355 OA
HETATM   28  C14 UNL     1      28.177   5.255  48.583  1.00  0.00     0.210 C 
ENDBRANCH  15  27
TORSDOF 2
ENDMDL
