MODEL 1
REMARK VINA RESULT:      -9.0      0.000      0.000
REMARK  2 active torsions:
REMARK  status: ('A' for Active; 'I' for Inactive)
REMARK    1  A    between atoms: C4_5  and  N1_6 
REMARK    2  A    between atoms: N1_6  and  C5_7 
ROOT
HETATM    1  C5  UNL     1      24.257   2.210  52.909  1.00  0.00     0.240 A 
HETATM    2  N2  UNL     1      24.098   3.364  52.549  1.00  0.00    -0.006 N 
HETATM    3  C6  UNL     1      23.434   4.529  52.822  1.00  0.00     0.756 C 
HETATM    4  N3  UNL     1      23.465   5.538  52.004  1.00  0.00    -0.265 NA
HETATM    5  C7  UNL     1      24.084   5.714  50.786  1.00  0.00     0.320 C 
HETATM    6  O1  UNL     1      24.671   5.882  49.630  1.00  0.00    -0.330 OA
HETATM    7  C8  UNL     1      25.957   5.790  49.190  1.00  0.00     0.078 A 
HETATM    8  C9  UNL     1      26.464   7.043  48.884  1.00  0.00     0.037 A 
HETATM    9  C10 UNL     1      27.709   7.401  48.413  1.00  0.00     0.003 A 
HETATM   10  C11 UNL     1      28.632   6.366  48.194  1.00  0.00     0.001 A 
HETATM   11  C12 UNL     1      28.103   5.110  48.509  1.00  0.00     0.011 A 
HETATM   12  C13 UNL     1      26.869   4.718  48.980  1.00  0.00    -0.015 A 
HETATM   13  C14 UNL     1      26.773   3.266  49.152  1.00  0.00     0.122 C 
HETATM   14  S1  UNL     1      25.799   2.880  50.580  1.00  0.00    -0.097 SA
HETATM   15  C15 UNL     1      25.019   2.553  51.747  1.00  0.00     0.217 A 
ENDROOT
BRANCH   1  16
HETATM   16  N1  UNL     1      24.249   0.960  53.525  1.00  0.00    -0.335 N 
HETATM   17  H3  UNL     1      23.330   0.611  53.834  1.00  0.00     0.167 HD
BRANCH  16  18
HETATM   18  C4  UNL     1      25.627   0.535  53.527  1.00  0.00     0.035 A 
HETATM   19  C3  UNL     1      25.842  -0.718  52.915  1.00  0.00     0.032 A 
HETATM   20  C2  UNL     1      27.057  -1.326  52.793  1.00  0.00     0.046 A 
HETATM   21  C1  UNL     1      28.161  -0.673  53.301  1.00  0.00     0.138 A 
HETATM   22  F1  UNL     1      29.375  -1.273  53.180  1.00  0.00    -0.204 F 
HETATM   23  C17 UNL     1      27.975   0.557  53.906  1.00  0.00     0.074 A 
HETATM   24  C16 UNL     1      26.739   1.158  54.022  1.00  0.00     0.056 A 
HETATM   25 CL1  UNL     1      29.376   1.374  54.555  1.00  0.00    -0.081 Cl
ENDBRANCH  16  18
ENDBRANCH   1  16
TORSDOF 2
ENDMDL
MODEL 2
REMARK VINA RESULT:      -8.6      3.463      4.012
REMARK  2 active torsions:
REMARK  status: ('A' for Active; 'I' for Inactive)
REMARK    1  A    between atoms: C4_5  and  N1_6 
REMARK    2  A    between atoms: N1_6  and  C5_7 
ROOT
HETATM    1  C5  UNL     1      24.420   2.042  52.900  1.00  0.00     0.240 A 
HETATM    2  N2  UNL     1      24.190   3.186  52.546  1.00  0.00    -0.006 N 
HETATM    3  C6  UNL     1      23.455   4.305  52.824  1.00  0.00     0.756 C 
HETATM    4  N3  UNL     1      23.423   5.319  52.012  1.00  0.00    -0.265 NA
HETATM    5  C7  UNL     1      24.030   5.539  50.795  1.00  0.00     0.320 C 
HETATM    6  O1  UNL     1      24.606   5.749  49.641  1.00  0.00    -0.330 OA
HETATM    7  C8  UNL     1      25.896   5.740  49.202  1.00  0.00     0.078 A 
HETATM    8  C9  UNL     1      26.324   7.023  48.902  1.00  0.00     0.037 A 
HETATM    9  C10 UNL     1      27.544   7.461  48.433  1.00  0.00     0.003 A 
HETATM   10  C11 UNL     1      28.530   6.486  48.210  1.00  0.00     0.001 A 
HETATM   11  C12 UNL     1      28.081   5.198  48.518  1.00  0.00     0.011 A 
HETATM   12  C13 UNL     1      26.872   4.728  48.986  1.00  0.00    -0.015 A 
HETATM   13  C14 UNL     1      26.867   3.272  49.150  1.00  0.00     0.122 C 
HETATM   14  S1  UNL     1      25.919   2.818  50.576  1.00  0.00    -0.097 SA
HETATM   15  C15 UNL     1      25.160   2.437  51.740  1.00  0.00     0.217 A 
ENDROOT
BRANCH   1  16
HETATM   16  N1  UNL     1      24.490   0.791  53.510  1.00  0.00    -0.335 N 
HETATM   17  H3  UNL     1      25.415   0.510  53.867  1.00  0.00     0.167 HD
BRANCH  16  18
HETATM   18  C4  UNL     1      23.150   0.263  53.437  1.00  0.00     0.035 A 
HETATM   19  C3  UNL     1      22.847  -0.676  54.446  1.00  0.00     0.032 A 
HETATM   20  C2  UNL     1      21.647  -1.308  54.586  1.00  0.00     0.046 A 
HETATM   21  C1  UNL     1      20.650  -1.011  53.679  1.00  0.00     0.138 A 
HETATM   22  F1  UNL     1      19.451  -1.636  53.814  1.00  0.00    -0.204 F 
HETATM   23  C17 UNL     1      20.924  -0.093  52.681  1.00  0.00     0.074 A 
HETATM   24  C16 UNL     1      22.143   0.537  52.552  1.00  0.00     0.056 A 
HETATM   25 CL1  UNL     1      19.660   0.272  51.531  1.00  0.00    -0.081 Cl
ENDBRANCH  16  18
ENDBRANCH   1  16
TORSDOF 2
ENDMDL
MODEL 3
REMARK VINA RESULT:      -8.5      3.717      7.614
REMARK  2 active torsions:
REMARK  status: ('A' for Active; 'I' for Inactive)
REMARK    1  A    between atoms: C4_5  and  N1_6 
REMARK    2  A    between atoms: N1_6  and  C5_7 
ROOT
HETATM    1  C5  UNL     1      25.297   3.935  50.028  1.00  0.00     0.240 A 
HETATM    2  N2  UNL     1      25.765   3.121  50.807  1.00  0.00    -0.006 N 
HETATM    3  C6  UNL     1      26.911   2.726  51.439  1.00  0.00     0.756 C 
HETATM    4  N3  UNL     1      26.968   1.619  52.116  1.00  0.00    -0.265 NA
HETATM    5  C7  UNL     1      26.026   0.643  52.361  1.00  0.00     0.320 C 
HETATM    6  O1  UNL     1      25.134  -0.283  52.594  1.00  0.00    -0.330 OA
HETATM    7  C8  UNL     1      23.886  -0.289  53.142  1.00  0.00     0.078 A 
HETATM    8  C9  UNL     1      23.893  -0.916  54.378  1.00  0.00     0.037 A 
HETATM    9  C10 UNL     1      22.859  -1.139  55.261  1.00  0.00     0.003 A 
HETATM   10  C11 UNL     1      21.587  -0.677  54.887  1.00  0.00     0.001 A 
HETATM   11  C12 UNL     1      21.599  -0.047  53.638  1.00  0.00     0.011 A 
HETATM   12  C13 UNL     1      22.611   0.191  52.733  1.00  0.00    -0.015 A 
HETATM   13  C14 UNL     1      22.134   0.887  51.535  1.00  0.00     0.122 C 
HETATM   14  S1  UNL     1      23.356   2.035  50.964  1.00  0.00    -0.097 SA
HETATM   15  C15 UNL     1      24.338   2.981  50.498  1.00  0.00     0.217 A 
ENDROOT
BRANCH   1  16
HETATM   16  N1  UNL     1      25.030   4.966  49.129  1.00  0.00    -0.335 N 
HETATM   17  H3  UNL     1      24.045   5.083  48.849  1.00  0.00     0.167 HD
BRANCH  16  18
HETATM   18  C4  UNL     1      26.310   5.576  48.868  1.00  0.00     0.035 A 
HETATM   19  C3  UNL     1      26.311   6.982  48.986  1.00  0.00     0.032 A 
HETATM   20  C2  UNL     1      27.400   7.779  48.791  1.00  0.00     0.046 A 
HETATM   21  C1  UNL     1      28.594   7.173  48.455  1.00  0.00     0.138 A 
HETATM   22  F1  UNL     1      29.684   7.961  48.261  1.00  0.00    -0.204 F 
HETATM   23  C17 UNL     1      28.617   5.795  48.333  1.00  0.00     0.074 A 
HETATM   24  C16 UNL     1      27.506   5.003  48.533  1.00  0.00     0.056 A 
HETATM   25 CL1  UNL     1      30.129   5.034  47.899  1.00  0.00    -0.081 Cl
ENDBRANCH  16  18
ENDBRANCH   1  16
TORSDOF 2
ENDMDL
MODEL 4
REMARK VINA RESULT:      -8.5      4.031      6.206
REMARK  2 active torsions:
REMARK  status: ('A' for Active; 'I' for Inactive)
REMARK    1  A    between atoms: C4_5  and  N1_6 
REMARK    2  A    between atoms: N1_6  and  C5_7 
ROOT
HETATM    1  C5  UNL     1      24.534  -0.236  53.593  1.00  0.00     0.240 A 
HETATM    2  N2  UNL     1      24.078   0.497  52.732  1.00  0.00    -0.006 N 
HETATM    3  C6  UNL     1      24.409   1.377  51.739  1.00  0.00     0.756 C 
HETATM    4  N3  UNL     1      23.508   2.094  51.137  1.00  0.00    -0.265 NA
HETATM    5  C7  UNL     1      22.142   2.177  51.299  1.00  0.00     0.320 C 
HETATM    6  O1  UNL     1      20.846   2.256  51.451  1.00  0.00    -0.330 OA
HETATM    7  C8  UNL     1      19.823   1.358  51.403  1.00  0.00     0.078 A 
HETATM    8  C9  UNL     1      19.038   1.563  50.280  1.00  0.00     0.037 A 
HETATM    9  C10 UNL     1      17.916   0.888  49.851  1.00  0.00     0.003 A 
HETATM   10  C11 UNL     1      17.466  -0.176  50.648  1.00  0.00     0.001 A 
HETATM   11  C12 UNL     1      18.270  -0.369  51.776  1.00  0.00     0.011 A 
HETATM   12  C13 UNL     1      19.394   0.285  52.233  1.00  0.00    -0.015 A 
HETATM   13  C14 UNL     1      19.892  -0.276  53.492  1.00  0.00     0.122 C 
HETATM   14  S1  UNL     1      21.662  -0.241  53.521  1.00  0.00    -0.097 SA
HETATM   15  C15 UNL     1      23.104  -0.229  53.552  1.00  0.00     0.217 A 
ENDROOT
BRANCH   1  16
HETATM   16  N1  UNL     1      25.308  -0.980  54.482  1.00  0.00    -0.335 N 
HETATM   17  H3  UNL     1      24.795  -1.617  55.109  1.00  0.00     0.167 HD
BRANCH  16  18
HETATM   18  C4  UNL     1      26.669  -0.588  54.213  1.00  0.00     0.035 A 
HETATM   19  C3  UNL     1      27.402  -1.534  53.465  1.00  0.00     0.032 A 
HETATM   20  C2  UNL     1      28.703  -1.387  53.086  1.00  0.00     0.046 A 
HETATM   21  C1  UNL     1      29.358  -0.229  53.453  1.00  0.00     0.138 A 
HETATM   22  F1  UNL     1      30.654  -0.074  53.075  1.00  0.00    -0.204 F 
HETATM   23  C17 UNL     1      28.659   0.714  54.186  1.00  0.00     0.074 A 
HETATM   24  C16 UNL     1      27.343   0.550  54.563  1.00  0.00     0.056 A 
HETATM   25 CL1  UNL     1      29.495   2.175  54.655  1.00  0.00    -0.081 Cl
ENDBRANCH  16  18
ENDBRANCH   1  16
TORSDOF 2
ENDMDL
MODEL 5
REMARK VINA RESULT:      -8.4      5.625      7.394
REMARK  2 active torsions:
REMARK  status: ('A' for Active; 'I' for Inactive)
REMARK    1  A    between atoms: C4_5  and  N1_6 
REMARK    2  A    between atoms: N1_6  and  C5_7 
ROOT
HETATM    1  C5  UNL     1      21.269   0.116  53.666  1.00  0.00     0.240 A 
HETATM    2  N2  UNL     1      21.959   0.967  53.130  1.00  0.00    -0.006 N 
HETATM    3  C6  UNL     1      21.928   2.161  52.464  1.00  0.00     0.756 C 
HETATM    4  N3  UNL     1      22.989   2.654  51.900  1.00  0.00    -0.265 NA
HETATM    5  C7  UNL     1      24.283   2.187  51.811  1.00  0.00     0.320 C 
HETATM    6  O1  UNL     1      25.509   1.745  51.727  1.00  0.00    -0.330 OA
HETATM    7  C8  UNL     1      26.454   1.371  52.634  1.00  0.00     0.078 A 
HETATM    8  C9  UNL     1      27.490   2.291  52.675  1.00  0.00     0.037 A 
HETATM    9  C10 UNL     1      28.635   2.299  53.443  1.00  0.00     0.003 A 
HETATM   10  C11 UNL     1      28.816   1.228  54.332  1.00  0.00     0.001 A 
HETATM   11  C12 UNL     1      27.761   0.311  54.278  1.00  0.00     0.011 A 
HETATM   12  C13 UNL     1      26.607   0.272  53.525  1.00  0.00    -0.015 A 
HETATM   13  C14 UNL     1      25.795  -0.913  53.811  1.00  0.00     0.122 C 
HETATM   14  S1  UNL     1      24.072  -0.508  53.738  1.00  0.00    -0.097 SA
HETATM   15  C15 UNL     1      22.667  -0.187  53.694  1.00  0.00     0.217 A 
ENDROOT
BRANCH   1  16
HETATM   16  N1  UNL     1      20.262  -0.685  54.201  1.00  0.00    -0.335 N 
HETATM   17  H3  UNL     1      20.461  -1.116  55.115  1.00  0.00     0.167 HD
BRANCH  16  18
HETATM   18  C4  UNL     1      19.196  -0.646  53.231  1.00  0.00     0.035 A 
HETATM   19  C3  UNL     1      18.109  -1.493  53.537  1.00  0.00     0.032 A 
HETATM   20  C2  UNL     1      16.987  -1.624  52.774  1.00  0.00     0.046 A 
HETATM   21  C1  UNL     1      16.898  -0.875  51.618  1.00  0.00     0.138 A 
HETATM   22  F1  UNL     1      15.780  -0.999  50.856  1.00  0.00    -0.204 F 
HETATM   23  C17 UNL     1      17.951  -0.037  51.298  1.00  0.00     0.074 A 
HETATM   24  C16 UNL     1      19.081   0.084  52.080  1.00  0.00     0.056 A 
HETATM   25 CL1  UNL     1      17.836   0.903  49.830  1.00  0.00    -0.081 Cl
ENDBRANCH  16  18
ENDBRANCH   1  16
TORSDOF 2
ENDMDL
MODEL 6
REMARK VINA RESULT:      -8.3      3.164      3.416
REMARK  2 active torsions:
REMARK  status: ('A' for Active; 'I' for Inactive)
REMARK    1  A    between atoms: C4_5  and  N1_6 
REMARK    2  A    between atoms: N1_6  and  C5_7 
ROOT
HETATM    1  C5  UNL     1      23.928   1.173  53.038  1.00  0.00     0.240 A 
HETATM    2  N2  UNL     1      23.795   2.332  52.683  1.00  0.00    -0.006 N 
HETATM    3  C6  UNL     1      24.070   3.630  53.015  1.00  0.00     0.756 C 
HETATM    4  N3  UNL     1      23.552   4.624  52.358  1.00  0.00    -0.265 NA
HETATM    5  C7  UNL     1      22.689   4.666  51.285  1.00  0.00     0.320 C 
HETATM    6  O1  UNL     1      21.871   4.706  50.267  1.00  0.00    -0.330 OA
HETATM    7  C8  UNL     1      21.891   4.192  49.005  1.00  0.00     0.078 A 
HETATM    8  C9  UNL     1      22.057   5.196  48.065  1.00  0.00     0.037 A 
HETATM    9  C10 UNL     1      22.130   5.117  46.691  1.00  0.00     0.003 A 
HETATM   10  C11 UNL     1      22.023   3.840  46.118  1.00  0.00     0.001 A 
HETATM   11  C12 UNL     1      21.856   2.840  47.081  1.00  0.00     0.011 A 
HETATM   12  C13 UNL     1      21.778   2.884  48.456  1.00  0.00    -0.015 A 
HETATM   13  C14 UNL     1      21.587   1.557  49.046  1.00  0.00     0.122 C 
HETATM   14  S1  UNL     1      22.474   1.431  50.574  1.00  0.00    -0.097 SA
HETATM   15  C15 UNL     1      23.202   1.312  51.813  1.00  0.00     0.217 A 
ENDROOT
BRANCH   1  16
HETATM   16  N1  UNL     1      24.217  -0.037  53.667  1.00  0.00    -0.335 N 
HETATM   17  H3  UNL     1      23.410  -0.567  54.027  1.00  0.00     0.167 HD
BRANCH  16  18
HETATM   18  C4  UNL     1      25.652  -0.159  53.604  1.00  0.00     0.035 A 
HETATM   19  C3  UNL     1      26.101  -1.291  52.891  1.00  0.00     0.032 A 
HETATM   20  C2  UNL     1      27.410  -1.618  52.693  1.00  0.00     0.046 A 
HETATM   21  C1  UNL     1      28.372  -0.783  53.224  1.00  0.00     0.138 A 
HETATM   22  F1  UNL     1      29.679  -1.101  53.028  1.00  0.00    -0.204 F 
HETATM   23  C17 UNL     1      27.956   0.333  53.927  1.00  0.00     0.074 A 
HETATM   24  C16 UNL     1      26.628   0.650  54.119  1.00  0.00     0.056 A 
HETATM   25 CL1  UNL     1      29.179   1.382  54.604  1.00  0.00    -0.081 Cl
ENDBRANCH  16  18
ENDBRANCH   1  16
TORSDOF 2
ENDMDL
MODEL 7
REMARK VINA RESULT:      -8.2      2.619      3.582
REMARK  2 active torsions:
REMARK  status: ('A' for Active; 'I' for Inactive)
REMARK    1  A    between atoms: C4_5  and  N1_6 
REMARK    2  A    between atoms: N1_6  and  C5_7 
ROOT
HETATM    1  C5  UNL     1      25.069   2.413  52.849  1.00  0.00     0.240 A 
HETATM    2  N2  UNL     1      24.143   2.151  52.100  1.00  0.00    -0.006 N 
HETATM    3  C6  UNL     1      23.073   1.320  51.909  1.00  0.00     0.756 C 
HETATM    4  N3  UNL     1      22.408   1.312  50.794  1.00  0.00    -0.265 NA
HETATM    5  C7  UNL     1      22.560   2.032  49.628  1.00  0.00     0.320 C 
HETATM    6  O1  UNL     1      22.703   2.715  48.523  1.00  0.00    -0.330 OA
HETATM    7  C8  UNL     1      22.738   4.043  48.219  1.00  0.00     0.078 A 
HETATM    8  C9  UNL     1      21.600   4.419  47.524  1.00  0.00     0.037 A 
HETATM    9  C10 UNL     1      21.233   5.652  47.029  1.00  0.00     0.003 A 
HETATM   10  C11 UNL     1      22.124   6.716  47.241  1.00  0.00     0.001 A 
HETATM   11  C12 UNL     1      23.266   6.318  47.944  1.00  0.00     0.011 A 
HETATM   12  C13 UNL     1      23.662   5.099  48.450  1.00  0.00    -0.015 A 
HETATM   13  C14 UNL     1      24.967   5.168  49.113  1.00  0.00     0.122 C 
HETATM   14  S1  UNL     1      24.995   4.102  50.527  1.00  0.00    -0.097 SA
HETATM   15  C15 UNL     1      25.025   3.247  51.687  1.00  0.00     0.217 A 
ENDROOT
BRANCH   1  16
HETATM   16  N1  UNL     1      26.022   2.496  53.862  1.00  0.00    -0.335 N 
HETATM   17  H3  UNL     1      25.919   3.281  54.521  1.00  0.00     0.167 HD
BRANCH  16  18
HETATM   18  C4  UNL     1      26.902   1.375  53.641  1.00  0.00     0.035 A 
HETATM   19  C3  UNL     1      28.263   1.656  53.890  1.00  0.00     0.032 A 
HETATM   20  C2  UNL     1      29.280   0.758  53.754  1.00  0.00     0.046 A 
HETATM   21  C1  UNL     1      28.964  -0.522  53.346  1.00  0.00     0.138 A 
HETATM   22  F1  UNL     1      29.973  -1.422  53.212  1.00  0.00    -0.204 F 
HETATM   23  C17 UNL     1      27.636  -0.820  53.096  1.00  0.00     0.074 A 
HETATM   24  C16 UNL     1      26.618   0.099  53.237  1.00  0.00     0.056 A 
HETATM   25 CL1  UNL     1      27.243  -2.440  52.572  1.00  0.00    -0.081 Cl
ENDBRANCH  16  18
ENDBRANCH   1  16
TORSDOF 2
ENDMDL
MODEL 8
REMARK VINA RESULT:      -8.0      3.684      6.965
REMARK  2 active torsions:
REMARK  status: ('A' for Active; 'I' for Inactive)
REMARK    1  A    between atoms: C4_5  and  N1_6 
REMARK    2  A    between atoms: N1_6  and  C5_7 
ROOT
HETATM    1  C5  UNL     1      22.542   4.159  52.016  1.00  0.00     0.240 A 
HETATM    2  N2  UNL     1      22.484   2.941  51.983  1.00  0.00    -0.006 N 
HETATM    3  C6  UNL     1      21.720   1.879  51.588  1.00  0.00     0.756 C 
HETATM    4  N3  UNL     1      22.016   0.661  51.931  1.00  0.00    -0.265 NA
HETATM    5  C7  UNL     1      23.043   0.146  52.692  1.00  0.00     0.320 C 
HETATM    6  O1  UNL     1      24.017  -0.343  53.413  1.00  0.00    -0.330 OA
HETATM    7  C8  UNL     1      25.377  -0.281  53.349  1.00  0.00     0.078 A 
HETATM    8  C9  UNL     1      25.910  -1.509  52.991  1.00  0.00     0.037 A 
HETATM    9  C10 UNL     1      27.225  -1.883  52.814  1.00  0.00     0.003 A 
HETATM   10  C11 UNL     1      28.204  -0.898  53.021  1.00  0.00     0.001 A 
HETATM   11  C12 UNL     1      27.647   0.334  53.381  1.00  0.00     0.011 A 
HETATM   12  C13 UNL     1      26.343   0.740  53.567  1.00  0.00    -0.015 A 
HETATM   13  C14 UNL     1      26.249   2.149  53.959  1.00  0.00     0.122 C 
HETATM   14  S1  UNL     1      24.823   2.897  53.222  1.00  0.00    -0.097 SA
HETATM   15  C15 UNL     1      23.673   3.521  52.617  1.00  0.00     0.217 A 
ENDROOT
BRANCH   1  16
HETATM   16  N1  UNL     1      22.352   5.536  51.922  1.00  0.00    -0.335 N 
HETATM   17  H3  UNL     1      21.610   5.935  52.515  1.00  0.00     0.167 HD
BRANCH  16  18
HETATM   18  C4  UNL     1      23.328   5.985  50.959  1.00  0.00     0.035 A 
HETATM   19  C3  UNL     1      23.156   5.436  49.670  1.00  0.00     0.032 A 
HETATM   20  C2  UNL     1      23.949   5.712  48.596  1.00  0.00     0.046 A 
HETATM   21  C1  UNL     1      24.997   6.593  48.773  1.00  0.00     0.138 A 
HETATM   22  F1  UNL     1      25.789   6.874  47.705  1.00  0.00    -0.204 F 
HETATM   23  C17 UNL     1      25.184   7.144  50.028  1.00  0.00     0.074 A 
HETATM   24  C16 UNL     1      24.373   6.854  51.106  1.00  0.00     0.056 A 
HETATM   25 CL1  UNL     1      26.517   8.252  50.249  1.00  0.00    -0.081 Cl
ENDBRANCH  16  18
ENDBRANCH   1  16
TORSDOF 2
ENDMDL
MODEL 9
REMARK VINA RESULT:      -8.0      4.008      5.636
REMARK  2 active torsions:
REMARK  status: ('A' for Active; 'I' for Inactive)
REMARK    1  A    between atoms: C4_5  and  N1_6 
REMARK    2  A    between atoms: N1_6  and  C5_7 
ROOT
HETATM    1  C5  UNL     1      24.784   2.271  51.926  1.00  0.00     0.240 A 
HETATM    2  N2  UNL     1      23.701   1.781  52.196  1.00  0.00    -0.006 N 
HETATM    3  C6  UNL     1      22.975   1.174  53.183  1.00  0.00     0.756 C 
HETATM    4  N3  UNL     1      21.815   0.640  52.946  1.00  0.00    -0.265 NA
HETATM    5  C7  UNL     1      21.072   0.535  51.790  1.00  0.00     0.320 C 
HETATM    6  O1  UNL     1      20.367   0.436  50.694  1.00  0.00    -0.330 OA
HETATM    7  C8  UNL     1      19.877   1.330  49.790  1.00  0.00     0.078 A 
HETATM    8  C9  UNL     1      18.497   1.420  49.883  1.00  0.00     0.037 A 
HETATM    9  C10 UNL     1      17.612   2.194  49.164  1.00  0.00     0.003 A 
HETATM   10  C11 UNL     1      18.152   3.031  48.174  1.00  0.00     0.001 A 
HETATM   11  C12 UNL     1      19.544   2.926  48.095  1.00  0.00     0.011 A 
HETATM   12  C13 UNL     1      20.456   2.166  48.795  1.00  0.00    -0.015 A 
HETATM   13  C14 UNL     1      21.832   2.390  48.343  1.00  0.00     0.122 C 
HETATM   14  S1  UNL     1      22.947   2.327  49.718  1.00  0.00    -0.097 SA
HETATM   15  C15 UNL     1      23.863   2.291  50.831  1.00  0.00     0.217 A 
ENDROOT
BRANCH   1  16
HETATM   16  N1  UNL     1      26.088   2.761  51.887  1.00  0.00    -0.335 N 
HETATM   17  H3  UNL     1      26.205   3.717  51.523  1.00  0.00     0.167 HD
BRANCH  16  18
HETATM   18  C4  UNL     1      26.905   1.693  52.407  1.00  0.00     0.035 A 
HETATM   19  C3  UNL     1      28.006   2.132  53.173  1.00  0.00     0.032 A 
HETATM   20  C2  UNL     1      28.917   1.311  53.769  1.00  0.00     0.046 A 
HETATM   21  C1  UNL     1      28.755  -0.051  53.620  1.00  0.00     0.138 A 
HETATM   22  F1  UNL     1      29.658  -0.875  54.214  1.00  0.00    -0.204 F 
HETATM   23  C17 UNL     1      27.683  -0.506  52.874  1.00  0.00     0.074 A 
HETATM   24  C16 UNL     1      26.770   0.338  52.276  1.00  0.00     0.056 A 
HETATM   25 CL1  UNL     1      27.488  -2.232  52.682  1.00  0.00    -0.081 Cl
ENDBRANCH  16  18
ENDBRANCH   1  16
TORSDOF 2
ENDMDL
