MODEL 1
REMARK VINA RESULT:      -6.3      0.000      0.000
REMARK  10 active torsions:
REMARK  status: ('A' for Active; 'I' for Inactive)
REMARK    1  A    between atoms: C2_2  and  C3_3 
REMARK    2  A    between atoms: C2_2  and  C4_5 
REMARK    3  A    between atoms: C3_3  and  N1_4 
REMARK    4  A    between atoms: C4_5  and  C5_6 
REMARK    5  A    between atoms: C5_6  and  C6_8 
REMARK    6  A    between atoms: C9_11  and  N2_12 
REMARK    7  A    between atoms: N2_12  and  C10_13 
REMARK    8  A    between atoms: N2_12  and  C12_16 
REMARK    9  A    between atoms: C10_13  and  C11_14 
REMARK   10  A    between atoms: C12_16  and  C13_17 
ROOT
HETATM    1  C6  UNL     1      24.955   0.370  53.592  1.00  0.00     0.010 A 
HETATM    2  C7  UNL     1      23.766  -0.284  53.296  1.00  0.00     0.017 A 
HETATM    3  C8  UNL     1      22.750   0.408  52.725  1.00  0.00     0.030 A 
HETATM    4  C9  UNL     1      22.758   1.742  52.387  1.00  0.00     0.030 A 
HETATM    5  C14 UNL     1      23.952   2.334  52.701  1.00  0.00     0.030 A 
HETATM    6  C15 UNL     1      25.027   1.717  53.276  1.00  0.00     0.017 A 
ENDROOT
BRANCH   1   7
HETATM    7  C5  UNL     1      26.084  -0.331  54.214  1.00  0.00     0.160 C 
HETATM    8  O1  UNL     1      25.932  -0.696  55.429  1.00  0.00    -0.292 OA
BRANCH   7   9
HETATM    9  C4  UNL     1      27.284  -0.543  53.371  1.00  0.00     0.089 C 
BRANCH   9  10
HETATM   10  C2  UNL     1      28.559  -0.060  53.984  1.00  0.00     0.016 C 
HETATM   11  C1  UNL     1      29.738  -0.947  53.570  1.00  0.00     0.012 C 
BRANCH  10  12
HETATM   12  C3  UNL     1      28.933   1.333  53.504  1.00  0.00     0.271 C 
BRANCH  12  13
HETATM   13  N1  UNL     1      29.499   2.118  54.593  1.00  0.00     0.078 N 
HETATM   14  H7  UNL     1      28.875   2.881  54.880  1.00  0.00     0.312 HD
HETATM   15  H8  UNL     1      29.702   1.522  55.407  1.00  0.00     0.312 HD
ENDBRANCH  12  13
ENDBRANCH  10  12
ENDBRANCH   9  10
ENDBRANCH   7   9
ENDBRANCH   1   7
BRANCH   4  16
HETATM   16  N2  UNL     1      21.638   2.434  51.794  1.00  0.00    -0.379 N 
BRANCH  16  17
HETATM   17  C10 UNL     1      20.413   2.377  52.558  1.00  0.00     0.138 C 
BRANCH  17  18
HETATM   18  C11 UNL     1      19.201   1.891  51.809  1.00  0.00     0.134 C 
HETATM   19 CL1  UNL     1      19.234   0.081  51.750  1.00  0.00    -0.129 Cl
ENDBRANCH  17  18
ENDBRANCH  16  17
BRANCH  16  20
HETATM   20  C12 UNL     1      21.789   3.067  50.526  1.00  0.00     0.138 C 
BRANCH  20  21
HETATM   21  C13 UNL     1      22.463   2.346  49.422  1.00  0.00     0.134 C 
HETATM   22 CL2  UNL     1      21.410   0.904  49.068  1.00  0.00    -0.129 Cl
ENDBRANCH  20  21
ENDBRANCH  16  20
ENDBRANCH   4  16
TORSDOF 10
ENDMDL
MODEL 2
REMARK VINA RESULT:      -6.3      2.153      2.382
REMARK  10 active torsions:
REMARK  status: ('A' for Active; 'I' for Inactive)
REMARK    1  A    between atoms: C2_2  and  C3_3 
REMARK    2  A    between atoms: C2_2  and  C4_5 
REMARK    3  A    between atoms: C3_3  and  N1_4 
REMARK    4  A    between atoms: C4_5  and  C5_6 
REMARK    5  A    between atoms: C5_6  and  C6_8 
REMARK    6  A    between atoms: C9_11  and  N2_12 
REMARK    7  A    between atoms: N2_12  and  C10_13 
REMARK    8  A    between atoms: N2_12  and  C12_16 
REMARK    9  A    between atoms: C10_13  and  C11_14 
REMARK   10  A    between atoms: C12_16  and  C13_17 
ROOT
HETATM    1  C6  UNL     1      25.482   0.756  53.800  1.00  0.00     0.010 A 
HETATM    2  C7  UNL     1      24.436   0.271  53.026  1.00  0.00     0.017 A 
HETATM    3  C8  UNL     1      23.725   1.130  52.255  1.00  0.00     0.030 A 
HETATM    4  C9  UNL     1      23.927   2.485  52.142  1.00  0.00     0.030 A 
HETATM    5  C14 UNL     1      24.967   2.907  52.925  1.00  0.00     0.030 A 
HETATM    6  C15 UNL     1      25.737   2.116  53.732  1.00  0.00     0.017 A 
ENDROOT
BRANCH   1   7
HETATM    7  C5  UNL     1      26.281  -0.129  54.656  1.00  0.00     0.160 C 
HETATM    8  O1  UNL     1      25.635  -0.881  55.464  1.00  0.00    -0.292 OA
BRANCH   7   9
HETATM    9  C4  UNL     1      27.752  -0.061  54.497  1.00  0.00     0.089 C 
BRANCH   9  10
HETATM   10  C2  UNL     1      28.266  -0.703  53.249  1.00  0.00     0.016 C 
HETATM   11  C1  UNL     1      29.731  -1.121  53.408  1.00  0.00     0.012 C 
BRANCH  10  12
HETATM   12  C3  UNL     1      27.527  -1.991  52.922  1.00  0.00     0.271 C 
BRANCH  12  13
HETATM   13  N1  UNL     1      28.395  -3.146  53.112  1.00  0.00     0.078 N 
HETATM   14  H7  UNL     1      28.660  -3.268  54.096  1.00  0.00     0.312 HD
HETATM   15  H8  UNL     1      27.940  -4.005  52.774  1.00  0.00     0.312 HD
ENDBRANCH  12  13
ENDBRANCH  10  12
ENDBRANCH   9  10
ENDBRANCH   7   9
ENDBRANCH   1   7
BRANCH   4  16
HETATM   16  N2  UNL     1      23.126   3.357  51.315  1.00  0.00    -0.379 N 
BRANCH  16  17
HETATM   17  C10 UNL     1      22.125   4.120  52.024  1.00  0.00     0.138 C 
BRANCH  17  18
HETATM   18  C11 UNL     1      20.698   3.711  51.774  1.00  0.00     0.134 C 
HETATM   19 CL1  UNL     1      20.318   2.257  52.786  1.00  0.00    -0.129 Cl
ENDBRANCH  17  18
ENDBRANCH  16  17
BRANCH  16  20
HETATM   20  C12 UNL     1      23.334   3.381  49.905  1.00  0.00     0.138 C 
BRANCH  20  21
HETATM   21  C13 UNL     1      24.371   4.269  49.331  1.00  0.00     0.134 C 
HETATM   22 CL2  UNL     1      25.919   3.311  49.393  1.00  0.00    -0.129 Cl
ENDBRANCH  20  21
ENDBRANCH  16  20
ENDBRANCH   4  16
TORSDOF 10
ENDMDL
MODEL 3
REMARK VINA RESULT:      -6.3      2.263      3.336
REMARK  10 active torsions:
REMARK  status: ('A' for Active; 'I' for Inactive)
REMARK    1  A    between atoms: C2_2  and  C3_3 
REMARK    2  A    between atoms: C2_2  and  C4_5 
REMARK    3  A    between atoms: C3_3  and  N1_4 
REMARK    4  A    between atoms: C4_5  and  C5_6 
REMARK    5  A    between atoms: C5_6  and  C6_8 
REMARK    6  A    between atoms: C9_11  and  N2_12 
REMARK    7  A    between atoms: N2_12  and  C10_13 
REMARK    8  A    between atoms: N2_12  and  C12_16 
REMARK    9  A    between atoms: C10_13  and  C11_14 
REMARK   10  A    between atoms: C12_16  and  C13_17 
ROOT
HETATM    1  C6  UNL     1      25.463   0.766  53.713  1.00  0.00     0.010 A 
HETATM    2  C7  UNL     1      24.521   0.261  52.826  1.00  0.00     0.017 A 
HETATM    3  C8  UNL     1      23.830   1.116  52.032  1.00  0.00     0.030 A 
HETATM    4  C9  UNL     1      23.958   2.484  51.998  1.00  0.00     0.030 A 
HETATM    5  C14 UNL     1      24.897   2.926  52.891  1.00  0.00     0.030 A 
HETATM    6  C15 UNL     1      25.639   2.141  53.728  1.00  0.00     0.017 A 
ENDROOT
BRANCH   1   7
HETATM    7  C5  UNL     1      26.235  -0.114  54.598  1.00  0.00     0.160 C 
HETATM    8  O1  UNL     1      25.565  -0.853  55.397  1.00  0.00    -0.292 OA
BRANCH   7   9
HETATM    9  C4  UNL     1      27.710  -0.055  54.476  1.00  0.00     0.089 C 
BRANCH   9  10
HETATM   10  C2  UNL     1      28.249  -0.689  53.235  1.00  0.00     0.016 C 
HETATM   11  C1  UNL     1      29.738  -1.018  53.388  1.00  0.00     0.012 C 
BRANCH  10  12
HETATM   12  C3  UNL     1      27.584  -2.024  52.939  1.00  0.00     0.271 C 
BRANCH  12  13
HETATM   13  N1  UNL     1      28.515  -3.123  53.156  1.00  0.00     0.078 N 
HETATM   14  H7  UNL     1      28.808  -3.557  52.273  1.00  0.00     0.312 HD
HETATM   15  H8  UNL     1      29.348  -2.801  53.668  1.00  0.00     0.312 HD
ENDBRANCH  12  13
ENDBRANCH  10  12
ENDBRANCH   9  10
ENDBRANCH   7   9
ENDBRANCH   1   7
BRANCH   4  16
HETATM   16  N2  UNL     1      23.181   3.350  51.140  1.00  0.00    -0.379 N 
BRANCH  16  17
HETATM   17  C10 UNL     1      23.948   4.340  50.420  1.00  0.00     0.138 C 
BRANCH  17  18
HETATM   18  C11 UNL     1      24.762   3.819  49.266  1.00  0.00     0.134 C 
HETATM   19 CL1  UNL     1      26.521   3.979  49.669  1.00  0.00    -0.129 Cl
ENDBRANCH  17  18
ENDBRANCH  16  17
BRANCH  16  20
HETATM   20  C12 UNL     1      21.764   3.209  51.090  1.00  0.00     0.138 C 
BRANCH  20  21
HETATM   21  C13 UNL     1      20.950   3.545  52.280  1.00  0.00     0.134 C 
HETATM   22 CL2  UNL     1      20.388   1.948  52.952  1.00  0.00    -0.129 Cl
ENDBRANCH  20  21
ENDBRANCH  16  20
ENDBRANCH   4  16
TORSDOF 10
ENDMDL
MODEL 4
REMARK VINA RESULT:      -6.3      0.136      2.155
REMARK  10 active torsions:
REMARK  status: ('A' for Active; 'I' for Inactive)
REMARK    1  A    between atoms: C2_2  and  C3_3 
REMARK    2  A    between atoms: C2_2  and  C4_5 
REMARK    3  A    between atoms: C3_3  and  N1_4 
REMARK    4  A    between atoms: C4_5  and  C5_6 
REMARK    5  A    between atoms: C5_6  and  C6_8 
REMARK    6  A    between atoms: C9_11  and  N2_12 
REMARK    7  A    between atoms: N2_12  and  C10_13 
REMARK    8  A    between atoms: N2_12  and  C12_16 
REMARK    9  A    between atoms: C10_13  and  C11_14 
REMARK   10  A    between atoms: C12_16  and  C13_17 
ROOT
HETATM    1  C6  UNL     1      25.045   0.425  53.641  1.00  0.00     0.010 A 
HETATM    2  C7  UNL     1      25.063   1.783  53.355  1.00  0.00     0.017 A 
HETATM    3  C8  UNL     1      23.974   2.358  52.787  1.00  0.00     0.030 A 
HETATM    4  C9  UNL     1      22.801   1.727  52.448  1.00  0.00     0.030 A 
HETATM    5  C14 UNL     1      22.839   0.393  52.751  1.00  0.00     0.030 A 
HETATM    6  C15 UNL     1      23.890  -0.270  53.322  1.00  0.00     0.017 A 
ENDROOT
BRANCH   1   7
HETATM    7  C5  UNL     1      26.198  -0.249  54.251  1.00  0.00     0.160 C 
HETATM    8  O1  UNL     1      26.106  -0.531  55.493  1.00  0.00    -0.292 OA
BRANCH   7   9
HETATM    9  C4  UNL     1      27.351  -0.532  53.363  1.00  0.00     0.089 C 
BRANCH   9  10
HETATM   10  C2  UNL     1      28.674  -0.124  53.926  1.00  0.00     0.016 C 
HETATM   11  C1  UNL     1      29.794  -1.034  53.412  1.00  0.00     0.012 C 
BRANCH  10  12
HETATM   12  C3  UNL     1      29.077   1.275  53.485  1.00  0.00     0.271 C 
BRANCH  12  13
HETATM   13  N1  UNL     1      29.473   2.083  54.631  1.00  0.00     0.078 N 
HETATM   14  H7  UNL     1      29.668   3.055  54.365  1.00  0.00     0.312 HD
HETATM   15  H8  UNL     1      28.743   2.071  55.356  1.00  0.00     0.312 HD
ENDBRANCH  12  13
ENDBRANCH  10  12
ENDBRANCH   9  10
ENDBRANCH   7   9
ENDBRANCH   1   7
BRANCH   4  16
HETATM   16  N2  UNL     1      21.675   2.388  51.829  1.00  0.00    -0.379 N 
BRANCH  16  17
HETATM   17  C10 UNL     1      21.964   3.029  50.566  1.00  0.00     0.138 C 
BRANCH  17  18
HETATM   18  C11 UNL     1      22.582   2.146  49.515  1.00  0.00     0.134 C 
HETATM   19 CL1  UNL     1      21.361   0.914  48.991  1.00  0.00    -0.129 Cl
ENDBRANCH  17  18
ENDBRANCH  16  17
BRANCH  16  20
HETATM   20  C12 UNL     1      20.413   2.404  52.491  1.00  0.00     0.138 C 
BRANCH  20  21
HETATM   21  C13 UNL     1      19.209   1.908  51.787  1.00  0.00     0.134 C 
HETATM   22 CL2  UNL     1      19.359   0.093  51.785  1.00  0.00    -0.129 Cl
ENDBRANCH  20  21
ENDBRANCH  16  20
ENDBRANCH   4  16
TORSDOF 10
ENDMDL
MODEL 5
REMARK VINA RESULT:      -6.2      1.696      2.458
REMARK  10 active torsions:
REMARK  status: ('A' for Active; 'I' for Inactive)
REMARK    1  A    between atoms: C2_2  and  C3_3 
REMARK    2  A    between atoms: C2_2  and  C4_5 
REMARK    3  A    between atoms: C3_3  and  N1_4 
REMARK    4  A    between atoms: C4_5  and  C5_6 
REMARK    5  A    between atoms: C5_6  and  C6_8 
REMARK    6  A    between atoms: C9_11  and  N2_12 
REMARK    7  A    between atoms: N2_12  and  C10_13 
REMARK    8  A    between atoms: N2_12  and  C12_16 
REMARK    9  A    between atoms: C10_13  and  C11_14 
REMARK   10  A    between atoms: C12_16  and  C13_17 
ROOT
HETATM    1  C6  UNL     1      25.096   0.233  52.996  1.00  0.00     0.010 A 
HETATM    2  C7  UNL     1      25.445   1.164  52.027  1.00  0.00     0.017 A 
HETATM    3  C8  UNL     1      24.470   1.858  51.389  1.00  0.00     0.030 A 
HETATM    4  C9  UNL     1      23.115   1.744  51.599  1.00  0.00     0.030 A 
HETATM    5  C14 UNL     1      22.830   0.814  52.562  1.00  0.00     0.030 A 
HETATM    6  C15 UNL     1      23.744   0.070  53.255  1.00  0.00     0.017 A 
ENDROOT
BRANCH   1   7
HETATM    7  C5  UNL     1      26.111  -0.548  53.713  1.00  0.00     0.160 C 
HETATM    8  O1  UNL     1      25.764  -1.041  54.840  1.00  0.00    -0.292 OA
BRANCH   7   9
HETATM    9  C4  UNL     1      27.433  -0.685  53.058  1.00  0.00     0.089 C 
BRANCH   9  10
HETATM   10  C2  UNL     1      28.569  -0.111  53.840  1.00  0.00     0.016 C 
HETATM   11  C1  UNL     1      29.880  -0.834  53.518  1.00  0.00     0.012 C 
BRANCH  10  12
HETATM   12  C3  UNL     1      28.831   1.345  53.486  1.00  0.00     0.271 C 
BRANCH  12  13
HETATM   13  N1  UNL     1      29.480   2.036  54.592  1.00  0.00     0.078 N 
HETATM   14  H7  UNL     1      29.129   2.994  54.704  1.00  0.00     0.312 HD
HETATM   15  H8  UNL     1      29.347   1.521  55.473  1.00  0.00     0.312 HD
ENDBRANCH  12  13
ENDBRANCH  10  12
ENDBRANCH   9  10
ENDBRANCH   7   9
ENDBRANCH   1   7
BRANCH   4  16
HETATM   16  N2  UNL     1      22.118   2.499  50.877  1.00  0.00    -0.379 N 
BRANCH  16  17
HETATM   17  C10 UNL     1      21.078   1.704  50.263  1.00  0.00     0.138 C 
BRANCH  17  18
HETATM   18  C11 UNL     1      21.509   0.863  49.091  1.00  0.00     0.134 C 
HETATM   19 CL1  UNL     1      22.343   1.924  47.883  1.00  0.00    -0.129 Cl
ENDBRANCH  17  18
ENDBRANCH  16  17
BRANCH  16  20
HETATM   20  C12 UNL     1      22.235   3.916  50.782  1.00  0.00     0.138 C 
BRANCH  20  21
HETATM   21  C13 UNL     1      21.912   4.760  51.955  1.00  0.00     0.134 C 
HETATM   22 CL2  UNL     1      23.466   4.903  52.894  1.00  0.00    -0.129 Cl
ENDBRANCH  20  21
ENDBRANCH  16  20
ENDBRANCH   4  16
TORSDOF 10
ENDMDL
MODEL 6
REMARK VINA RESULT:      -6.2      1.627      2.285
REMARK  10 active torsions:
REMARK  status: ('A' for Active; 'I' for Inactive)
REMARK    1  A    between atoms: C2_2  and  C3_3 
REMARK    2  A    between atoms: C2_2  and  C4_5 
REMARK    3  A    between atoms: C3_3  and  N1_4 
REMARK    4  A    between atoms: C4_5  and  C5_6 
REMARK    5  A    between atoms: C5_6  and  C6_8 
REMARK    6  A    between atoms: C9_11  and  N2_12 
REMARK    7  A    between atoms: N2_12  and  C10_13 
REMARK    8  A    between atoms: N2_12  and  C12_16 
REMARK    9  A    between atoms: C10_13  and  C11_14 
REMARK   10  A    between atoms: C12_16  and  C13_17 
ROOT
HETATM    1  C6  UNL     1      24.546  -0.043  53.498  1.00  0.00     0.010 A 
HETATM    2  C7  UNL     1      23.347  -0.556  53.974  1.00  0.00     0.017 A 
HETATM    3  C8  UNL     1      22.177  -0.100  53.461  1.00  0.00     0.030 A 
HETATM    4  C9  UNL     1      22.032   0.853  52.480  1.00  0.00     0.030 A 
HETATM    5  C14 UNL     1      23.243   1.322  52.049  1.00  0.00     0.030 A 
HETATM    6  C15 UNL     1      24.468   0.923  52.507  1.00  0.00     0.017 A 
ENDROOT
BRANCH   1   7
HETATM    7  C5  UNL     1      25.839  -0.498  54.022  1.00  0.00     0.160 C 
HETATM    8  O1  UNL     1      25.830  -1.042  55.178  1.00  0.00    -0.292 OA
BRANCH   7   9
HETATM    9  C4  UNL     1      27.023  -0.280  53.157  1.00  0.00     0.089 C 
BRANCH   9  10
HETATM   10  C2  UNL     1      28.246   0.164  53.891  1.00  0.00     0.016 C 
HETATM   11  C1  UNL     1      29.430  -0.763  53.599  1.00  0.00     0.012 C 
BRANCH  10  12
HETATM   12  C3  UNL     1      28.713   1.542  53.446  1.00  0.00     0.271 C 
BRANCH  12  13
HETATM   13  N1  UNL     1      27.817   2.576  53.946  1.00  0.00     0.078 N 
HETATM   14  H7  UNL     1      26.980   2.674  53.359  1.00  0.00     0.312 HD
HETATM   15  H8  UNL     1      27.529   2.375  54.913  1.00  0.00     0.312 HD
ENDBRANCH  12  13
ENDBRANCH  10  12
ENDBRANCH   9  10
ENDBRANCH   7   9
ENDBRANCH   1   7
BRANCH   4  16
HETATM   16  N2  UNL     1      20.757   1.313  51.981  1.00  0.00    -0.379 N 
BRANCH  16  17
HETATM   17  C10 UNL     1      20.299   2.563  52.543  1.00  0.00     0.138 C 
BRANCH  17  18
HETATM   18  C11 UNL     1      20.413   3.763  51.641  1.00  0.00     0.134 C 
HETATM   19 CL1  UNL     1      21.881   4.713  52.110  1.00  0.00    -0.129 Cl
ENDBRANCH  17  18
ENDBRANCH  16  17
BRANCH  16  20
HETATM   20  C12 UNL     1      20.039   0.522  51.038  1.00  0.00     0.138 C 
BRANCH  20  21
HETATM   21  C13 UNL     1      18.607   0.226  51.267  1.00  0.00     0.134 C 
HETATM   22 CL2  UNL     1      18.557  -0.788  52.779  1.00  0.00    -0.129 Cl
ENDBRANCH  20  21
ENDBRANCH  16  20
ENDBRANCH   4  16
TORSDOF 10
ENDMDL
MODEL 7
REMARK VINA RESULT:      -6.0      1.604      2.427
REMARK  10 active torsions:
REMARK  status: ('A' for Active; 'I' for Inactive)
REMARK    1  A    between atoms: C2_2  and  C3_3 
REMARK    2  A    between atoms: C2_2  and  C4_5 
REMARK    3  A    between atoms: C3_3  and  N1_4 
REMARK    4  A    between atoms: C4_5  and  C5_6 
REMARK    5  A    between atoms: C5_6  and  C6_8 
REMARK    6  A    between atoms: C9_11  and  N2_12 
REMARK    7  A    between atoms: N2_12  and  C10_13 
REMARK    8  A    between atoms: N2_12  and  C12_16 
REMARK    9  A    between atoms: C10_13  and  C11_14 
REMARK   10  A    between atoms: C12_16  and  C13_17 
ROOT
HETATM    1  C6  UNL     1      25.199   0.716  53.523  1.00  0.00     0.010 A 
HETATM    2  C7  UNL     1      25.415   2.085  53.436  1.00  0.00     0.017 A 
HETATM    3  C8  UNL     1      24.446   2.880  52.920  1.00  0.00     0.030 A 
HETATM    4  C9  UNL     1      23.217   2.473  52.455  1.00  0.00     0.030 A 
HETATM    5  C14 UNL     1      23.059   1.118  52.565  1.00  0.00     0.030 A 
HETATM    6  C15 UNL     1      23.979   0.242  53.070  1.00  0.00     0.017 A 
ENDROOT
BRANCH   1   7
HETATM    7  C5  UNL     1      26.217  -0.190  54.068  1.00  0.00     0.160 C 
HETATM    8  O1  UNL     1      25.897  -0.848  55.116  1.00  0.00    -0.292 OA
BRANCH   7   9
HETATM    9  C4  UNL     1      27.511  -0.250  53.348  1.00  0.00     0.089 C 
BRANCH   9  10
HETATM   10  C2  UNL     1      28.711  -0.239  54.238  1.00  0.00     0.016 C 
HETATM   11  C1  UNL     1      29.943  -0.781  53.507  1.00  0.00     0.012 C 
BRANCH  10  12
HETATM   12  C3  UNL     1      29.098   1.170  54.660  1.00  0.00     0.271 C 
BRANCH  12  13
HETATM   13  N1  UNL     1      29.063   2.077  53.520  1.00  0.00     0.078 N 
HETATM   14  H7  UNL     1      28.313   2.772  53.606  1.00  0.00     0.312 HD
HETATM   15  H8  UNL     1      29.964   2.564  53.413  1.00  0.00     0.312 HD
ENDBRANCH  12  13
ENDBRANCH  10  12
ENDBRANCH   9  10
ENDBRANCH   7   9
ENDBRANCH   1   7
BRANCH   4  16
HETATM   16  N2  UNL     1      22.225   3.365  51.900  1.00  0.00    -0.379 N 
BRANCH  16  17
HETATM   17  C10 UNL     1      22.316   4.734  52.353  1.00  0.00     0.138 C 
BRANCH  17  18
HETATM   18  C11 UNL     1      22.482   5.768  51.272  1.00  0.00     0.134 C 
HETATM   19 CL1  UNL     1      23.965   5.376  50.309  1.00  0.00    -0.129 Cl
ENDBRANCH  17  18
ENDBRANCH  16  17
BRANCH  16  20
HETATM   20  C12 UNL     1      21.235   2.856  51.011  1.00  0.00     0.138 C 
BRANCH  20  21
HETATM   21  C13 UNL     1      21.563   2.664  49.579  1.00  0.00     0.134 C 
HETATM   22 CL2  UNL     1      21.448   0.869  49.291  1.00  0.00    -0.129 Cl
ENDBRANCH  20  21
ENDBRANCH  16  20
ENDBRANCH   4  16
TORSDOF 10
ENDMDL
MODEL 8
REMARK VINA RESULT:      -5.9      1.795      2.104
REMARK  10 active torsions:
REMARK  status: ('A' for Active; 'I' for Inactive)
REMARK    1  A    between atoms: C2_2  and  C3_3 
REMARK    2  A    between atoms: C2_2  and  C4_5 
REMARK    3  A    between atoms: C3_3  and  N1_4 
REMARK    4  A    between atoms: C4_5  and  C5_6 
REMARK    5  A    between atoms: C5_6  and  C6_8 
REMARK    6  A    between atoms: C9_11  and  N2_12 
REMARK    7  A    between atoms: N2_12  and  C10_13 
REMARK    8  A    between atoms: N2_12  and  C12_16 
REMARK    9  A    between atoms: C10_13  and  C11_14 
REMARK   10  A    between atoms: C12_16  and  C13_17 
ROOT
HETATM    1  C6  UNL     1      25.321   0.703  53.490  1.00  0.00     0.010 A 
HETATM    2  C7  UNL     1      25.458   2.083  53.559  1.00  0.00     0.017 A 
HETATM    3  C8  UNL     1      24.586   2.873  52.886  1.00  0.00     0.030 A 
HETATM    4  C9  UNL     1      23.533   2.450  52.109  1.00  0.00     0.030 A 
HETATM    5  C14 UNL     1      23.446   1.085  52.077  1.00  0.00     0.030 A 
HETATM    6  C15 UNL     1      24.277   0.212  52.722  1.00  0.00     0.017 A 
ENDROOT
BRANCH   1   7
HETATM    7  C5  UNL     1      26.241  -0.198  54.195  1.00  0.00     0.160 C 
HETATM    8  O1  UNL     1      25.900  -0.557  55.373  1.00  0.00    -0.292 OA
BRANCH   7   9
HETATM    9  C4  UNL     1      27.469  -0.598  53.470  1.00  0.00     0.089 C 
BRANCH   9  10
HETATM   10  C2  UNL     1      28.733  -0.064  54.061  1.00  0.00     0.016 C 
HETATM   11  C1  UNL     1      29.939  -0.906  53.632  1.00  0.00     0.012 C 
BRANCH  10  12
HETATM   12  C3  UNL     1      29.046   1.342  53.572  1.00  0.00     0.271 C 
BRANCH  12  13
HETATM   13  N1  UNL     1      29.597   2.151  54.650  1.00  0.00     0.078 N 
HETATM   14  H7  UNL     1      29.741   1.603  55.506  1.00  0.00     0.312 HD
HETATM   15  H8  UNL     1      30.491   2.577  54.368  1.00  0.00     0.312 HD
ENDBRANCH  12  13
ENDBRANCH  10  12
ENDBRANCH   9  10
ENDBRANCH   7   9
ENDBRANCH   1   7
BRANCH   4  16
HETATM   16  N2  UNL     1      22.642   3.339  51.399  1.00  0.00    -0.379 N 
BRANCH  16  17
HETATM   17  C10 UNL     1      21.637   3.976  52.219  1.00  0.00     0.138 C 
BRANCH  17  18
HETATM   18  C11 UNL     1      20.346   3.216  52.374  1.00  0.00     0.134 C 
HETATM   19 CL1  UNL     1      19.103   3.940  51.273  1.00  0.00    -0.129 Cl
ENDBRANCH  17  18
ENDBRANCH  16  17
BRANCH  16  20
HETATM   20  C12 UNL     1      22.774   3.495  49.989  1.00  0.00     0.138 C 
BRANCH  20  21
HETATM   21  C13 UNL     1      24.034   4.032  49.425  1.00  0.00     0.134 C 
HETATM   22 CL2  UNL     1      24.395   5.536  50.387  1.00  0.00    -0.129 Cl
ENDBRANCH  20  21
ENDBRANCH  16  20
ENDBRANCH   4  16
TORSDOF 10
ENDMDL
MODEL 9
REMARK VINA RESULT:      -5.9      1.718      2.033
REMARK  10 active torsions:
REMARK  status: ('A' for Active; 'I' for Inactive)
REMARK    1  A    between atoms: C2_2  and  C3_3 
REMARK    2  A    between atoms: C2_2  and  C4_5 
REMARK    3  A    between atoms: C3_3  and  N1_4 
REMARK    4  A    between atoms: C4_5  and  C5_6 
REMARK    5  A    between atoms: C5_6  and  C6_8 
REMARK    6  A    between atoms: C9_11  and  N2_12 
REMARK    7  A    between atoms: N2_12  and  C10_13 
REMARK    8  A    between atoms: N2_12  and  C12_16 
REMARK    9  A    between atoms: C10_13  and  C11_14 
REMARK   10  A    between atoms: C12_16  and  C13_17 
ROOT
HETATM    1  C6  UNL     1      25.278   0.311  53.128  1.00  0.00     0.010 A 
HETATM    2  C7  UNL     1      23.932  -0.005  53.257  1.00  0.00     0.017 A 
HETATM    3  C8  UNL     1      23.030   0.577  52.429  1.00  0.00     0.030 A 
HETATM    4  C9  UNL     1      23.303   1.483  51.430  1.00  0.00     0.030 A 
HETATM    5  C14 UNL     1      24.641   1.756  51.349  1.00  0.00     0.030 A 
HETATM    6  C15 UNL     1      25.619   1.219  52.138  1.00  0.00     0.017 A 
ENDROOT
BRANCH   1   7
HETATM    7  C5  UNL     1      26.295  -0.286  54.001  1.00  0.00     0.160 C 
HETATM    8  O1  UNL     1      26.011  -0.360  55.245  1.00  0.00    -0.292 OA
BRANCH   7   9
HETATM    9  C4  UNL     1      27.547  -0.741  53.352  1.00  0.00     0.089 C 
BRANCH   9  10
HETATM   10  C2  UNL     1      28.795  -0.245  54.008  1.00  0.00     0.016 C 
HETATM   11  C1  UNL     1      29.990  -1.140  53.666  1.00  0.00     0.012 C 
BRANCH  10  12
HETATM   12  C3  UNL     1      29.190   1.138  53.513  1.00  0.00     0.271 C 
BRANCH  12  13
HETATM   13  N1  UNL     1      29.403   2.045  54.632  1.00  0.00     0.078 N 
HETATM   14  H7  UNL     1      28.992   2.970  54.459  1.00  0.00     0.312 HD
HETATM   15  H8  UNL     1      29.006   1.656  55.499  1.00  0.00     0.312 HD
ENDBRANCH  12  13
ENDBRANCH  10  12
ENDBRANCH   9  10
ENDBRANCH   7   9
ENDBRANCH   1   7
BRANCH   4  16
HETATM   16  N2  UNL     1      22.297   2.084  50.585  1.00  0.00    -0.379 N 
BRANCH  16  17
HETATM   17  C10 UNL     1      22.204   3.523  50.679  1.00  0.00     0.138 C 
BRANCH  17  18
HETATM   18  C11 UNL     1      21.753   4.061  52.011  1.00  0.00     0.134 C 
HETATM   19 CL1  UNL     1      23.185   4.745  52.884  1.00  0.00    -0.129 Cl
ENDBRANCH  17  18
ENDBRANCH  16  17
BRANCH  16  20
HETATM   20  C12 UNL     1      21.465   1.257  49.777  1.00  0.00     0.138 C 
BRANCH  20  21
HETATM   21  C13 UNL     1      20.093   1.700  49.441  1.00  0.00     0.134 C 
HETATM   22 CL2  UNL     1      20.235   2.545  47.834  1.00  0.00    -0.129 Cl
ENDBRANCH  20  21
ENDBRANCH  16  20
ENDBRANCH   4  16
TORSDOF 10
ENDMDL
