MODEL 1
REMARK VINA RESULT:      -6.3      0.000      0.000
REMARK  12 active torsions:
REMARK  status: ('A' for Active; 'I' for Inactive)
REMARK    1  A    between atoms: C3_3  and  C4_4 
REMARK    2  A    between atoms: C4_4  and  C5_5 
REMARK    3  A    between atoms: C5_5  and  C6_6 
REMARK    4  A    between atoms: C6_6  and  C7_7 
REMARK    5  A    between atoms: C7_7  and  C14_18 
REMARK    6  A    between atoms: C8_8  and  S1_9 
REMARK    7  A    between atoms: S1_9  and  C9_10 
REMARK    8  A    between atoms: C10_11  and  C11_12 
REMARK    9  A    between atoms: C11_12  and  C12_13 
REMARK   10  A    between atoms: C12_13  and  C13_14 
REMARK   11  A    between atoms: C14_18  and  C15_19 
REMARK   12  A    between atoms: C15_19  and  C16_20 
ROOT
HETATM    1  C1  UNL     1      25.485   6.342  48.748  1.00  0.00     0.036 C 
HETATM    2  C2  UNL     1      25.658   5.037  49.329  1.00  0.00    -0.031 C 
HETATM    3  C3  UNL     1      25.930   3.859  49.826  1.00  0.00    -0.005 C 
ENDROOT
BRANCH   3   4
HETATM    4  C4  UNL     1      24.617   3.429  50.359  1.00  0.00    -0.004 C 
BRANCH   4   5
HETATM    5  C5  UNL     1      23.659   2.518  50.251  1.00  0.00    -0.022 C 
BRANCH   5   6
HETATM    6  C6  UNL     1      22.416   1.789  49.871  1.00  0.00     0.061 C 
BRANCH   6   7
HETATM    7  C7  UNL     1      21.888   0.928  50.951  1.00  0.00    -0.070 C 
HETATM    8  C8  UNL     1      22.783   0.681  51.946  1.00  0.00     0.055 C 
BRANCH   8   9
HETATM    9  S1  UNL     1      22.826  -0.242  53.505  1.00  0.00    -0.074 SA
BRANCH   9  10
HETATM   10  C9  UNL     1      24.527  -0.534  53.966  1.00  0.00     0.146 A 
HETATM   11  C10 UNL     1      25.833  -0.488  53.574  1.00  0.00     0.095 A 
HETATM   12  O3  UNL     1      25.529  -0.926  54.851  1.00  0.00    -0.302 OA
BRANCH  11  13
HETATM   13  C11 UNL     1      26.940  -0.224  52.621  1.00  0.00     0.075 C 
BRANCH  13  14
HETATM   14  C12 UNL     1      28.272   0.011  53.338  1.00  0.00     0.077 C 
BRANCH  14  15
HETATM   15  C13 UNL     1      28.300   1.458  53.655  1.00  0.00     0.117 A 
HETATM   16  O1  UNL     1      28.993   1.664  54.709  1.00  0.00    -0.194 OA
HETATM   17  O2  UNL     1      28.384   2.793  54.035  1.00  0.00     0.000 OA
HETATM   18  H15 UNL     1      28.167   3.542  53.353  1.00  0.00     0.000 HD
ENDBRANCH  14  15
ENDBRANCH  13  14
ENDBRANCH  11  13
ENDBRANCH   9  10
ENDBRANCH   8   9
BRANCH   7  19
HETATM   19  C14 UNL     1      20.574   0.309  51.188  1.00  0.00     0.041 C 
BRANCH  19  20
HETATM   20  C15 UNL     1      19.474   1.310  51.072  1.00  0.00     0.075 C 
BRANCH  20  21
HETATM   21  C16 UNL     1      19.678   2.488  51.924  1.00  0.00     0.117 A 
HETATM   22  O4  UNL     1      18.730   3.335  52.080  1.00  0.00    -0.194 OA
HETATM   23  O5  UNL     1      20.059   3.519  52.755  1.00  0.00     0.000 OA
HETATM   24  H20 UNL     1      20.697   3.340  53.546  1.00  0.00     0.000 HD
ENDBRANCH  20  21
ENDBRANCH  19  20
ENDBRANCH   7  19
ENDBRANCH   6   7
ENDBRANCH   5   6
ENDBRANCH   4   5
ENDBRANCH   3   4
TORSDOF 12
ENDMDL
MODEL 2
REMARK VINA RESULT:      -6.3      2.751      5.901
REMARK  12 active torsions:
REMARK  status: ('A' for Active; 'I' for Inactive)
REMARK    1  A    between atoms: C3_3  and  C4_4 
REMARK    2  A    between atoms: C4_4  and  C5_5 
REMARK    3  A    between atoms: C5_5  and  C6_6 
REMARK    4  A    between atoms: C6_6  and  C7_7 
REMARK    5  A    between atoms: C7_7  and  C14_18 
REMARK    6  A    between atoms: C8_8  and  S1_9 
REMARK    7  A    between atoms: S1_9  and  C9_10 
REMARK    8  A    between atoms: C10_11  and  C11_12 
REMARK    9  A    between atoms: C11_12  and  C12_13 
REMARK   10  A    between atoms: C12_13  and  C13_14 
REMARK   11  A    between atoms: C14_18  and  C15_19 
REMARK   12  A    between atoms: C15_19  and  C16_20 
ROOT
HETATM    1  C1  UNL     1      29.021   1.921  53.923  1.00  0.00     0.036 C 
HETATM    2  C2  UNL     1      28.236   0.898  53.286  1.00  0.00    -0.031 C 
HETATM    3  C3  UNL     1      27.591  -0.111  52.761  1.00  0.00    -0.005 C 
ENDROOT
BRANCH   3   4
HETATM    4  C4  UNL     1      26.558   0.562  51.943  1.00  0.00    -0.004 C 
BRANCH   4   5
HETATM    5  C5  UNL     1      26.293   1.643  51.220  1.00  0.00    -0.022 C 
BRANCH   5   6
HETATM    6  C6  UNL     1      26.334   3.005  50.619  1.00  0.00     0.061 C 
BRANCH   6   7
HETATM    7  C7  UNL     1      24.994   3.581  50.380  1.00  0.00    -0.070 C 
HETATM    8  C8  UNL     1      24.148   3.469  51.440  1.00  0.00     0.055 C 
BRANCH   8   9
HETATM    9  S1  UNL     1      22.442   3.926  51.842  1.00  0.00    -0.074 SA
BRANCH   9  10
HETATM   10  C9  UNL     1      21.462   2.442  52.008  1.00  0.00     0.146 A 
HETATM   11  C10 UNL     1      21.230   1.310  52.733  1.00  0.00     0.095 A 
HETATM   12  O3  UNL     1      20.455   1.562  51.615  1.00  0.00    -0.302 OA
BRANCH  11  13
HETATM   13  C11 UNL     1      21.467   0.357  53.846  1.00  0.00     0.075 C 
BRANCH  13  14
HETATM   14  C12 UNL     1      22.621  -0.603  53.544  1.00  0.00     0.077 C 
BRANCH  14  15
HETATM   15  C13 UNL     1      22.945  -1.251  54.836  1.00  0.00     0.117 A 
HETATM   16  O1  UNL     1      21.931  -1.896  55.272  1.00  0.00    -0.194 OA
HETATM   17  O2  UNL     1      23.153  -1.894  56.051  1.00  0.00     0.000 OA
HETATM   18  H15 UNL     1      24.116  -2.075  56.385  1.00  0.00     0.000 HD
ENDBRANCH  14  15
ENDBRANCH  13  14
ENDBRANCH  11  13
ENDBRANCH   9  10
ENDBRANCH   8   9
BRANCH   7  19
HETATM   19  C14 UNL     1      24.394   4.285  49.234  1.00  0.00     0.041 C 
BRANCH  19  20
HETATM   20  C15 UNL     1      25.040   5.612  49.016  1.00  0.00     0.075 C 
BRANCH  20  21
HETATM   21  C16 UNL     1      25.073   6.441  50.227  1.00  0.00     0.117 A 
HETATM   22  O4  UNL     1      25.964   7.352  50.354  1.00  0.00    -0.194 OA
HETATM   23  O5  UNL     1      24.939   7.109  51.425  1.00  0.00     0.000 OA
HETATM   24  H20 UNL     1      24.004   7.274  51.826  1.00  0.00     0.000 HD
ENDBRANCH  20  21
ENDBRANCH  19  20
ENDBRANCH   7  19
ENDBRANCH   6   7
ENDBRANCH   5   6
ENDBRANCH   4   5
ENDBRANCH   3   4
TORSDOF 12
ENDMDL
MODEL 3
REMARK VINA RESULT:      -6.2      1.852      6.095
REMARK  12 active torsions:
REMARK  status: ('A' for Active; 'I' for Inactive)
REMARK    1  A    between atoms: C3_3  and  C4_4 
REMARK    2  A    between atoms: C4_4  and  C5_5 
REMARK    3  A    between atoms: C5_5  and  C6_6 
REMARK    4  A    between atoms: C6_6  and  C7_7 
REMARK    5  A    between atoms: C7_7  and  C14_18 
REMARK    6  A    between atoms: C8_8  and  S1_9 
REMARK    7  A    between atoms: S1_9  and  C9_10 
REMARK    8  A    between atoms: C10_11  and  C11_12 
REMARK    9  A    between atoms: C11_12  and  C12_13 
REMARK   10  A    between atoms: C12_13  and  C13_14 
REMARK   11  A    between atoms: C14_18  and  C15_19 
REMARK   12  A    between atoms: C15_19  and  C16_20 
ROOT
HETATM    1  C1  UNL     1      27.953   5.105  48.519  1.00  0.00     0.036 C 
HETATM    2  C2  UNL     1      26.647   4.865  49.073  1.00  0.00    -0.031 C 
HETATM    3  C3  UNL     1      25.421   4.737  49.508  1.00  0.00    -0.005 C 
ENDROOT
BRANCH   3   4
HETATM    4  C4  UNL     1      25.539   3.614  50.465  1.00  0.00    -0.004 C 
BRANCH   4   5
HETATM    5  C5  UNL     1      26.194   2.491  50.730  1.00  0.00    -0.022 C 
BRANCH   5   6
HETATM    6  C6  UNL     1      26.790   1.314  51.421  1.00  0.00     0.061 C 
BRANCH   6   7
HETATM    7  C7  UNL     1      26.105   0.966  52.685  1.00  0.00    -0.070 C 
HETATM    8  C8  UNL     1      24.986   0.212  52.516  1.00  0.00     0.055 C 
BRANCH   8   9
HETATM    9  S1  UNL     1      23.714  -0.543  53.562  1.00  0.00    -0.074 SA
BRANCH   9  10
HETATM   10  C9  UNL     1      22.108  -0.245  52.838  1.00  0.00     0.146 A 
HETATM   11  C10 UNL     1      21.419   0.177  51.738  1.00  0.00     0.095 A 
HETATM   12  O3  UNL     1      20.714  -0.230  52.858  1.00  0.00    -0.302 OA
BRANCH  11  13
HETATM   13  C11 UNL     1      21.289   0.695  50.354  1.00  0.00     0.075 C 
BRANCH  13  14
HETATM   14  C12 UNL     1      22.384   1.709  50.014  1.00  0.00     0.077 C 
BRANCH  14  15
HETATM   15  C13 UNL     1      21.776   3.040  50.244  1.00  0.00     0.117 A 
HETATM   16  O1  UNL     1      22.211   3.541  51.336  1.00  0.00    -0.194 OA
HETATM   17  O2  UNL     1      21.257   4.295  50.546  1.00  0.00     0.000 OA
HETATM   18  H15 UNL     1      20.817   4.868  49.805  1.00  0.00     0.000 HD
ENDBRANCH  14  15
ENDBRANCH  13  14
ENDBRANCH  11  13
ENDBRANCH   9  10
ENDBRANCH   8   9
BRANCH   7  19
HETATM   19  C14 UNL     1      26.408   1.244  54.099  1.00  0.00     0.041 C 
BRANCH  19  20
HETATM   20  C15 UNL     1      27.668   0.568  54.526  1.00  0.00     0.075 C 
BRANCH  20  21
HETATM   21  C16 UNL     1      28.843   1.445  54.454  1.00  0.00     0.117 A 
HETATM   22  O4  UNL     1      28.696   2.688  54.187  1.00  0.00    -0.194 OA
HETATM   23  O5  UNL     1      30.056   2.098  54.432  1.00  0.00     0.000 OA
HETATM   24  H20 UNL     1      30.808   1.817  55.078  1.00  0.00     0.000 HD
ENDBRANCH  20  21
ENDBRANCH  19  20
ENDBRANCH   7  19
ENDBRANCH   6   7
ENDBRANCH   5   6
ENDBRANCH   4   5
ENDBRANCH   3   4
TORSDOF 12
ENDMDL
MODEL 4
REMARK VINA RESULT:      -6.1      2.648      5.810
REMARK  12 active torsions:
REMARK  status: ('A' for Active; 'I' for Inactive)
REMARK    1  A    between atoms: C3_3  and  C4_4 
REMARK    2  A    between atoms: C4_4  and  C5_5 
REMARK    3  A    between atoms: C5_5  and  C6_6 
REMARK    4  A    between atoms: C6_6  and  C7_7 
REMARK    5  A    between atoms: C7_7  and  C14_18 
REMARK    6  A    between atoms: C8_8  and  S1_9 
REMARK    7  A    between atoms: S1_9  and  C9_10 
REMARK    8  A    between atoms: C10_11  and  C11_12 
REMARK    9  A    between atoms: C11_12  and  C12_13 
REMARK   10  A    between atoms: C12_13  and  C13_14 
REMARK   11  A    between atoms: C14_18  and  C15_19 
REMARK   12  A    between atoms: C15_19  and  C16_20 
ROOT
HETATM    1  C1  UNL     1      21.122   1.446  49.059  1.00  0.00     0.036 C 
HETATM    2  C2  UNL     1      20.435   2.003  50.194  1.00  0.00    -0.031 C 
HETATM    3  C3  UNL     1      19.718   2.443  51.194  1.00  0.00    -0.005 C 
ENDROOT
BRANCH   3   4
HETATM    4  C4  UNL     1      20.653   3.366  51.875  1.00  0.00    -0.004 C 
BRANCH   4   5
HETATM    5  C5  UNL     1      21.935   3.631  52.093  1.00  0.00    -0.022 C 
BRANCH   5   6
HETATM    6  C6  UNL     1      23.295   4.237  52.057  1.00  0.00     0.061 C 
BRANCH   6   7
HETATM    7  C7  UNL     1      24.290   3.403  51.350  1.00  0.00    -0.070 C 
HETATM    8  C8  UNL     1      24.983   2.562  52.164  1.00  0.00     0.055 C 
BRANCH   8   9
HETATM    9  S1  UNL     1      26.288   1.316  51.998  1.00  0.00    -0.074 SA
BRANCH   9  10
HETATM   10  C9  UNL     1      26.033   0.035  53.217  1.00  0.00     0.146 A 
HETATM   11  C10 UNL     1      25.131  -0.622  54.002  1.00  0.00     0.095 A 
HETATM   12  O3  UNL     1      26.465  -0.988  54.059  1.00  0.00    -0.302 OA
BRANCH  11  13
HETATM   13  C11 UNL     1      23.778  -0.908  54.539  1.00  0.00     0.075 C 
BRANCH  13  14
HETATM   14  C12 UNL     1      22.680  -0.207  53.734  1.00  0.00     0.077 C 
BRANCH  14  15
HETATM   15  C13 UNL     1      21.438  -0.963  54.018  1.00  0.00     0.117 A 
HETATM   16  O1  UNL     1      21.534  -1.561  55.143  1.00  0.00    -0.194 OA
HETATM   17  O2  UNL     1      20.316  -1.703  54.372  1.00  0.00     0.000 OA
HETATM   18  H15 UNL     1      19.406  -1.520  53.912  1.00  0.00     0.000 HD
ENDBRANCH  14  15
ENDBRANCH  13  14
ENDBRANCH  11  13
ENDBRANCH   9  10
ENDBRANCH   8   9
BRANCH   7  19
HETATM   19  C14 UNL     1      24.661   3.272  49.931  1.00  0.00     0.041 C 
BRANCH  19  20
HETATM   20  C15 UNL     1      25.129   4.573  49.371  1.00  0.00     0.075 C 
BRANCH  20  21
HETATM   21  C16 UNL     1      26.592   4.676  49.304  1.00  0.00     0.117 A 
HETATM   22  O4  UNL     1      27.310   3.618  49.356  1.00  0.00    -0.194 OA
HETATM   23  O5  UNL     1      27.934   4.978  49.225  1.00  0.00     0.000 OA
HETATM   24  H20 UNL     1      28.257   5.764  48.641  1.00  0.00     0.000 HD
ENDBRANCH  20  21
ENDBRANCH  19  20
ENDBRANCH   7  19
ENDBRANCH   6   7
ENDBRANCH   5   6
ENDBRANCH   4   5
ENDBRANCH   3   4
TORSDOF 12
ENDMDL
MODEL 5
REMARK VINA RESULT:      -6.0      3.091      5.224
REMARK  12 active torsions:
REMARK  status: ('A' for Active; 'I' for Inactive)
REMARK    1  A    between atoms: C3_3  and  C4_4 
REMARK    2  A    between atoms: C4_4  and  C5_5 
REMARK    3  A    between atoms: C5_5  and  C6_6 
REMARK    4  A    between atoms: C6_6  and  C7_7 
REMARK    5  A    between atoms: C7_7  and  C14_18 
REMARK    6  A    between atoms: C8_8  and  S1_9 
REMARK    7  A    between atoms: S1_9  and  C9_10 
REMARK    8  A    between atoms: C10_11  and  C11_12 
REMARK    9  A    between atoms: C11_12  and  C12_13 
REMARK   10  A    between atoms: C12_13  and  C13_14 
REMARK   11  A    between atoms: C14_18  and  C15_19 
REMARK   12  A    between atoms: C15_19  and  C16_20 
ROOT
HETATM    1  C1  UNL     1      26.514   8.340  46.133  1.00  0.00     0.036 C 
HETATM    2  C2  UNL     1      27.874   7.990  46.444  1.00  0.00    -0.031 C 
HETATM    3  C3  UNL     1      29.143   7.735  46.632  1.00  0.00    -0.005 C 
ENDROOT
BRANCH   3   4
HETATM    4  C4  UNL     1      29.120   6.891  47.848  1.00  0.00    -0.004 C 
BRANCH   4   5
HETATM    5  C5  UNL     1      28.561   5.827  48.409  1.00  0.00    -0.022 C 
BRANCH   5   6
HETATM    6  C6  UNL     1      27.726   4.620  48.667  1.00  0.00     0.061 C 
BRANCH   6   7
HETATM    7  C7  UNL     1      26.312   4.938  48.963  1.00  0.00    -0.070 C 
HETATM    8  C8  UNL     1      25.611   3.896  49.486  1.00  0.00     0.055 C 
BRANCH   8   9
HETATM    9  S1  UNL     1      23.923   3.576  50.059  1.00  0.00    -0.074 SA
BRANCH   9  10
HETATM   10  C9  UNL     1      23.984   2.892  51.709  1.00  0.00     0.146 A 
HETATM   11  C10 UNL     1      24.771   2.569  52.776  1.00  0.00     0.095 A 
HETATM   12  O3  UNL     1      23.410   2.324  52.845  1.00  0.00    -0.302 OA
BRANCH  11  13
HETATM   13  C11 UNL     1      26.054   2.465  53.513  1.00  0.00     0.075 C 
BRANCH  13  14
HETATM   14  C12 UNL     1      27.249   2.307  52.568  1.00  0.00     0.077 C 
BRANCH  14  15
HETATM   15  C13 UNL     1      28.449   2.381  53.432  1.00  0.00     0.117 A 
HETATM   16  O1  UNL     1      28.338   1.566  54.410  1.00  0.00    -0.194 OA
HETATM   17  O2  UNL     1      29.533   2.379  54.303  1.00  0.00     0.000 OA
HETATM   18  H15 UNL     1      30.443   2.769  54.001  1.00  0.00     0.000 HD
ENDBRANCH  14  15
ENDBRANCH  13  14
ENDBRANCH  11  13
ENDBRANCH   9  10
ENDBRANCH   8   9
BRANCH   7  19
HETATM   19  C14 UNL     1      25.513   6.168  48.838  1.00  0.00     0.041 C 
BRANCH  19  20
HETATM   20  C15 UNL     1      25.662   7.035  50.042  1.00  0.00     0.075 C 
BRANCH  20  21
HETATM   21  C16 UNL     1      24.399   7.239  50.763  1.00  0.00     0.117 A 
HETATM   22  O4  UNL     1      23.626   8.206  50.435  1.00  0.00    -0.194 OA
HETATM   23  O5  UNL     1      23.268   7.264  51.550  1.00  0.00     0.000 OA
HETATM   24  H20 UNL     1      22.845   6.384  51.879  1.00  0.00     0.000 HD
ENDBRANCH  20  21
ENDBRANCH  19  20
ENDBRANCH   7  19
ENDBRANCH   6   7
ENDBRANCH   5   6
ENDBRANCH   4   5
ENDBRANCH   3   4
TORSDOF 12
ENDMDL
MODEL 6
REMARK VINA RESULT:      -5.8      2.828      8.023
REMARK  12 active torsions:
REMARK  status: ('A' for Active; 'I' for Inactive)
REMARK    1  A    between atoms: C3_3  and  C4_4 
REMARK    2  A    between atoms: C4_4  and  C5_5 
REMARK    3  A    between atoms: C5_5  and  C6_6 
REMARK    4  A    between atoms: C6_6  and  C7_7 
REMARK    5  A    between atoms: C7_7  and  C14_18 
REMARK    6  A    between atoms: C8_8  and  S1_9 
REMARK    7  A    between atoms: S1_9  and  C9_10 
REMARK    8  A    between atoms: C10_11  and  C11_12 
REMARK    9  A    between atoms: C11_12  and  C12_13 
REMARK   10  A    between atoms: C12_13  and  C13_14 
REMARK   11  A    between atoms: C14_18  and  C15_19 
REMARK   12  A    between atoms: C15_19  and  C16_20 
ROOT
HETATM    1  C1  UNL     1      20.586   1.306  53.187  1.00  0.00     0.036 C 
HETATM    2  C2  UNL     1      20.921   0.136  53.955  1.00  0.00    -0.031 C 
HETATM    3  C3  UNL     1      21.118  -0.918  54.702  1.00  0.00    -0.005 C 
ENDROOT
BRANCH   3   4
HETATM    4  C4  UNL     1      22.485  -1.333  54.312  1.00  0.00    -0.004 C 
BRANCH   4   5
HETATM    5  C5  UNL     1      23.774  -1.048  54.443  1.00  0.00    -0.022 C 
BRANCH   5   6
HETATM    6  C6  UNL     1      25.085  -0.343  54.474  1.00  0.00     0.061 C 
BRANCH   6   7
HETATM    7  C7  UNL     1      25.493   0.195  53.158  1.00  0.00    -0.070 C 
HETATM    8  C8  UNL     1      24.698   1.199  52.701  1.00  0.00     0.055 C 
BRANCH   8   9
HETATM    9  S1  UNL     1      24.603   2.272  51.245  1.00  0.00    -0.074 SA
BRANCH   9  10
HETATM   10  C9  UNL     1      23.259   3.430  51.456  1.00  0.00     0.146 A 
HETATM   11  C10 UNL     1      22.051   3.864  50.993  1.00  0.00     0.095 A 
HETATM   12  O3  UNL     1      22.612   4.485  52.095  1.00  0.00    -0.302 OA
BRANCH  11  13
HETATM   13  C11 UNL     1      20.882   3.852  50.081  1.00  0.00     0.075 C 
BRANCH  13  14
HETATM   14  C12 UNL     1      19.676   4.581  50.682  1.00  0.00     0.077 C 
BRANCH  14  15
HETATM   15  C13 UNL     1      18.724   3.515  51.071  1.00  0.00     0.117 A 
HETATM   16  O1  UNL     1      17.854   3.977  51.885  1.00  0.00    -0.194 OA
HETATM   17  O2  UNL     1      17.783   2.583  51.496  1.00  0.00     0.000 OA
HETATM   18  H15 UNL     1      17.638   1.710  50.959  1.00  0.00     0.000 HD
ENDBRANCH  14  15
ENDBRANCH  13  14
ENDBRANCH  11  13
ENDBRANCH   9  10
ENDBRANCH   8   9
BRANCH   7  19
HETATM   19  C14 UNL     1      26.611  -0.115  52.251  1.00  0.00     0.041 C 
BRANCH  19  20
HETATM   20  C15 UNL     1      27.863  -0.397  53.011  1.00  0.00     0.075 C 
BRANCH  20  21
HETATM   21  C16 UNL     1      28.194  -1.826  53.062  1.00  0.00     0.117 A 
HETATM   22  O4  UNL     1      27.315  -2.698  52.734  1.00  0.00    -0.194 OA
HETATM   23  O5  UNL     1      28.693  -3.106  53.174  1.00  0.00     0.000 OA
HETATM   24  H20 UNL     1      29.682  -3.299  52.959  1.00  0.00     0.000 HD
ENDBRANCH  20  21
ENDBRANCH  19  20
ENDBRANCH   7  19
ENDBRANCH   6   7
ENDBRANCH   5   6
ENDBRANCH   4   5
ENDBRANCH   3   4
TORSDOF 12
ENDMDL
MODEL 7
REMARK VINA RESULT:      -5.8      1.580      2.023
REMARK  12 active torsions:
REMARK  status: ('A' for Active; 'I' for Inactive)
REMARK    1  A    between atoms: C3_3  and  C4_4 
REMARK    2  A    between atoms: C4_4  and  C5_5 
REMARK    3  A    between atoms: C5_5  and  C6_6 
REMARK    4  A    between atoms: C6_6  and  C7_7 
REMARK    5  A    between atoms: C7_7  and  C14_18 
REMARK    6  A    between atoms: C8_8  and  S1_9 
REMARK    7  A    between atoms: S1_9  and  C9_10 
REMARK    8  A    between atoms: C10_11  and  C11_12 
REMARK    9  A    between atoms: C11_12  and  C12_13 
REMARK   10  A    between atoms: C12_13  and  C13_14 
REMARK   11  A    between atoms: C14_18  and  C15_19 
REMARK   12  A    between atoms: C15_19  and  C16_20 
ROOT
HETATM    1  C1  UNL     1      22.217   2.727  47.930  1.00  0.00     0.036 C 
HETATM    2  C2  UNL     1      23.182   3.365  48.784  1.00  0.00    -0.031 C 
HETATM    3  C3  UNL     1      24.128   3.959  49.464  1.00  0.00    -0.005 C 
ENDROOT
BRANCH   3   4
HETATM    4  C4  UNL     1      23.576   3.963  50.838  1.00  0.00    -0.004 C 
BRANCH   4   5
HETATM    5  C5  UNL     1      22.547   3.586  51.585  1.00  0.00    -0.022 C 
BRANCH   5   6
HETATM    6  C6  UNL     1      21.416   2.818  52.177  1.00  0.00     0.061 C 
BRANCH   6   7
HETATM    7  C7  UNL     1      21.568   1.354  52.043  1.00  0.00    -0.070 C 
HETATM    8  C8  UNL     1      22.330   0.786  53.017  1.00  0.00     0.055 C 
BRANCH   8   9
HETATM    9  S1  UNL     1      22.910  -0.871  53.463  1.00  0.00    -0.074 SA
BRANCH   9  10
HETATM   10  C9  UNL     1      24.472  -0.733  54.319  1.00  0.00     0.146 A 
HETATM   11  C10 UNL     1      25.614  -0.005  54.489  1.00  0.00     0.095 A 
HETATM   12  O3  UNL     1      25.439  -1.163  55.226  1.00  0.00    -0.302 OA
BRANCH  11  13
HETATM   13  C11 UNL     1      26.532   1.130  54.226  1.00  0.00     0.075 C 
BRANCH  13  14
HETATM   14  C12 UNL     1      27.967   0.661  53.969  1.00  0.00     0.077 C 
BRANCH  14  15
HETATM   15  C13 UNL     1      28.699   1.862  53.506  1.00  0.00     0.117 A 
HETATM   16  O1  UNL     1      29.300   2.417  54.488  1.00  0.00    -0.194 OA
HETATM   17  O2  UNL     1      29.416   3.005  53.168  1.00  0.00     0.000 OA
HETATM   18  H15 UNL     1      29.675   3.183  52.181  1.00  0.00     0.000 HD
ENDBRANCH  14  15
ENDBRANCH  13  14
ENDBRANCH  11  13
ENDBRANCH   9  10
ENDBRANCH   8   9
BRANCH   7  19
HETATM   19  C14 UNL     1      21.032   0.374  51.083  1.00  0.00     0.041 C 
BRANCH  19  20
HETATM   20  C15 UNL     1      19.861   0.927  50.342  1.00  0.00     0.075 C 
BRANCH  20  21
HETATM   21  C16 UNL     1      18.603   0.817  51.091  1.00  0.00     0.117 A 
HETATM   22  O4  UNL     1      17.715   1.734  50.986  1.00  0.00    -0.194 OA
HETATM   23  O5  UNL     1      17.499   0.536  51.865  1.00  0.00     0.000 OA
HETATM   24  H20 UNL     1      17.189  -0.439  51.993  1.00  0.00     0.000 HD
ENDBRANCH  20  21
ENDBRANCH  19  20
ENDBRANCH   7  19
ENDBRANCH   6   7
ENDBRANCH   5   6
ENDBRANCH   4   5
ENDBRANCH   3   4
TORSDOF 12
ENDMDL
MODEL 8
REMARK VINA RESULT:      -5.8      3.359      7.430
REMARK  12 active torsions:
REMARK  status: ('A' for Active; 'I' for Inactive)
REMARK    1  A    between atoms: C3_3  and  C4_4 
REMARK    2  A    between atoms: C4_4  and  C5_5 
REMARK    3  A    between atoms: C5_5  and  C6_6 
REMARK    4  A    between atoms: C6_6  and  C7_7 
REMARK    5  A    between atoms: C7_7  and  C14_18 
REMARK    6  A    between atoms: C8_8  and  S1_9 
REMARK    7  A    between atoms: S1_9  and  C9_10 
REMARK    8  A    between atoms: C10_11  and  C11_12 
REMARK    9  A    between atoms: C11_12  and  C12_13 
REMARK   10  A    between atoms: C12_13  and  C13_14 
REMARK   11  A    between atoms: C14_18  and  C15_19 
REMARK   12  A    between atoms: C15_19  and  C16_20 
ROOT
HETATM    1  C1  UNL     1      19.814   2.286  50.553  1.00  0.00     0.036 C 
HETATM    2  C2  UNL     1      20.359   1.164  51.270  1.00  0.00    -0.031 C 
HETATM    3  C3  UNL     1      20.743   0.111  51.943  1.00  0.00    -0.005 C 
ENDROOT
BRANCH   3   4
HETATM    4  C4  UNL     1      22.218   0.220  51.890  1.00  0.00    -0.004 C 
BRANCH   4   5
HETATM    5  C5  UNL     1      23.274   0.802  52.444  1.00  0.00    -0.022 C 
BRANCH   5   6
HETATM    6  C6  UNL     1      24.234   1.805  52.985  1.00  0.00     0.061 C 
BRANCH   6   7
HETATM    7  C7  UNL     1      25.359   2.092  52.069  1.00  0.00    -0.070 C 
HETATM    8  C8  UNL     1      25.007   2.819  50.974  1.00  0.00     0.055 C 
BRANCH   8   9
HETATM    9  S1  UNL     1      25.821   3.504  49.508  1.00  0.00    -0.074 SA
BRANCH   9  10
HETATM   10  C9  UNL     1      25.686   5.285  49.541  1.00  0.00     0.146 A 
HETATM   11  C10 UNL     1      26.191   6.471  49.092  1.00  0.00     0.095 A 
HETATM   12  O3  UNL     1      25.105   6.484  49.950  1.00  0.00    -0.302 OA
BRANCH  11  13
HETATM   13  C11 UNL     1      27.126   7.322  48.316  1.00  0.00     0.075 C 
BRANCH  13  14
HETATM   14  C12 UNL     1      26.851   8.814  48.525  1.00  0.00     0.077 C 
BRANCH  14  15
HETATM   15  C13 UNL     1      27.272   9.104  49.914  1.00  0.00     0.117 A 
HETATM   16  O1  UNL     1      26.349   9.735  50.532  1.00  0.00    -0.194 OA
HETATM   17  O2  UNL     1      27.578   9.423  51.233  1.00  0.00     0.000 OA
HETATM   18  H15 UNL     1      28.339   8.922  51.726  1.00  0.00     0.000 HD
ENDBRANCH  14  15
ENDBRANCH  13  14
ENDBRANCH  11  13
ENDBRANCH   9  10
ENDBRANCH   8   9
BRANCH   7  19
HETATM   19  C14 UNL     1      26.797   1.781  52.119  1.00  0.00     0.041 C 
BRANCH  19  20
HETATM   20  C15 UNL     1      27.028   0.339  52.427  1.00  0.00     0.075 C 
BRANCH  20  21
HETATM   21  C16 UNL     1      27.629   0.124  53.749  1.00  0.00     0.117 A 
HETATM   22  O4  UNL     1      28.880   0.332  53.924  1.00  0.00    -0.194 OA
HETATM   23  O5  UNL     1      28.001  -0.133  55.050  1.00  0.00     0.000 OA
HETATM   24  H20 UNL     1      27.354   0.072  55.826  1.00  0.00     0.000 HD
ENDBRANCH  20  21
ENDBRANCH  19  20
ENDBRANCH   7  19
ENDBRANCH   6   7
ENDBRANCH   5   6
ENDBRANCH   4   5
ENDBRANCH   3   4
TORSDOF 12
ENDMDL
MODEL 9
REMARK VINA RESULT:      -5.7      2.764      7.353
REMARK  12 active torsions:
REMARK  status: ('A' for Active; 'I' for Inactive)
REMARK    1  A    between atoms: C3_3  and  C4_4 
REMARK    2  A    between atoms: C4_4  and  C5_5 
REMARK    3  A    between atoms: C5_5  and  C6_6 
REMARK    4  A    between atoms: C6_6  and  C7_7 
REMARK    5  A    between atoms: C7_7  and  C14_18 
REMARK    6  A    between atoms: C8_8  and  S1_9 
REMARK    7  A    between atoms: S1_9  and  C9_10 
REMARK    8  A    between atoms: C10_11  and  C11_12 
REMARK    9  A    between atoms: C11_12  and  C12_13 
REMARK   10  A    between atoms: C12_13  and  C13_14 
REMARK   11  A    between atoms: C14_18  and  C15_19 
REMARK   12  A    between atoms: C15_19  and  C16_20 
ROOT
HETATM    1  C1  UNL     1      20.829   1.567  52.988  1.00  0.00     0.036 C 
HETATM    2  C2  UNL     1      21.710   0.449  53.196  1.00  0.00    -0.031 C 
HETATM    3  C3  UNL     1      22.414  -0.630  53.416  1.00  0.00    -0.005 C 
ENDROOT
BRANCH   3   4
HETATM    4  C4  UNL     1      23.788  -0.183  53.096  1.00  0.00    -0.004 C 
BRANCH   4   5
HETATM    5  C5  UNL     1      24.870   0.406  53.589  1.00  0.00    -0.022 C 
BRANCH   5   6
HETATM    6  C6  UNL     1      25.850   1.417  54.077  1.00  0.00     0.061 C 
BRANCH   6   7
HETATM    7  C7  UNL     1      26.727   1.946  53.011  1.00  0.00    -0.070 C 
HETATM    8  C8  UNL     1      26.055   2.411  51.924  1.00  0.00     0.055 C 
BRANCH   8   9
HETATM    9  S1  UNL     1      26.458   3.161  50.325  1.00  0.00    -0.074 SA
BRANCH   9  10
HETATM   10  C9  UNL     1      24.994   3.936  49.656  1.00  0.00     0.146 A 
HETATM   11  C10 UNL     1      23.639   4.073  49.748  1.00  0.00     0.095 A 
HETATM   12  O3  UNL     1      24.321   4.770  48.765  1.00  0.00    -0.302 OA
BRANCH  11  13
HETATM   13  C11 UNL     1      22.300   3.807  50.330  1.00  0.00     0.075 C 
BRANCH  13  14
HETATM   14  C12 UNL     1      21.817   4.963  51.210  1.00  0.00     0.077 C 
BRANCH  14  15
HETATM   15  C13 UNL     1      22.885   5.167  52.216  1.00  0.00     0.117 A 
HETATM   16  O1  UNL     1      23.088   4.086  52.868  1.00  0.00    -0.194 OA
HETATM   17  O2  UNL     1      23.874   5.260  53.190  1.00  0.00     0.000 OA
HETATM   18  H15 UNL     1      24.565   6.030  53.156  1.00  0.00     0.000 HD
ENDBRANCH  14  15
ENDBRANCH  13  14
ENDBRANCH  11  13
ENDBRANCH   9  10
ENDBRANCH   8   9
BRANCH   7  19
HETATM   19  C14 UNL     1      28.187   2.104  52.901  1.00  0.00     0.041 C 
BRANCH  19  20
HETATM   20  C15 UNL     1      28.885   1.542  54.093  1.00  0.00     0.075 C 
BRANCH  20  21
HETATM   21  C16 UNL     1      29.370   0.172  53.881  1.00  0.00     0.117 A 
HETATM   22  O4  UNL     1      28.619  -0.824  54.171  1.00  0.00    -0.194 OA
HETATM   23  O5  UNL     1      29.999  -1.024  53.614  1.00  0.00     0.000 OA
HETATM   24  H20 UNL     1      30.639  -1.106  52.809  1.00  0.00     0.000 HD
ENDBRANCH  20  21
ENDBRANCH  19  20
ENDBRANCH   7  19
ENDBRANCH   6   7
ENDBRANCH   5   6
ENDBRANCH   4   5
ENDBRANCH   3   4
TORSDOF 12
ENDMDL
