MODEL 1
REMARK VINA RESULT:      -8.2      0.000      0.000
REMARK  3 active torsions:
REMARK  status: ('A' for Active; 'I' for Inactive)
REMARK    1  A    between atoms: O1_2  and  C2_3 
REMARK    2  A    between atoms: C9_10  and  C10_11 
REMARK    3  A    between atoms: C11_12  and  C12_13 
ROOT
HETATM    1  C2  UNL     1      25.389   0.107  53.423  1.00  0.00     0.074 A 
HETATM    2  C3  UNL     1      24.699  -0.822  54.171  1.00  0.00     0.038 A 
HETATM    3  C4  UNL     1      23.330  -0.773  54.326  1.00  0.00     0.020 A 
HETATM    4  C5  UNL     1      22.847   0.294  53.646  1.00  0.00     0.032 A 
HETATM    5  C6  UNL     1      23.397   1.294  52.876  1.00  0.00     0.027 A 
HETATM    6  C7  UNL     1      24.758   1.150  52.782  1.00  0.00    -0.019 A 
HETATM    7  C8  UNL     1      25.317   2.200  51.905  1.00  0.00     0.082 C 
HETATM    8  C9  UNL     1      24.444   2.514  50.733  1.00  0.00    -0.032 C 
HETATM    9  C14 UNL     1      23.334   2.319  50.046  1.00  0.00     0.141 C 
HETATM   10  O2  UNL     1      22.198   1.588  50.064  1.00  0.00    -0.362 OA
HETATM   11  C15 UNL     1      20.915   1.915  49.694  1.00  0.00     0.176 C 
HETATM   12  C16 UNL     1      19.828   0.994  50.139  1.00  0.00     0.046 C 
HETATM   13  C17 UNL     1      19.459   0.961  51.580  1.00  0.00     0.125 C 
HETATM   14  N1  UNL     1      20.590   0.713  52.409  1.00  0.00    -0.357 N 
HETATM   15  C18 UNL     1      21.411   0.479  53.535  1.00  0.00     0.251 C 
HETATM   16  O3  UNL     1      20.622   0.464  54.457  1.00  0.00    -0.268 OA
HETATM   17  H20 UNL     1      21.420   0.612  51.820  1.00  0.00     0.162 HD
ENDROOT
BRANCH   8  18
HETATM   18  C10 UNL     1      25.286   3.532  50.056  1.00  0.00     0.009 C 
HETATM   19  C11 UNL     1      26.399   3.884  49.462  1.00  0.00     0.001 C 
BRANCH  19  20
HETATM   20  C12 UNL     1      27.373   4.711  48.786  1.00  0.00     0.012 C 
HETATM   21  C13 UNL     1      27.213   6.007  48.619  1.00  0.00     0.084 C 
HETATM   22 CL1  UNL     1      28.687   6.372  47.766  1.00  0.00    -0.097 Cl
ENDBRANCH  19  20
ENDBRANCH   8  18
BRANCH   1  23
HETATM   23  O1  UNL     1      26.771   0.067  53.258  1.00  0.00    -0.355 OA
HETATM   24  C1  UNL     1      27.560   0.159  54.426  1.00  0.00     0.210 C 
ENDBRANCH   1  23
TORSDOF 3
ENDMDL
MODEL 2
REMARK VINA RESULT:      -7.9      4.069      6.486
REMARK  3 active torsions:
REMARK  status: ('A' for Active; 'I' for Inactive)
REMARK    1  A    between atoms: O1_2  and  C2_3 
REMARK    2  A    between atoms: C9_10  and  C10_11 
REMARK    3  A    between atoms: C11_12  and  C12_13 
ROOT
HETATM    1  C2  UNL     1      25.518  -0.274  54.152  1.00  0.00     0.074 A 
HETATM    2  C3  UNL     1      26.764   0.313  54.152  1.00  0.00     0.038 A 
HETATM    3  C4  UNL     1      27.110   1.307  53.261  1.00  0.00     0.020 A 
HETATM    4  C5  UNL     1      26.055   1.562  52.453  1.00  0.00     0.032 A 
HETATM    5  C6  UNL     1      24.776   1.068  52.327  1.00  0.00     0.027 A 
HETATM    6  C7  UNL     1      24.534   0.091  53.259  1.00  0.00    -0.019 A 
HETATM    7  C8  UNL     1      23.139  -0.384  53.142  1.00  0.00     0.082 C 
HETATM    8  C9  UNL     1      22.169   0.712  52.832  1.00  0.00    -0.032 C 
HETATM    9  C14 UNL     1      21.919   1.981  52.576  1.00  0.00     0.141 C 
HETATM   10  O2  UNL     1      22.543   3.172  52.438  1.00  0.00    -0.362 OA
HETATM   11  C15 UNL     1      22.293   4.223  51.588  1.00  0.00     0.176 C 
HETATM   12  C16 UNL     1      23.361   5.258  51.461  1.00  0.00     0.046 C 
HETATM   13  C17 UNL     1      24.618   4.910  50.745  1.00  0.00     0.125 C 
HETATM   14  N1  UNL     1      25.225   3.740  51.283  1.00  0.00    -0.357 N 
HETATM   15  C18 UNL     1      26.122   2.674  51.522  1.00  0.00     0.251 C 
HETATM   16  O3  UNL     1      27.023   2.888  50.737  1.00  0.00    -0.268 OA
HETATM   17  H20 UNL     1      24.651   3.391  52.055  1.00  0.00     0.162 HD
ENDROOT
BRANCH   8  18
HETATM   18  C10 UNL     1      20.904  -0.064  52.830  1.00  0.00     0.009 C 
HETATM   19  C11 UNL     1      19.620  -0.158  52.589  1.00  0.00     0.001 C 
BRANCH  19  20
HETATM   20  C12 UNL     1      18.294  -0.727  52.503  1.00  0.00     0.012 C 
HETATM   21  C13 UNL     1      17.881  -1.694  53.294  1.00  0.00     0.084 C 
HETATM   22 CL1  UNL     1      16.264  -1.899  52.681  1.00  0.00    -0.097 Cl
ENDBRANCH  19  20
ENDBRANCH   8  18
BRANCH   1  23
HETATM   23  O1  UNL     1      25.155  -1.278  55.046  1.00  0.00    -0.355 OA
HETATM   24  C1  UNL     1      24.966  -0.898  56.394  1.00  0.00     0.210 C 
ENDBRANCH   1  23
TORSDOF 3
ENDMDL
MODEL 3
REMARK VINA RESULT:      -7.8      2.948      5.166
REMARK  3 active torsions:
REMARK  status: ('A' for Active; 'I' for Inactive)
REMARK    1  A    between atoms: O1_2  and  C2_3 
REMARK    2  A    between atoms: C9_10  and  C10_11 
REMARK    3  A    between atoms: C11_12  and  C12_13 
ROOT
HETATM    1  C2  UNL     1      21.307   0.257  53.394  1.00  0.00     0.074 A 
HETATM    2  C3  UNL     1      21.579  -0.369  54.591  1.00  0.00     0.038 A 
HETATM    3  C4  UNL     1      22.847  -0.795  54.927  1.00  0.00     0.020 A 
HETATM    4  C5  UNL     1      23.696  -0.493  53.917  1.00  0.00     0.032 A 
HETATM    5  C6  UNL     1      23.577   0.111  52.686  1.00  0.00     0.027 A 
HETATM    6  C7  UNL     1      22.282   0.499  52.452  1.00  0.00    -0.019 A 
HETATM    7  C8  UNL     1      22.190   1.195  51.152  1.00  0.00     0.082 C 
HETATM    8  C9  UNL     1      23.371   2.067  50.867  1.00  0.00    -0.032 C 
HETATM    9  C14 UNL     1      24.548   2.551  51.215  1.00  0.00     0.141 C 
HETATM   10  O2  UNL     1      25.464   2.486  52.206  1.00  0.00    -0.362 OA
HETATM   11  C15 UNL     1      26.838   2.511  52.162  1.00  0.00     0.176 C 
HETATM   12  C16 UNL     1      27.562   2.094  53.399  1.00  0.00     0.046 C 
HETATM   13  C17 UNL     1      27.549   0.658  53.788  1.00  0.00     0.125 C 
HETATM   14  N1  UNL     1      26.223   0.147  53.881  1.00  0.00    -0.357 N 
HETATM   15  C18 UNL     1      25.120  -0.711  54.095  1.00  0.00     0.251 C 
HETATM   16  O3  UNL     1      25.638  -1.738  54.481  1.00  0.00    -0.268 OA
HETATM   17  H20 UNL     1      25.562   0.893  53.653  1.00  0.00     0.162 HD
ENDROOT
BRANCH   8  18
HETATM   18  C10 UNL     1      22.956   2.636  49.560  1.00  0.00     0.009 C 
HETATM   19  C11 UNL     1      22.615   2.486  48.304  1.00  0.00     0.001 C 
BRANCH  19  20
HETATM   20  C12 UNL     1      22.208   2.826  46.960  1.00  0.00     0.012 C 
HETATM   21  C13 UNL     1      21.844   4.042  46.612  1.00  0.00     0.084 C 
HETATM   22 CL1  UNL     1      21.494   3.768  44.928  1.00  0.00    -0.097 Cl
ENDBRANCH  19  20
ENDBRANCH   8  18
BRANCH   1  23
HETATM   23  O1  UNL     1      20.031   0.693  53.043  1.00  0.00    -0.355 OA
HETATM   24  C1  UNL     1      19.079  -0.301  52.725  1.00  0.00     0.210 C 
ENDBRANCH   1  23
TORSDOF 3
ENDMDL
MODEL 4
REMARK VINA RESULT:      -7.6      2.709      5.134
REMARK  3 active torsions:
REMARK  status: ('A' for Active; 'I' for Inactive)
REMARK    1  A    between atoms: O1_2  and  C2_3 
REMARK    2  A    between atoms: C9_10  and  C10_11 
REMARK    3  A    between atoms: C11_12  and  C12_13 
ROOT
HETATM    1  C2  UNL     1      23.356   3.667  50.841  1.00  0.00     0.074 A 
HETATM    2  C3  UNL     1      22.228   4.293  50.357  1.00  0.00     0.038 A 
HETATM    3  C4  UNL     1      21.047   3.616  50.138  1.00  0.00     0.020 A 
HETATM    4  C5  UNL     1      21.216   2.314  50.471  1.00  0.00     0.032 A 
HETATM    5  C6  UNL     1      22.259   1.555  50.951  1.00  0.00     0.027 A 
HETATM    6  C7  UNL     1      23.381   2.322  51.137  1.00  0.00    -0.019 A 
HETATM    7  C8  UNL     1      24.467   1.498  51.706  1.00  0.00     0.082 C 
HETATM    8  C9  UNL     1      23.984   0.497  52.707  1.00  0.00    -0.032 C 
HETATM    9  C14 UNL     1      22.998  -0.072  53.374  1.00  0.00     0.141 C 
HETATM   10  O2  UNL     1      21.655  -0.023  53.516  1.00  0.00    -0.362 OA
HETATM   11  C15 UNL     1      20.738  -1.024  53.727  1.00  0.00     0.176 C 
HETATM   12  C16 UNL     1      19.301  -0.682  53.514  1.00  0.00     0.046 C 
HETATM   13  C17 UNL     1      18.814  -0.457  52.126  1.00  0.00     0.125 C 
HETATM   14  N1  UNL     1      19.589   0.526  51.447  1.00  0.00    -0.357 N 
HETATM   15  C18 UNL     1      20.070   1.423  50.466  1.00  0.00     0.251 C 
HETATM   16  O3  UNL     1      19.281   1.288  49.554  1.00  0.00    -0.268 OA
HETATM   17  H20 UNL     1      20.323   0.864  52.074  1.00  0.00     0.162 HD
ENDROOT
BRANCH   8  18
HETATM   18  C10 UNL     1      25.280  -0.109  53.105  1.00  0.00     0.009 C 
HETATM   19  C11 UNL     1      26.566  -0.277  52.926  1.00  0.00     0.001 C 
BRANCH  19  20
HETATM   20  C12 UNL     1      27.914  -0.754  53.138  1.00  0.00     0.012 C 
HETATM   21  C13 UNL     1      28.714  -0.246  54.051  1.00  0.00     0.084 C 
HETATM   22 CL1  UNL     1      30.122  -1.235  53.785  1.00  0.00    -0.097 Cl
ENDBRANCH  19  20
ENDBRANCH   8  18
BRANCH   1  23
HETATM   23  O1  UNL     1      24.554   4.339  51.067  1.00  0.00    -0.355 OA
HETATM   24  C1  UNL     1      25.291   4.738  49.930  1.00  0.00     0.210 C 
ENDBRANCH   1  23
TORSDOF 3
ENDMDL
MODEL 5
REMARK VINA RESULT:      -7.5      3.039      4.178
REMARK  3 active torsions:
REMARK  status: ('A' for Active; 'I' for Inactive)
REMARK    1  A    between atoms: O1_2  and  C2_3 
REMARK    2  A    between atoms: C9_10  and  C10_11 
REMARK    3  A    between atoms: C11_12  and  C12_13 
ROOT
HETATM    1  C2  UNL     1      26.476   1.851  51.845  1.00  0.00     0.074 A 
HETATM    2  C3  UNL     1      27.087   0.642  52.099  1.00  0.00     0.038 A 
HETATM    3  C4  UNL     1      26.570  -0.270  52.996  1.00  0.00     0.020 A 
HETATM    4  C5  UNL     1      25.433   0.233  53.530  1.00  0.00     0.032 A 
HETATM    5  C6  UNL     1      24.715   1.399  53.386  1.00  0.00     0.027 A 
HETATM    6  C7  UNL     1      25.310   2.231  52.472  1.00  0.00    -0.019 A 
HETATM    7  C8  UNL     1      24.493   3.449  52.291  1.00  0.00     0.082 C 
HETATM    8  C9  UNL     1      23.022   3.180  52.320  1.00  0.00    -0.032 C 
HETATM    9  C14 UNL     1      22.013   2.340  52.450  1.00  0.00     0.141 C 
HETATM   10  O2  UNL     1      21.752   1.032  52.667  1.00  0.00    -0.362 OA
HETATM   11  C15 UNL     1      20.751   0.424  53.386  1.00  0.00     0.176 C 
HETATM   12  C16 UNL     1      20.927  -1.024  53.702  1.00  0.00     0.046 C 
HETATM   13  C17 UNL     1      21.956  -1.421  54.701  1.00  0.00     0.125 C 
HETATM   14  N1  UNL     1      23.240  -0.899  54.372  1.00  0.00    -0.357 N 
HETATM   15  C18 UNL     1      24.622  -0.604  54.396  1.00  0.00     0.251 C 
HETATM   16  O3  UNL     1      25.024  -1.232  55.354  1.00  0.00    -0.268 OA
HETATM   17  H20 UNL     1      23.169  -0.356  53.509  1.00  0.00     0.162 HD
ENDROOT
BRANCH   8  18
HETATM   18  C10 UNL     1      22.509   4.551  52.072  1.00  0.00     0.009 C 
HETATM   19  C11 UNL     1      21.889   5.421  51.314  1.00  0.00     0.001 C 
BRANCH  19  20
HETATM   20  C12 UNL     1      21.317   6.674  50.876  1.00  0.00     0.012 C 
HETATM   21  C13 UNL     1      21.958   7.515  50.092  1.00  0.00     0.084 C 
HETATM   22 CL1  UNL     1      20.752   8.764  49.960  1.00  0.00    -0.097 Cl
ENDBRANCH  19  20
ENDBRANCH   8  18
BRANCH   1  23
HETATM   23  O1  UNL     1      26.986   2.780  50.941  1.00  0.00    -0.355 OA
HETATM   24  C1  UNL     1      26.367   2.848  49.673  1.00  0.00     0.210 C 
ENDBRANCH   1  23
TORSDOF 3
ENDMDL
MODEL 6
REMARK VINA RESULT:      -7.5      4.861      7.883
REMARK  3 active torsions:
REMARK  status: ('A' for Active; 'I' for Inactive)
REMARK    1  A    between atoms: O1_2  and  C2_3 
REMARK    2  A    between atoms: C9_10  and  C10_11 
REMARK    3  A    between atoms: C11_12  and  C12_13 
ROOT
HETATM    1  C2  UNL     1      28.782   6.110  48.240  1.00  0.00     0.074 A 
HETATM    2  C3  UNL     1      28.901   7.383  47.728  1.00  0.00     0.038 A 
HETATM    3  C4  UNL     1      27.803   8.161  47.425  1.00  0.00     0.020 A 
HETATM    4  C5  UNL     1      26.678   7.465  47.710  1.00  0.00     0.032 A 
HETATM    5  C6  UNL     1      26.402   6.211  48.209  1.00  0.00     0.027 A 
HETATM    6  C7  UNL     1      27.558   5.525  48.481  1.00  0.00    -0.019 A 
HETATM    7  C8  UNL     1      27.237   4.207  49.067  1.00  0.00     0.082 C 
HETATM    8  C9  UNL     1      26.069   4.247  50.000  1.00  0.00    -0.032 C 
HETATM    9  C14 UNL     1      25.101   4.917  50.595  1.00  0.00     0.141 C 
HETATM   10  O2  UNL     1      24.570   6.157  50.674  1.00  0.00    -0.362 OA
HETATM   11  C15 UNL     1      23.265   6.569  50.797  1.00  0.00     0.176 C 
HETATM   12  C16 UNL     1      22.982   8.010  50.530  1.00  0.00     0.046 C 
HETATM   13  C17 UNL     1      23.061   8.509  49.130  1.00  0.00     0.125 C 
HETATM   14  N1  UNL     1      24.317   8.207  48.531  1.00  0.00    -0.357 N 
HETATM   15  C18 UNL     1      25.388   8.124  47.614  1.00  0.00     0.251 C 
HETATM   16  O3  UNL     1      24.986   8.758  46.660  1.00  0.00    -0.268 OA
HETATM   17  H20 UNL     1      24.895   7.702  49.207  1.00  0.00     0.162 HD
ENDROOT
BRANCH   8  18
HETATM   18  C10 UNL     1      26.045   2.828  50.435  1.00  0.00     0.009 C 
HETATM   19  C11 UNL     1      26.452   1.867  51.226  1.00  0.00     0.001 C 
BRANCH  19  20
HETATM   20  C12 UNL     1      26.578   0.548  51.804  1.00  0.00     0.012 C 
HETATM   21  C13 UNL     1      27.339   0.298  52.849  1.00  0.00     0.084 C 
HETATM   22 CL1  UNL     1      27.046  -1.410  53.018  1.00  0.00    -0.097 Cl
ENDBRANCH  19  20
ENDBRANCH   8  18
BRANCH   1  23
HETATM   23  O1  UNL     1      29.883   5.315  48.552  1.00  0.00    -0.355 OA
HETATM   24  C1  UNL     1      31.088   5.983  48.865  1.00  0.00     0.210 C 
ENDBRANCH   1  23
TORSDOF 3
ENDMDL
MODEL 7
REMARK VINA RESULT:      -7.4      7.234     11.903
REMARK  3 active torsions:
REMARK  status: ('A' for Active; 'I' for Inactive)
REMARK    1  A    between atoms: O1_2  and  C2_3 
REMARK    2  A    between atoms: C9_10  and  C10_11 
REMARK    3  A    between atoms: C11_12  and  C12_13 
ROOT
HETATM    1  C2  UNL     1      32.140   9.288  47.425  1.00  0.00     0.074 A 
HETATM    2  C3  UNL     1      33.457   9.618  47.193  1.00  0.00     0.038 A 
HETATM    3  C4  UNL     1      34.494   8.757  47.482  1.00  0.00     0.020 A 
HETATM    4  C5  UNL     1      33.987   7.614  48.001  1.00  0.00     0.032 A 
HETATM    5  C6  UNL     1      32.725   7.148  48.294  1.00  0.00     0.027 A 
HETATM    6  C7  UNL     1      31.769   8.076  47.965  1.00  0.00    -0.019 A 
HETATM    7  C8  UNL     1      30.422   7.531  48.234  1.00  0.00     0.082 C 
HETATM    8  C9  UNL     1      30.300   6.077  47.906  1.00  0.00    -0.032 C 
HETATM    9  C14 UNL     1      30.835   4.950  47.479  1.00  0.00     0.141 C 
HETATM   10  O2  UNL     1      32.005   4.441  47.033  1.00  0.00    -0.362 OA
HETATM   11  C15 UNL     1      32.581   3.209  47.230  1.00  0.00     0.176 C 
HETATM   12  C16 UNL     1      34.024   3.072  46.874  1.00  0.00     0.046 C 
HETATM   13  C17 UNL     1      35.041   3.740  47.730  1.00  0.00     0.125 C 
HETATM   14  N1  UNL     1      34.773   5.131  47.881  1.00  0.00    -0.357 N 
HETATM   15  C18 UNL     1      34.871   6.491  48.252  1.00  0.00     0.251 C 
HETATM   16  O3  UNL     1      35.916   6.535  48.869  1.00  0.00    -0.268 OA
HETATM   17  H20 UNL     1      33.924   5.365  47.360  1.00  0.00     0.162 HD
ENDROOT
BRANCH   8  18
HETATM   18  C10 UNL     1      28.867   5.865  48.233  1.00  0.00     0.009 C 
HETATM   19  C11 UNL     1      27.895   5.105  48.672  1.00  0.00     0.001 C 
BRANCH  19  20
HETATM   20  C12 UNL     1      26.563   4.691  49.052  1.00  0.00     0.012 C 
HETATM   21  C13 UNL     1      26.298   3.492  49.526  1.00  0.00     0.084 C 
HETATM   22 CL1  UNL     1      24.580   3.651  49.769  1.00  0.00    -0.097 Cl
ENDBRANCH  19  20
ENDBRANCH   8  18
BRANCH   1  23
HETATM   23  O1  UNL     1      31.083  10.148  47.136  1.00  0.00    -0.355 OA
HETATM   24  C1  UNL     1      31.081  11.403  47.786  1.00  0.00     0.210 C 
ENDBRANCH   1  23
TORSDOF 3
ENDMDL
MODEL 8
REMARK VINA RESULT:      -7.3      4.465      7.824
REMARK  3 active torsions:
REMARK  status: ('A' for Active; 'I' for Inactive)
REMARK    1  A    between atoms: O1_2  and  C2_3 
REMARK    2  A    between atoms: C9_10  and  C10_11 
REMARK    3  A    between atoms: C11_12  and  C12_13 
ROOT
HETATM    1  C2  UNL     1      22.516   6.213  50.739  1.00  0.00     0.074 A 
HETATM    2  C3  UNL     1      22.309   7.518  50.346  1.00  0.00     0.038 A 
HETATM    3  C4  UNL     1      23.352   8.388  50.104  1.00  0.00     0.020 A 
HETATM    4  C5  UNL     1      24.523   7.743  50.318  1.00  0.00     0.032 A 
HETATM    5  C6  UNL     1      24.884   6.474  50.709  1.00  0.00     0.027 A 
HETATM    6  C7  UNL     1      23.777   5.691  50.919  1.00  0.00    -0.019 A 
HETATM    7  C8  UNL     1      24.191   4.319  51.281  1.00  0.00     0.082 C 
HETATM    8  C9  UNL     1      25.397   3.850  50.531  1.00  0.00    -0.032 C 
HETATM    9  C14 UNL     1      26.356   4.070  49.652  1.00  0.00     0.141 C 
HETATM   10  O2  UNL     1      26.826   5.026  48.821  1.00  0.00    -0.362 OA
HETATM   11  C15 UNL     1      28.113   5.359  48.473  1.00  0.00     0.176 C 
HETATM   12  C16 UNL     1      28.310   6.670  47.786  1.00  0.00     0.046 C 
HETATM   13  C17 UNL     1      28.143   7.923  48.571  1.00  0.00     0.125 C 
HETATM   14  N1  UNL     1      26.878   7.973  49.223  1.00  0.00    -0.357 N 
HETATM   15  C18 UNL     1      25.771   8.406  49.988  1.00  0.00     0.251 C 
HETATM   16  O3  UNL     1      26.097   9.521  50.342  1.00  0.00    -0.268 OA
HETATM   17  H20 UNL     1      26.357   7.120  49.006  1.00  0.00     0.162 HD
ENDROOT
BRANCH   8  18
HETATM   18  C10 UNL     1      25.513   2.474  51.074  1.00  0.00     0.009 C 
HETATM   19  C11 UNL     1      26.238   1.451  51.453  1.00  0.00     0.001 C 
BRANCH  19  20
HETATM   20  C12 UNL     1      26.574   0.140  51.961  1.00  0.00     0.012 C 
HETATM   21  C13 UNL     1      27.535  -0.059  52.838  1.00  0.00     0.084 C 
HETATM   22 CL1  UNL     1      27.413  -1.788  53.013  1.00  0.00    -0.097 Cl
ENDBRANCH  19  20
ENDBRANCH   8  18
BRANCH   1  23
HETATM   23  O1  UNL     1      21.472   5.325  50.985  1.00  0.00    -0.355 OA
HETATM   24  C1  UNL     1      20.688   4.934  49.876  1.00  0.00     0.210 C 
ENDBRANCH   1  23
TORSDOF 3
ENDMDL
MODEL 9
REMARK VINA RESULT:      -7.1      2.962      3.580
REMARK  3 active torsions:
REMARK  status: ('A' for Active; 'I' for Inactive)
REMARK    1  A    between atoms: O1_2  and  C2_3 
REMARK    2  A    between atoms: C9_10  and  C10_11 
REMARK    3  A    between atoms: C11_12  and  C12_13 
ROOT
HETATM    1  C2  UNL     1      24.430   1.496  52.297  1.00  0.00     0.074 A 
HETATM    2  C3  UNL     1      24.747   0.247  52.784  1.00  0.00     0.038 A 
HETATM    3  C4  UNL     1      23.829  -0.537  53.452  1.00  0.00     0.020 A 
HETATM    4  C5  UNL     1      22.651   0.126  53.523  1.00  0.00     0.032 A 
HETATM    5  C6  UNL     1      22.191   1.353  53.100  1.00  0.00     0.027 A 
HETATM    6  C7  UNL     1      23.177   2.048  52.446  1.00  0.00    -0.019 A 
HETATM    7  C8  UNL     1      22.644   3.335  51.953  1.00  0.00     0.082 C 
HETATM    8  C9  UNL     1      21.239   3.236  51.449  1.00  0.00    -0.032 C 
HETATM    9  C14 UNL     1      20.151   2.525  51.222  1.00  0.00     0.141 C 
HETATM   10  O2  UNL     1      19.662   1.273  51.360  1.00  0.00    -0.362 OA
HETATM   11  C15 UNL     1      18.400   0.833  51.678  1.00  0.00     0.176 C 
HETATM   12  C16 UNL     1      18.262  -0.601  52.070  1.00  0.00     0.046 C 
HETATM   13  C17 UNL     1      18.803  -1.041  53.384  1.00  0.00     0.125 C 
HETATM   14  N1  UNL     1      20.175  -0.692  53.534  1.00  0.00    -0.357 N 
HETATM   15  C18 UNL     1      21.483  -0.553  54.053  1.00  0.00     0.251 C 
HETATM   16  O3  UNL     1      21.429  -1.154  55.106  1.00  0.00    -0.268 OA
HETATM   17  H20 UNL     1      20.490  -0.204  52.692  1.00  0.00     0.162 HD
ENDROOT
BRANCH   8  18
HETATM   18  C10 UNL     1      21.033   4.636  51.000  1.00  0.00     0.009 C 
HETATM   19  C11 UNL     1      21.491   5.838  50.757  1.00  0.00     0.001 C 
BRANCH  19  20
HETATM   20  C12 UNL     1      21.509   7.228  50.361  1.00  0.00     0.012 C 
HETATM   21  C13 UNL     1      21.867   7.621  49.157  1.00  0.00     0.084 C 
HETATM   22 CL1  UNL     1      21.671   9.342  49.344  1.00  0.00    -0.097 Cl
ENDBRANCH  19  20
ENDBRANCH   8  18
BRANCH   1  23
HETATM   23  O1  UNL     1      25.347   2.297  51.620  1.00  0.00    -0.355 OA
HETATM   24  C1  UNL     1      26.716   2.012  51.816  1.00  0.00     0.210 C 
ENDBRANCH   1  23
TORSDOF 3
ENDMDL
