MODEL 1
REMARK VINA RESULT:      -7.9      0.000      0.000
REMARK  3 active torsions:
REMARK  status: ('A' for Active; 'I' for Inactive)
REMARK    1  A    between atoms: C2_2  and  C3_3 
REMARK    2  A    between atoms: C4_4  and  C5_5 
REMARK    3  A    between atoms: C5_5  and  C6_6 
ROOT
HETATM    1  C6  UNL     1      24.966   0.390  53.051  1.00  0.00     0.070 A 
HETATM    2  N1  UNL     1      25.454   1.257  52.140  1.00  0.00    -0.244 NA
HETATM    3  C7  UNL     1      24.679   2.107  51.452  1.00  0.00     0.236 A 
HETATM    4  N2  UNL     1      23.348   2.141  51.639  1.00  0.00    -0.215 NA
HETATM    5  C8  UNL     1      22.790   1.304  52.534  1.00  0.00     0.200 A 
HETATM    6  C9  UNL     1      23.607   0.441  53.227  1.00  0.00     0.107 A 
HETATM    7  N3  UNL     1      23.227  -0.503  54.191  1.00  0.00    -0.380 N 
HETATM    8  C10 UNL     1      21.955  -1.028  54.647  1.00  0.00     0.161 C 
HETATM    9  C11 UNL     1      20.816  -0.660  53.776  1.00  0.00    -0.005 A 
HETATM   10  C12 UNL     1      19.857  -1.663  53.945  1.00  0.00     0.030 A 
HETATM   11  C13 UNL     1      18.646  -1.676  53.295  1.00  0.00     0.011 A 
HETATM   12 BR1  UNL     1      17.365  -3.063  53.552  1.00  0.00    -0.051 Br
HETATM   13  C14 UNL     1      18.374  -0.632  52.431  1.00  0.00     0.022 A 
HETATM   14  C15 UNL     1      19.283   0.384  52.225  1.00  0.00     0.039 A 
HETATM   15  C16 UNL     1      20.484   0.352  52.900  1.00  0.00     0.086 A 
HETATM   16  O1  UNL     1      21.388   1.407  52.665  1.00  0.00    -0.289 OA
HETATM   17  H9  UNL     1      23.991  -0.953  54.726  1.00  0.00     0.160 HD
ENDROOT
BRANCH   1  18
HETATM   18  C5  UNL     1      25.936  -0.493  53.740  1.00  0.00     0.089 C 
BRANCH  18  19
HETATM   19  C4  UNL     1      26.704   0.229  54.778  1.00  0.00    -0.021 C 
HETATM   20  C3  UNL     1      28.045   0.265  54.744  1.00  0.00    -0.008 C 
BRANCH  20  21
HETATM   21  C2  UNL     1      28.718  -0.440  53.637  1.00  0.00    -0.027 C 
HETATM   22  C1  UNL     1      29.805  -1.196  53.610  1.00  0.00     0.031 C 
ENDBRANCH  20  21
ENDBRANCH  18  19
ENDBRANCH   1  18
TORSDOF 3
ENDMDL
MODEL 2
REMARK VINA RESULT:      -7.5      3.299      4.946
REMARK  3 active torsions:
REMARK  status: ('A' for Active; 'I' for Inactive)
REMARK    1  A    between atoms: C2_2  and  C3_3 
REMARK    2  A    between atoms: C4_4  and  C5_5 
REMARK    3  A    between atoms: C5_5  and  C6_6 
ROOT
HETATM    1  C6  UNL     1      24.412  -0.273  53.720  1.00  0.00     0.070 A 
HETATM    2  N1  UNL     1      23.561  -0.951  54.515  1.00  0.00    -0.244 NA
HETATM    3  C7  UNL     1      22.244  -0.702  54.558  1.00  0.00     0.236 A 
HETATM    4  N2  UNL     1      21.693   0.255  53.793  1.00  0.00    -0.215 NA
HETATM    5  C8  UNL     1      22.482   0.974  52.972  1.00  0.00     0.200 A 
HETATM    6  C9  UNL     1      23.830   0.700  52.947  1.00  0.00     0.107 A 
HETATM    7  N3  UNL     1      24.814   1.329  52.172  1.00  0.00    -0.380 N 
HETATM    8  C10 UNL     1      24.840   2.512  51.335  1.00  0.00     0.161 C 
HETATM    9  C11 UNL     1      23.643   3.371  51.487  1.00  0.00    -0.005 A 
HETATM   10  C12 UNL     1      24.049   4.666  51.153  1.00  0.00     0.030 A 
HETATM   11  C13 UNL     1      23.211   5.756  51.173  1.00  0.00     0.011 A 
HETATM   12 BR1  UNL     1      23.803   7.507  50.710  1.00  0.00    -0.051 Br
HETATM   13  C14 UNL     1      21.897   5.544  51.546  1.00  0.00     0.022 A 
HETATM   14  C15 UNL     1      21.442   4.288  51.887  1.00  0.00     0.039 A 
HETATM   15  C16 UNL     1      22.321   3.227  51.852  1.00  0.00     0.086 A 
HETATM   16  O1  UNL     1      21.820   1.959  52.207  1.00  0.00    -0.289 OA
HETATM   17  H9  UNL     1      25.750   0.886  52.161  1.00  0.00     0.160 HD
ENDROOT
BRANCH   1  18
HETATM   18  C5  UNL     1      25.844  -0.652  53.772  1.00  0.00     0.089 C 
BRANCH  18  19
HETATM   19  C4  UNL     1      26.572   0.074  54.834  1.00  0.00    -0.021 C 
HETATM   20  C3  UNL     1      27.907   0.204  54.791  1.00  0.00    -0.008 C 
BRANCH  20  21
HETATM   21  C2  UNL     1      28.615  -0.403  53.648  1.00  0.00    -0.027 C 
HETATM   22  C1  UNL     1      29.799  -0.987  53.559  1.00  0.00     0.031 C 
ENDBRANCH  20  21
ENDBRANCH  18  19
ENDBRANCH   1  18
TORSDOF 3
ENDMDL
MODEL 3
REMARK VINA RESULT:      -7.4      4.009      6.233
REMARK  3 active torsions:
REMARK  status: ('A' for Active; 'I' for Inactive)
REMARK    1  A    between atoms: C2_2  and  C3_3 
REMARK    2  A    between atoms: C4_4  and  C5_5 
REMARK    3  A    between atoms: C5_5  and  C6_6 
ROOT
HETATM    1  C6  UNL     1      24.731   0.612  52.904  1.00  0.00     0.070 A 
HETATM    2  N1  UNL     1      23.520   0.303  53.409  1.00  0.00    -0.244 NA
HETATM    3  C7  UNL     1      22.370   0.716  52.857  1.00  0.00     0.236 A 
HETATM    4  N2  UNL     1      22.365   1.475  51.748  1.00  0.00    -0.215 NA
HETATM    5  C8  UNL     1      23.538   1.824  51.187  1.00  0.00     0.200 A 
HETATM    6  C9  UNL     1      24.704   1.388  51.773  1.00  0.00     0.107 A 
HETATM    7  N3  UNL     1      26.017   1.640  51.351  1.00  0.00    -0.380 N 
HETATM    8  C10 UNL     1      26.611   2.520  50.364  1.00  0.00     0.161 C 
HETATM    9  C11 UNL     1      25.669   3.529  49.828  1.00  0.00    -0.005 A 
HETATM   10  C12 UNL     1      26.452   4.613  49.419  1.00  0.00     0.030 A 
HETATM   11  C13 UNL     1      25.935   5.758  48.862  1.00  0.00     0.011 A 
HETATM   12 BR1  UNL     1      27.037   7.214  48.316  1.00  0.00    -0.051 Br
HETATM   13  C14 UNL     1      24.564   5.829  48.703  1.00  0.00     0.022 A 
HETATM   14  C15 UNL     1      23.743   4.790  49.089  1.00  0.00     0.039 A 
HETATM   15  C16 UNL     1      24.309   3.662  49.644  1.00  0.00     0.086 A 
HETATM   16  O1  UNL     1      23.439   2.622  50.027  1.00  0.00    -0.289 OA
HETATM   17  H9  UNL     1      26.766   1.098  51.817  1.00  0.00     0.160 HD
ENDROOT
BRANCH   1  18
HETATM   18  C5  UNL     1      25.921   0.088  53.614  1.00  0.00     0.089 C 
BRANCH  18  19
HETATM   19  C4  UNL     1      26.344  -1.229  53.091  1.00  0.00    -0.021 C 
HETATM   20  C3  UNL     1      27.644  -1.542  52.982  1.00  0.00    -0.008 C 
BRANCH  20  21
HETATM   21  C2  UNL     1      28.629  -0.528  53.402  1.00  0.00    -0.027 C 
HETATM   22  C1  UNL     1      29.940  -0.592  53.566  1.00  0.00     0.031 C 
ENDBRANCH  20  21
ENDBRANCH  18  19
ENDBRANCH   1  18
TORSDOF 3
ENDMDL
MODEL 4
REMARK VINA RESULT:      -7.2      5.299      7.918
REMARK  3 active torsions:
REMARK  status: ('A' for Active; 'I' for Inactive)
REMARK    1  A    between atoms: C2_2  and  C3_3 
REMARK    2  A    between atoms: C4_4  and  C5_5 
REMARK    3  A    between atoms: C5_5  and  C6_6 
ROOT
HETATM    1  C6  UNL     1      24.337   3.074  52.156  1.00  0.00     0.070 A 
HETATM    2  N1  UNL     1      23.187   3.519  52.701  1.00  0.00    -0.244 NA
HETATM    3  C7  UNL     1      22.461   4.512  52.168  1.00  0.00     0.236 A 
HETATM    4  N2  UNL     1      22.849   5.126  51.038  1.00  0.00    -0.215 NA
HETATM    5  C8  UNL     1      23.988   4.734  50.435  1.00  0.00     0.200 A 
HETATM    6  C9  UNL     1      24.715   3.714  51.003  1.00  0.00     0.107 A 
HETATM    7  N3  UNL     1      25.918   3.164  50.540  1.00  0.00    -0.380 N 
HETATM    8  C10 UNL     1      26.871   3.535  49.513  1.00  0.00     0.161 C 
HETATM    9  C11 UNL     1      26.657   4.897  48.972  1.00  0.00    -0.005 A 
HETATM   10  C12 UNL     1      27.903   5.332  48.510  1.00  0.00     0.030 A 
HETATM   11  C13 UNL     1      28.114   6.562  47.933  1.00  0.00     0.011 A 
HETATM   12 BR1  UNL     1      29.829   7.118  47.316  1.00  0.00    -0.051 Br
HETATM   13  C14 UNL     1      27.026   7.404  47.808  1.00  0.00     0.022 A 
HETATM   14  C15 UNL     1      25.773   7.028  48.247  1.00  0.00     0.039 A 
HETATM   15  C16 UNL     1      25.613   5.784  48.819  1.00  0.00     0.086 A 
HETATM   16  O1  UNL     1      24.319   5.434  49.255  1.00  0.00    -0.289 OA
HETATM   17  H9  UNL     1      26.240   2.295  51.002  1.00  0.00     0.160 HD
ENDROOT
BRANCH   1  18
HETATM   18  C5  UNL     1      25.038   1.969  52.850  1.00  0.00     0.089 C 
BRANCH  18  19
HETATM   19  C4  UNL     1      24.140   0.826  53.122  1.00  0.00    -0.021 C 
HETATM   20  C3  UNL     1      24.622  -0.423  53.218  1.00  0.00    -0.008 C 
BRANCH  20  21
HETATM   21  C2  UNL     1      26.075  -0.609  53.041  1.00  0.00    -0.027 C 
HETATM   22  C1  UNL     1      26.774  -1.595  52.501  1.00  0.00     0.031 C 
ENDBRANCH  20  21
ENDBRANCH  18  19
ENDBRANCH   1  18
TORSDOF 3
ENDMDL
MODEL 5
REMARK VINA RESULT:      -7.1      3.825      6.566
REMARK  3 active torsions:
REMARK  status: ('A' for Active; 'I' for Inactive)
REMARK    1  A    between atoms: C2_2  and  C3_3 
REMARK    2  A    between atoms: C4_4  and  C5_5 
REMARK    3  A    between atoms: C5_5  and  C6_6 
ROOT
HETATM    1  C6  UNL     1      23.068   3.617  52.005  1.00  0.00     0.070 A 
HETATM    2  N1  UNL     1      21.946   3.255  51.352  1.00  0.00    -0.244 NA
HETATM    3  C7  UNL     1      21.525   1.985  51.270  1.00  0.00     0.236 A 
HETATM    4  N2  UNL     1      22.213   0.986  51.847  1.00  0.00    -0.215 NA
HETATM    5  C8  UNL     1      23.346   1.272  52.518  1.00  0.00     0.200 A 
HETATM    6  C9  UNL     1      23.757   2.583  52.587  1.00  0.00     0.107 A 
HETATM    7  N3  UNL     1      24.897   3.087  53.229  1.00  0.00    -0.380 N 
HETATM    8  C10 UNL     1      26.068   2.482  53.833  1.00  0.00     0.161 C 
HETATM    9  C11 UNL     1      26.212   1.040  53.531  1.00  0.00    -0.005 A 
HETATM   10  C12 UNL     1      27.579   0.759  53.619  1.00  0.00     0.030 A 
HETATM   11  C13 UNL     1      28.116  -0.488  53.402  1.00  0.00     0.011 A 
HETATM   12 BR1  UNL     1      29.986  -0.829  53.532  1.00  0.00    -0.051 Br
HETATM   13  C14 UNL     1      27.244  -1.511  53.080  1.00  0.00     0.022 A 
HETATM   14  C15 UNL     1      25.887  -1.291  52.979  1.00  0.00     0.039 A 
HETATM   15  C16 UNL     1      25.397  -0.023  53.205  1.00  0.00     0.086 A 
HETATM   16  O1  UNL     1      24.005   0.163  53.092  1.00  0.00    -0.289 OA
HETATM   17  H9  UNL     1      24.963   4.116  53.317  1.00  0.00     0.160 HD
ENDROOT
BRANCH   1  18
HETATM   18  C5  UNL     1      23.416   5.057  52.017  1.00  0.00     0.089 C 
BRANCH  18  19
HETATM   19  C4  UNL     1      23.107   5.714  50.729  1.00  0.00    -0.021 C 
HETATM   20  C3  UNL     1      24.027   5.791  49.756  1.00  0.00    -0.008 C 
BRANCH  20  21
HETATM   21  C2  UNL     1      25.352   5.199  50.020  1.00  0.00    -0.027 C 
HETATM   22  C1  UNL     1      26.377   4.951  49.221  1.00  0.00     0.031 C 
ENDBRANCH  20  21
ENDBRANCH  18  19
ENDBRANCH   1  18
TORSDOF 3
ENDMDL
MODEL 6
REMARK VINA RESULT:      -7.1      1.847      2.418
REMARK  3 active torsions:
REMARK  status: ('A' for Active; 'I' for Inactive)
REMARK    1  A    between atoms: C2_2  and  C3_3 
REMARK    2  A    between atoms: C4_4  and  C5_5 
REMARK    3  A    between atoms: C5_5  and  C6_6 
ROOT
HETATM    1  C6  UNL     1      26.224   1.795  51.667  1.00  0.00     0.070 A 
HETATM    2  N1  UNL     1      26.815   2.467  50.659  1.00  0.00    -0.244 NA
HETATM    3  C7  UNL     1      26.146   3.286  49.834  1.00  0.00     0.236 A 
HETATM    4  N2  UNL     1      24.824   3.483  49.973  1.00  0.00    -0.215 NA
HETATM    5  C8  UNL     1      24.165   2.846  50.959  1.00  0.00     0.200 A 
HETATM    6  C9  UNL     1      24.874   2.011  51.791  1.00  0.00     0.107 A 
HETATM    7  N3  UNL     1      24.381   1.259  52.867  1.00  0.00    -0.380 N 
HETATM    8  C10 UNL     1      23.053   0.939  53.353  1.00  0.00     0.161 C 
HETATM    9  C11 UNL     1      21.974   1.295  52.404  1.00  0.00    -0.005 A 
HETATM   10  C12 UNL     1      20.911   0.431  52.682  1.00  0.00     0.030 A 
HETATM   11  C13 UNL     1      19.716   0.450  52.003  1.00  0.00     0.011 A 
HETATM   12 BR1  UNL     1      18.290  -0.746  52.414  1.00  0.00    -0.051 Br
HETATM   13  C14 UNL     1      19.570   1.382  50.993  1.00  0.00     0.022 A 
HETATM   14  C15 UNL     1      20.586   2.259  50.675  1.00  0.00     0.039 A 
HETATM   15  C16 UNL     1      21.766   2.199  51.384  1.00  0.00     0.086 A 
HETATM   16  O1  UNL     1      22.781   3.111  51.031  1.00  0.00    -0.289 OA
HETATM   17  H9  UNL     1      25.084   0.814  53.483  1.00  0.00     0.160 HD
ENDROOT
BRANCH   1  18
HETATM   18  C5  UNL     1      27.082   0.925  52.503  1.00  0.00     0.089 C 
BRANCH  18  19
HETATM   19  C4  UNL     1      28.133   1.692  53.205  1.00  0.00    -0.021 C 
HETATM   20  C3  UNL     1      29.053   1.071  53.960  1.00  0.00    -0.008 C 
BRANCH  20  21
HETATM   21  C2  UNL     1      28.974  -0.399  54.061  1.00  0.00    -0.027 C 
HETATM   22  C1  UNL     1      29.724  -1.356  53.540  1.00  0.00     0.031 C 
ENDBRANCH  20  21
ENDBRANCH  18  19
ENDBRANCH   1  18
TORSDOF 3
ENDMDL
MODEL 7
REMARK VINA RESULT:      -6.9      3.467      7.487
REMARK  3 active torsions:
REMARK  status: ('A' for Active; 'I' for Inactive)
REMARK    1  A    between atoms: C2_2  and  C3_3 
REMARK    2  A    between atoms: C4_4  and  C5_5 
REMARK    3  A    between atoms: C5_5  and  C6_6 
ROOT
HETATM    1  C6  UNL     1      20.703  -0.121  53.249  1.00  0.00     0.070 A 
HETATM    2  N1  UNL     1      20.752  -1.318  53.868  1.00  0.00    -0.244 NA
HETATM    3  C7  UNL     1      21.875  -1.821  54.399  1.00  0.00     0.236 A 
HETATM    4  N2  UNL     1      23.035  -1.145  54.340  1.00  0.00    -0.215 NA
HETATM    5  C8  UNL     1      23.063   0.059  53.737  1.00  0.00     0.200 A 
HETATM    6  C9  UNL     1      21.896   0.553  53.200  1.00  0.00     0.107 A 
HETATM    7  N3  UNL     1      21.714   1.773  52.534  1.00  0.00    -0.380 N 
HETATM    8  C10 UNL     1      22.611   2.792  52.025  1.00  0.00     0.161 C 
HETATM    9  C11 UNL     1      24.031   2.374  52.006  1.00  0.00    -0.005 A 
HETATM   10  C12 UNL     1      24.642   3.121  50.994  1.00  0.00     0.030 A 
HETATM   11  C13 UNL     1      25.973   3.013  50.666  1.00  0.00     0.011 A 
HETATM   12 BR1  UNL     1      26.768   4.050  49.279  1.00  0.00    -0.051 Br
HETATM   13  C14 UNL     1      26.737   2.115  51.385  1.00  0.00     0.022 A 
HETATM   14  C15 UNL     1      26.187   1.351  52.393  1.00  0.00     0.039 A 
HETATM   15  C16 UNL     1      24.848   1.495  52.684  1.00  0.00     0.086 A 
HETATM   16  O1  UNL     1      24.321   0.698  53.721  1.00  0.00    -0.289 OA
HETATM   17  H9  UNL     1      20.736   2.055  52.340  1.00  0.00     0.160 HD
ENDROOT
BRANCH   1  18
HETATM   18  C5  UNL     1      19.394   0.315  52.709  1.00  0.00     0.089 C 
BRANCH  18  19
HETATM   19  C4  UNL     1      18.345  -0.710  52.901  1.00  0.00    -0.021 C 
HETATM   20  C3  UNL     1      17.428  -0.946  51.950  1.00  0.00    -0.008 C 
BRANCH  20  21
HETATM   21  C2  UNL     1      17.508  -0.147  50.712  1.00  0.00    -0.027 C 
HETATM   22  C1  UNL     1      16.690  -0.050  49.676  1.00  0.00     0.031 C 
ENDBRANCH  20  21
ENDBRANCH  18  19
ENDBRANCH   1  18
TORSDOF 3
ENDMDL
MODEL 8
REMARK VINA RESULT:      -6.7      4.963      8.016
REMARK  3 active torsions:
REMARK  status: ('A' for Active; 'I' for Inactive)
REMARK    1  A    between atoms: C2_2  and  C3_3 
REMARK    2  A    between atoms: C4_4  and  C5_5 
REMARK    3  A    between atoms: C5_5  and  C6_6 
ROOT
HETATM    1  C6  UNL     1      23.039   2.851  51.939  1.00  0.00     0.070 A 
HETATM    2  N1  UNL     1      21.866   3.394  52.323  1.00  0.00    -0.244 NA
HETATM    3  C7  UNL     1      21.317   4.455  51.716  1.00  0.00     0.236 A 
HETATM    4  N2  UNL     1      21.919   5.044  50.669  1.00  0.00    -0.215 NA
HETATM    5  C8  UNL     1      23.094   4.556  50.227  1.00  0.00     0.200 A 
HETATM    6  C9  UNL     1      23.637   3.466  50.868  1.00  0.00     0.107 A 
HETATM    7  N3  UNL     1      24.840   2.813  50.569  1.00  0.00    -0.380 N 
HETATM    8  C10 UNL     1      25.962   3.107  49.699  1.00  0.00     0.161 C 
HETATM    9  C11 UNL     1      25.952   4.489  49.167  1.00  0.00    -0.005 A 
HETATM   10  C12 UNL     1      27.285   4.813  48.900  1.00  0.00     0.030 A 
HETATM   11  C13 UNL     1      27.687   6.025  48.390  1.00  0.00     0.011 A 
HETATM   12 BR1  UNL     1      29.517   6.427  48.041  1.00  0.00    -0.051 Br
HETATM   13  C14 UNL     1      26.709   6.965  48.131  1.00  0.00     0.022 A 
HETATM   14  C15 UNL     1      25.377   6.700  48.376  1.00  0.00     0.039 A 
HETATM   15  C16 UNL     1      25.024   5.470  48.888  1.00  0.00     0.086 A 
HETATM   16  O1  UNL     1      23.655   5.236  49.125  1.00  0.00    -0.289 OA
HETATM   17  H9  UNL     1      25.012   1.913  51.052  1.00  0.00     0.160 HD
ENDROOT
BRANCH   1  18
HETATM   18  C5  UNL     1      23.530   1.678  52.698  1.00  0.00     0.089 C 
BRANCH  18  19
HETATM   19  C4  UNL     1      23.052   0.403  52.121  1.00  0.00    -0.021 C 
HETATM   20  C3  UNL     1      22.126  -0.336  52.751  1.00  0.00    -0.008 C 
BRANCH  20  21
HETATM   21  C2  UNL     1      21.606   0.171  54.035  1.00  0.00    -0.027 C 
HETATM   22  C1  UNL     1      20.385   0.509  54.416  1.00  0.00     0.031 C 
ENDBRANCH  20  21
ENDBRANCH  18  19
ENDBRANCH   1  18
TORSDOF 3
ENDMDL
MODEL 9
REMARK VINA RESULT:      -6.5      1.481      2.163
REMARK  3 active torsions:
REMARK  status: ('A' for Active; 'I' for Inactive)
REMARK    1  A    between atoms: C2_2  and  C3_3 
REMARK    2  A    between atoms: C4_4  and  C5_5 
REMARK    3  A    between atoms: C5_5  and  C6_6 
ROOT
HETATM    1  C6  UNL     1      23.396   1.745  51.653  1.00  0.00     0.070 A 
HETATM    2  N1  UNL     1      23.524   2.549  50.579  1.00  0.00    -0.244 NA
HETATM    3  C7  UNL     1      22.476   3.041  49.903  1.00  0.00     0.236 A 
HETATM    4  N2  UNL     1      21.216   2.753  50.271  1.00  0.00    -0.215 NA
HETATM    5  C8  UNL     1      21.009   1.956  51.337  1.00  0.00     0.200 A 
HETATM    6  C9  UNL     1      22.102   1.463  52.012  1.00  0.00     0.107 A 
HETATM    7  N3  UNL     1      22.103   0.624  53.135  1.00  0.00    -0.380 N 
HETATM    8  C10 UNL     1      21.084  -0.137  53.831  1.00  0.00     0.161 C 
HETATM    9  C11 UNL     1      19.805  -0.228  53.090  1.00  0.00    -0.005 A 
HETATM   10  C12 UNL     1      19.190  -1.407  53.521  1.00  0.00     0.030 A 
HETATM   11  C13 UNL     1      17.972  -1.845  53.057  1.00  0.00     0.011 A 
HETATM   12 BR1  UNL     1      17.166  -3.459  53.670  1.00  0.00    -0.051 Br
HETATM   13  C14 UNL     1      17.331  -1.065  52.113  1.00  0.00     0.022 A 
HETATM   14  C15 UNL     1      17.891   0.107  51.651  1.00  0.00     0.039 A 
HETATM   15  C16 UNL     1      19.115   0.503  52.147  1.00  0.00     0.086 A 
HETATM   16  O1  UNL     1      19.656   1.706  51.651  1.00  0.00    -0.289 OA
HETATM   17  H9  UNL     1      23.013   0.484  53.609  1.00  0.00     0.160 HD
ENDROOT
BRANCH   1  18
HETATM   18  C5  UNL     1      24.639   1.273  52.306  1.00  0.00     0.089 C 
BRANCH  18  19
HETATM   19  C4  UNL     1      25.424   2.389  52.876  1.00  0.00    -0.021 C 
HETATM   20  C3  UNL     1      26.301   2.179  53.871  1.00  0.00    -0.008 C 
BRANCH  20  21
HETATM   21  C2  UNL     1      26.449   0.798  54.369  1.00  0.00    -0.027 C 
HETATM   22  C1  UNL     1      27.496   0.147  54.850  1.00  0.00     0.031 C 
ENDBRANCH  20  21
ENDBRANCH  18  19
ENDBRANCH   1  18
TORSDOF 3
ENDMDL
