MODEL 1
REMARK VINA RESULT:      -6.3      0.000      0.000
REMARK  10 active torsions:
REMARK  status: ('A' for Active; 'I' for Inactive)
REMARK    1  A    between atoms: O1_2  and  C2_3 
REMARK    2  A    between atoms: C2_3  and  C3_5 
REMARK    3  A    between atoms: C3_5  and  C4_6 
REMARK    4  A    between atoms: C5_7  and  C6_8 
REMARK    5  A    between atoms: C11_13  and  C12_14 
REMARK    6  A    between atoms: C12_14  and  O3_15 
REMARK    7  A    between atoms: O3_15  and  C13_16 
REMARK    8  A    between atoms: C13_16  and  C14_17 
REMARK    9  A    between atoms: C14_17  and  C15_18 
REMARK   10  A    between atoms: C15_18  and  N1_19 
ROOT
HETATM    1  C6  UNL     1      27.172  -0.635  53.170  1.00  0.00    -0.028 A 
HETATM    2  C7  UNL     1      27.740  -1.891  53.158  1.00  0.00     0.012 A 
HETATM    3  C8  UNL     1      29.116  -2.073  53.273  1.00  0.00     0.001 A 
HETATM    4  C9  UNL     1      29.902  -0.954  53.402  1.00  0.00     0.001 A 
HETATM    5  C10 UNL     1      29.304   0.284  53.411  1.00  0.00     0.010 A 
HETATM    6  C11 UNL     1      27.947   0.490  53.298  1.00  0.00    -0.024 A 
ENDROOT
BRANCH   6   7
HETATM    7  C12 UNL     1      27.313   1.854  53.318  1.00  0.00     0.207 C 
BRANCH   7   8
HETATM    8  O3  UNL     1      27.600   2.493  52.140  1.00  0.00    -0.387 OA
BRANCH   8   9
HETATM    9  C13 UNL     1      26.599   2.553  51.210  1.00  0.00     0.169 C 
BRANCH   9  10
HETATM   10  C14 UNL     1      25.263   2.796  51.833  1.00  0.00     0.056 C 
BRANCH  10  11
HETATM   11  C15 UNL     1      24.140   2.677  50.801  1.00  0.00     0.273 C 
BRANCH  11  12
HETATM   12  N1  UNL     1      22.995   3.455  51.279  1.00  0.00     0.080 N 
HETATM   13  C16 UNL     1      23.491   4.420  52.266  1.00  0.00     0.309 C 
HETATM   14  C17 UNL     1      22.117   2.534  51.964  1.00  0.00     0.309 C 
ENDBRANCH  11  12
ENDBRANCH  10  11
ENDBRANCH   9  10
ENDBRANCH   8   9
ENDBRANCH   7   8
ENDBRANCH   6   7
BRANCH   1  15
HETATM   15  C5  UNL     1      25.723  -0.561  53.034  1.00  0.00     0.008 C 
HETATM   16  C4  UNL     1      24.835  -0.641  53.998  1.00  0.00    -0.016 C 
BRANCH  16  17
HETATM   17  C3  UNL     1      23.367  -0.548  53.707  1.00  0.00     0.138 C 
BRANCH  17  18
HETATM   18  C2  UNL     1      22.656  -1.209  54.856  1.00  0.00     0.261 C 
HETATM   19  O2  UNL     1      23.551  -1.394  55.720  1.00  0.00    -0.265 OA
BRANCH  18  20
HETATM   20  O1  UNL     1      21.311  -1.390  54.595  1.00  0.00    -0.326 OA
HETATM   21  C1  UNL     1      20.618  -0.330  53.937  1.00  0.00     0.213 C 
ENDBRANCH  18  20
ENDBRANCH  17  18
ENDBRANCH  16  17
ENDBRANCH   1  15
TORSDOF 10
ENDMDL
MODEL 2
REMARK VINA RESULT:      -6.3      2.251      5.393
REMARK  10 active torsions:
REMARK  status: ('A' for Active; 'I' for Inactive)
REMARK    1  A    between atoms: O1_2  and  C2_3 
REMARK    2  A    between atoms: C2_3  and  C3_5 
REMARK    3  A    between atoms: C3_5  and  C4_6 
REMARK    4  A    between atoms: C5_7  and  C6_8 
REMARK    5  A    between atoms: C11_13  and  C12_14 
REMARK    6  A    between atoms: C12_14  and  O3_15 
REMARK    7  A    between atoms: O3_15  and  C13_16 
REMARK    8  A    between atoms: C13_16  and  C14_17 
REMARK    9  A    between atoms: C14_17  and  C15_18 
REMARK   10  A    between atoms: C15_18  and  N1_19 
ROOT
HETATM    1  C6  UNL     1      23.466  -0.084  53.305  1.00  0.00    -0.028 A 
HETATM    2  C7  UNL     1      23.101  -0.870  54.376  1.00  0.00     0.012 A 
HETATM    3  C8  UNL     1      21.764  -1.127  54.676  1.00  0.00     0.001 A 
HETATM    4  C9  UNL     1      20.808  -0.569  53.863  1.00  0.00     0.001 A 
HETATM    5  C10 UNL     1      21.206   0.210  52.802  1.00  0.00     0.010 A 
HETATM    6  C11 UNL     1      22.518   0.479  52.486  1.00  0.00    -0.024 A 
ENDROOT
BRANCH   6   7
HETATM    7  C12 UNL     1      22.931   1.328  51.316  1.00  0.00     0.207 C 
BRANCH   7   8
HETATM    8  O3  UNL     1      22.289   2.536  51.397  1.00  0.00    -0.387 OA
BRANCH   8   9
HETATM    9  C13 UNL     1      22.930   3.532  52.082  1.00  0.00     0.169 C 
BRANCH   9  10
HETATM   10  C14 UNL     1      24.404   3.531  51.832  1.00  0.00     0.056 C 
BRANCH  10  11
HETATM   11  C15 UNL     1      24.759   4.385  50.613  1.00  0.00     0.273 C 
BRANCH  11  12
HETATM   12  N1  UNL     1      25.678   3.617  49.771  1.00  0.00     0.080 N 
HETATM   13  C16 UNL     1      26.445   2.723  50.645  1.00  0.00     0.309 C 
HETATM   14  C17 UNL     1      26.601   4.561  49.184  1.00  0.00     0.309 C 
ENDBRANCH  11  12
ENDBRANCH  10  11
ENDBRANCH   9  10
ENDBRANCH   8   9
ENDBRANCH   7   8
ENDBRANCH   6   7
BRANCH   1  15
HETATM   15  C5  UNL     1      24.891   0.125  53.090  1.00  0.00     0.008 C 
HETATM   16  C4  UNL     1      25.792  -0.793  52.827  1.00  0.00    -0.016 C 
BRANCH  16  17
HETATM   17  C3  UNL     1      27.234  -0.428  52.629  1.00  0.00     0.138 C 
BRANCH  17  18
HETATM   18  C2  UNL     1      28.047  -1.502  53.299  1.00  0.00     0.261 C 
HETATM   19  O2  UNL     1      27.575  -2.580  52.857  1.00  0.00    -0.265 OA
BRANCH  18  20
HETATM   20  O1  UNL     1      29.005  -0.974  54.143  1.00  0.00    -0.326 OA
HETATM   21  C1  UNL     1      29.075   0.448  54.252  1.00  0.00     0.213 C 
ENDBRANCH  18  20
ENDBRANCH  17  18
ENDBRANCH  16  17
ENDBRANCH   1  15
TORSDOF 10
ENDMDL
MODEL 3
REMARK VINA RESULT:      -6.2      1.712      2.216
REMARK  10 active torsions:
REMARK  status: ('A' for Active; 'I' for Inactive)
REMARK    1  A    between atoms: O1_2  and  C2_3 
REMARK    2  A    between atoms: C2_3  and  C3_5 
REMARK    3  A    between atoms: C3_5  and  C4_6 
REMARK    4  A    between atoms: C5_7  and  C6_8 
REMARK    5  A    between atoms: C11_13  and  C12_14 
REMARK    6  A    between atoms: C12_14  and  O3_15 
REMARK    7  A    between atoms: O3_15  and  C13_16 
REMARK    8  A    between atoms: C13_16  and  C14_17 
REMARK    9  A    between atoms: C14_17  and  C15_18 
REMARK   10  A    between atoms: C15_18  and  N1_19 
ROOT
HETATM    1  C6  UNL     1      26.315   0.706  53.504  1.00  0.00    -0.028 A 
HETATM    2  C7  UNL     1      26.993   0.030  54.495  1.00  0.00     0.012 A 
HETATM    3  C8  UNL     1      28.310   0.342  54.826  1.00  0.00     0.001 A 
HETATM    4  C9  UNL     1      28.923   1.354  54.128  1.00  0.00     0.001 A 
HETATM    5  C10 UNL     1      28.218   2.009  53.146  1.00  0.00     0.010 A 
HETATM    6  C11 UNL     1      26.918   1.720  52.801  1.00  0.00    -0.024 A 
ENDROOT
BRANCH   6   7
HETATM    7  C12 UNL     1      26.163   2.455  51.727  1.00  0.00     0.207 C 
BRANCH   7   8
HETATM    8  O3  UNL     1      27.061   2.976  50.833  1.00  0.00    -0.387 OA
BRANCH   8   9
HETATM    9  C13 UNL     1      26.550   3.493  49.674  1.00  0.00     0.169 C 
BRANCH   9  10
HETATM   10  C14 UNL     1      25.058   3.426  49.635  1.00  0.00     0.056 C 
BRANCH  10  11
HETATM   11  C15 UNL     1      24.448   4.806  49.381  1.00  0.00     0.273 C 
BRANCH  11  12
HETATM   12  N1  UNL     1      24.798   5.674  50.507  1.00  0.00     0.080 N 
HETATM   13  C16 UNL     1      23.724   5.571  51.502  1.00  0.00     0.309 C 
HETATM   14  C17 UNL     1      24.809   7.030  50.007  1.00  0.00     0.309 C 
ENDBRANCH  11  12
ENDBRANCH  10  11
ENDBRANCH   9  10
ENDBRANCH   8   9
ENDBRANCH   7   8
ENDBRANCH   6   7
BRANCH   1  15
HETATM   15  C5  UNL     1      24.945   0.292  53.236  1.00  0.00     0.008 C 
HETATM   16  C4  UNL     1      24.206  -0.511  53.967  1.00  0.00    -0.016 C 
BRANCH  16  17
HETATM   17  C3  UNL     1      22.802  -0.851  53.565  1.00  0.00     0.138 C 
BRANCH  17  18
HETATM   18  C2  UNL     1      21.986  -0.884  54.828  1.00  0.00     0.261 C 
HETATM   19  O2  UNL     1      22.397  -1.899  55.445  1.00  0.00    -0.265 OA
BRANCH  18  20
HETATM   20  O1  UNL     1      21.091   0.166  54.892  1.00  0.00    -0.326 OA
HETATM   21  C1  UNL     1      20.579   0.674  53.660  1.00  0.00     0.213 C 
ENDBRANCH  18  20
ENDBRANCH  17  18
ENDBRANCH  16  17
ENDBRANCH   1  15
TORSDOF 10
ENDMDL
MODEL 4
REMARK VINA RESULT:      -6.2      2.238      5.353
REMARK  10 active torsions:
REMARK  status: ('A' for Active; 'I' for Inactive)
REMARK    1  A    between atoms: O1_2  and  C2_3 
REMARK    2  A    between atoms: C2_3  and  C3_5 
REMARK    3  A    between atoms: C3_5  and  C4_6 
REMARK    4  A    between atoms: C5_7  and  C6_8 
REMARK    5  A    between atoms: C11_13  and  C12_14 
REMARK    6  A    between atoms: C12_14  and  O3_15 
REMARK    7  A    between atoms: O3_15  and  C13_16 
REMARK    8  A    between atoms: C13_16  and  C14_17 
REMARK    9  A    between atoms: C14_17  and  C15_18 
REMARK   10  A    between atoms: C15_18  and  N1_19 
ROOT
HETATM    1  C6  UNL     1      23.266   0.234  53.361  1.00  0.00    -0.028 A 
HETATM    2  C7  UNL     1      22.980  -0.908  54.078  1.00  0.00     0.012 A 
HETATM    3  C8  UNL     1      21.683  -1.209  54.489  1.00  0.00     0.001 A 
HETATM    4  C9  UNL     1      20.685  -0.327  54.157  1.00  0.00     0.001 A 
HETATM    5  C10 UNL     1      21.004   0.803  53.441  1.00  0.00     0.010 A 
HETATM    6  C11 UNL     1      22.276   1.123  53.024  1.00  0.00    -0.024 A 
ENDROOT
BRANCH   6   7
HETATM    7  C12 UNL     1      22.601   2.361  52.235  1.00  0.00     0.207 C 
BRANCH   7   8
HETATM    8  O3  UNL     1      21.994   2.278  51.009  1.00  0.00    -0.387 OA
BRANCH   8   9
HETATM    9  C13 UNL     1      22.811   2.279  49.912  1.00  0.00     0.169 C 
BRANCH   9  10
HETATM   10  C14 UNL     1      24.156   2.856  50.211  1.00  0.00     0.056 C 
BRANCH  10  11
HETATM   11  C15 UNL     1      24.354   4.197  49.502  1.00  0.00     0.273 C 
BRANCH  11  12
HETATM   12  N1  UNL     1      24.948   5.135  50.456  1.00  0.00     0.080 N 
HETATM   13  C16 UNL     1      23.853   5.809  51.162  1.00  0.00     0.309 C 
HETATM   14  C17 UNL     1      25.656   6.131  49.685  1.00  0.00     0.309 C 
ENDBRANCH  11  12
ENDBRANCH  10  11
ENDBRANCH   9  10
ENDBRANCH   8   9
ENDBRANCH   7   8
ENDBRANCH   6   7
BRANCH   1  15
HETATM   15  C5  UNL     1      24.658   0.453  52.990  1.00  0.00     0.008 C 
HETATM   16  C4  UNL     1      25.632  -0.427  53.028  1.00  0.00    -0.016 C 
BRANCH  16  17
HETATM   17  C3  UNL     1      27.025  -0.056  52.613  1.00  0.00     0.138 C 
BRANCH  17  18
HETATM   18  C2  UNL     1      27.812   0.152  53.878  1.00  0.00     0.261 C 
HETATM   19  O2  UNL     1      28.268  -0.985  54.159  1.00  0.00    -0.265 OA
BRANCH  18  20
HETATM   20  O1  UNL     1      27.777   1.468  54.297  1.00  0.00    -0.326 OA
HETATM   21  C1  UNL     1      28.611   2.402  53.612  1.00  0.00     0.213 C 
ENDBRANCH  18  20
ENDBRANCH  17  18
ENDBRANCH  16  17
ENDBRANCH   1  15
TORSDOF 10
ENDMDL
MODEL 5
REMARK VINA RESULT:      -6.1      2.839      3.687
REMARK  10 active torsions:
REMARK  status: ('A' for Active; 'I' for Inactive)
REMARK    1  A    between atoms: O1_2  and  C2_3 
REMARK    2  A    between atoms: C2_3  and  C3_5 
REMARK    3  A    between atoms: C3_5  and  C4_6 
REMARK    4  A    between atoms: C5_7  and  C6_8 
REMARK    5  A    between atoms: C11_13  and  C12_14 
REMARK    6  A    between atoms: C12_14  and  O3_15 
REMARK    7  A    between atoms: O3_15  and  C13_16 
REMARK    8  A    between atoms: C13_16  and  C14_17 
REMARK    9  A    between atoms: C14_17  and  C15_18 
REMARK   10  A    between atoms: C15_18  and  N1_19 
ROOT
HETATM    1  C6  UNL     1      25.919   0.858  53.373  1.00  0.00    -0.028 A 
HETATM    2  C7  UNL     1      26.646   0.252  54.373  1.00  0.00     0.012 A 
HETATM    3  C8  UNL     1      27.983   0.570  54.604  1.00  0.00     0.001 A 
HETATM    4  C9  UNL     1      28.564   1.516  53.796  1.00  0.00     0.001 A 
HETATM    5  C10 UNL     1      27.810   2.103  52.807  1.00  0.00     0.010 A 
HETATM    6  C11 UNL     1      26.489   1.806  52.560  1.00  0.00    -0.024 A 
ENDROOT
BRANCH   6   7
HETATM    7  C12 UNL     1      25.682   2.466  51.477  1.00  0.00     0.207 C 
BRANCH   7   8
HETATM    8  O3  UNL     1      26.528   2.878  50.481  1.00  0.00    -0.387 OA
BRANCH   8   9
HETATM    9  C13 UNL     1      26.151   3.981  49.765  1.00  0.00     0.169 C 
BRANCH   9  10
HETATM   10  C14 UNL     1      27.271   4.531  48.942  1.00  0.00     0.056 C 
BRANCH  10  11
HETATM   11  C15 UNL     1      27.023   5.996  48.578  1.00  0.00     0.273 C 
BRANCH  11  12
HETATM   12  N1  UNL     1      28.223   6.511  47.915  1.00  0.00     0.080 N 
HETATM   13  C16 UNL     1      29.333   5.605  48.234  1.00  0.00     0.309 C 
HETATM   14  C17 UNL     1      28.515   7.795  48.509  1.00  0.00     0.309 C 
ENDBRANCH  11  12
ENDBRANCH  10  11
ENDBRANCH   9  10
ENDBRANCH   8   9
ENDBRANCH   7   8
ENDBRANCH   6   7
BRANCH   1  15
HETATM   15  C5  UNL     1      24.531   0.443  53.216  1.00  0.00     0.008 C 
HETATM   16  C4  UNL     1      23.982  -0.661  53.667  1.00  0.00    -0.016 C 
BRANCH  16  17
HETATM   17  C3  UNL     1      22.532  -0.957  53.428  1.00  0.00     0.138 C 
BRANCH  17  18
HETATM   18  C2  UNL     1      21.842  -0.845  54.760  1.00  0.00     0.261 C 
HETATM   19  O2  UNL     1      22.297  -1.803  55.435  1.00  0.00    -0.265 OA
BRANCH  18  20
HETATM   20  O1  UNL     1      20.972   0.228  54.802  1.00  0.00    -0.326 OA
HETATM   21  C1  UNL     1      20.596   0.822  53.559  1.00  0.00     0.213 C 
ENDBRANCH  18  20
ENDBRANCH  17  18
ENDBRANCH  16  17
ENDBRANCH   1  15
TORSDOF 10
ENDMDL
MODEL 6
REMARK VINA RESULT:      -6.1      2.413      5.802
REMARK  10 active torsions:
REMARK  status: ('A' for Active; 'I' for Inactive)
REMARK    1  A    between atoms: O1_2  and  C2_3 
REMARK    2  A    between atoms: C2_3  and  C3_5 
REMARK    3  A    between atoms: C3_5  and  C4_6 
REMARK    4  A    between atoms: C5_7  and  C6_8 
REMARK    5  A    between atoms: C11_13  and  C12_14 
REMARK    6  A    between atoms: C12_14  and  O3_15 
REMARK    7  A    between atoms: O3_15  and  C13_16 
REMARK    8  A    between atoms: C13_16  and  C14_17 
REMARK    9  A    between atoms: C14_17  and  C15_18 
REMARK   10  A    between atoms: C15_18  and  N1_19 
ROOT
HETATM    1  C6  UNL     1      26.047   3.466  49.950  1.00  0.00    -0.028 A 
HETATM    2  C7  UNL     1      27.079   4.228  49.448  1.00  0.00     0.012 A 
HETATM    3  C8  UNL     1      26.845   5.428  48.779  1.00  0.00     0.001 A 
HETATM    4  C9  UNL     1      25.542   5.835  48.630  1.00  0.00     0.001 A 
HETATM    5  C10 UNL     1      24.535   5.051  49.143  1.00  0.00     0.010 A 
HETATM    6  C11 UNL     1      24.740   3.863  49.808  1.00  0.00    -0.024 A 
ENDROOT
BRANCH   6   7
HETATM    7  C12 UNL     1      23.625   3.025  50.367  1.00  0.00     0.207 C 
BRANCH   7   8
HETATM    8  O3  UNL     1      23.267   3.523  51.593  1.00  0.00    -0.387 OA
BRANCH   8   9
HETATM    9  C13 UNL     1      23.330   2.662  52.653  1.00  0.00     0.169 C 
BRANCH   9  10
HETATM   10  C14 UNL     1      23.086   1.246  52.246  1.00  0.00     0.056 C 
BRANCH  10  11
HETATM   11  C15 UNL     1      23.397   0.279  53.390  1.00  0.00     0.273 C 
BRANCH  11  12
HETATM   12  N1  UNL     1      22.143  -0.028  54.082  1.00  0.00     0.080 N 
HETATM   13  C16 UNL     1      22.365  -1.227  54.898  1.00  0.00     0.309 C 
HETATM   14  C17 UNL     1      21.171  -0.358  53.065  1.00  0.00     0.309 C 
ENDBRANCH  11  12
ENDBRANCH  10  11
ENDBRANCH   9  10
ENDBRANCH   8   9
ENDBRANCH   7   8
ENDBRANCH   6   7
BRANCH   1  15
HETATM   15  C5  UNL     1      26.406   2.226  50.626  1.00  0.00     0.008 C 
HETATM   16  C4  UNL     1      26.806   2.092  51.869  1.00  0.00    -0.016 C 
BRANCH  16  17
HETATM   17  C3  UNL     1      27.143   0.743  52.432  1.00  0.00     0.138 C 
BRANCH  17  18
HETATM   18  C2  UNL     1      27.168   0.893  53.929  1.00  0.00     0.261 C 
HETATM   19  O2  UNL     1      26.603   1.995  54.146  1.00  0.00    -0.265 OA
BRANCH  18  20
HETATM   20  O1  UNL     1      27.779  -0.181  54.545  1.00  0.00    -0.326 OA
HETATM   21  C1  UNL     1      29.092  -0.533  54.109  1.00  0.00     0.213 C 
ENDBRANCH  18  20
ENDBRANCH  17  18
ENDBRANCH  16  17
ENDBRANCH   1  15
TORSDOF 10
ENDMDL
MODEL 7
REMARK VINA RESULT:      -5.9      2.485      5.576
REMARK  10 active torsions:
REMARK  status: ('A' for Active; 'I' for Inactive)
REMARK    1  A    between atoms: O1_2  and  C2_3 
REMARK    2  A    between atoms: C2_3  and  C3_5 
REMARK    3  A    between atoms: C3_5  and  C4_6 
REMARK    4  A    between atoms: C5_7  and  C6_8 
REMARK    5  A    between atoms: C11_13  and  C12_14 
REMARK    6  A    between atoms: C12_14  and  O3_15 
REMARK    7  A    between atoms: O3_15  and  C13_16 
REMARK    8  A    between atoms: C13_16  and  C14_17 
REMARK    9  A    between atoms: C14_17  and  C15_18 
REMARK   10  A    between atoms: C15_18  and  N1_19 
ROOT
HETATM    1  C6  UNL     1      25.614   2.117  51.472  1.00  0.00    -0.028 A 
HETATM    2  C7  UNL     1      26.665   2.724  50.819  1.00  0.00     0.012 A 
HETATM    3  C8  UNL     1      26.459   3.611  49.764  1.00  0.00     0.001 A 
HETATM    4  C9  UNL     1      25.164   3.868  49.388  1.00  0.00     0.001 A 
HETATM    5  C10 UNL     1      24.137   3.246  50.060  1.00  0.00     0.010 A 
HETATM    6  C11 UNL     1      24.315   2.367  51.104  1.00  0.00    -0.024 A 
ENDROOT
BRANCH   6   7
HETATM    7  C12 UNL     1      23.178   1.704  51.830  1.00  0.00     0.207 C 
BRANCH   7   8
HETATM    8  O3  UNL     1      22.016   2.369  51.535  1.00  0.00    -0.387 OA
BRANCH   8   9
HETATM    9  C13 UNL     1      20.933   1.603  51.200  1.00  0.00     0.169 C 
BRANCH   9  10
HETATM   10  C14 UNL     1      21.076   0.189  51.660  1.00  0.00     0.056 C 
BRANCH  10  11
HETATM   11  C15 UNL     1      19.986  -0.178  52.668  1.00  0.00     0.273 C 
BRANCH  11  12
HETATM   12  N1  UNL     1      20.631  -0.761  53.847  1.00  0.00     0.080 N 
HETATM   13  C16 UNL     1      20.913   0.329  54.788  1.00  0.00     0.309 C 
HETATM   14  C17 UNL     1      21.896  -1.306  53.409  1.00  0.00     0.309 C 
ENDBRANCH  11  12
ENDBRANCH  10  11
ENDBRANCH   9  10
ENDBRANCH   8   9
ENDBRANCH   7   8
ENDBRANCH   6   7
BRANCH   1  15
HETATM   15  C5  UNL     1      25.946   1.202  52.555  1.00  0.00     0.008 C 
HETATM   16  C4  UNL     1      26.289   1.522  53.782  1.00  0.00    -0.016 C 
BRANCH  16  17
HETATM   17  C3  UNL     1      26.605   0.465  54.798  1.00  0.00     0.138 C 
BRANCH  17  18
HETATM   18  C2  UNL     1      28.070   0.155  54.658  1.00  0.00     0.261 C 
HETATM   19  O2  UNL     1      28.654   1.156  55.145  1.00  0.00    -0.265 OA
BRANCH  18  20
HETATM   20  O1  UNL     1      28.284  -1.074  54.065  1.00  0.00    -0.326 OA
HETATM   21  C1  UNL     1      29.534  -1.281  53.408  1.00  0.00     0.213 C 
ENDBRANCH  18  20
ENDBRANCH  17  18
ENDBRANCH  16  17
ENDBRANCH   1  15
TORSDOF 10
ENDMDL
MODEL 8
REMARK VINA RESULT:      -5.9      2.303      5.259
REMARK  10 active torsions:
REMARK  status: ('A' for Active; 'I' for Inactive)
REMARK    1  A    between atoms: O1_2  and  C2_3 
REMARK    2  A    between atoms: C2_3  and  C3_5 
REMARK    3  A    between atoms: C3_5  and  C4_6 
REMARK    4  A    between atoms: C5_7  and  C6_8 
REMARK    5  A    between atoms: C11_13  and  C12_14 
REMARK    6  A    between atoms: C12_14  and  O3_15 
REMARK    7  A    between atoms: O3_15  and  C13_16 
REMARK    8  A    between atoms: C13_16  and  C14_17 
REMARK    9  A    between atoms: C14_17  and  C15_18 
REMARK   10  A    between atoms: C15_18  and  N1_19 
ROOT
HETATM    1  C6  UNL     1      23.835  -0.097  53.534  1.00  0.00    -0.028 A 
HETATM    2  C7  UNL     1      23.545  -0.911  54.608  1.00  0.00     0.012 A 
HETATM    3  C8  UNL     1      22.232  -1.207  54.968  1.00  0.00     0.001 A 
HETATM    4  C9  UNL     1      21.222  -0.660  54.216  1.00  0.00     0.001 A 
HETATM    5  C10 UNL     1      21.546   0.148  53.150  1.00  0.00     0.010 A 
HETATM    6  C11 UNL     1      22.834   0.455  52.775  1.00  0.00    -0.024 A 
ENDROOT
BRANCH   6   7
HETATM    7  C12 UNL     1      23.166   1.335  51.601  1.00  0.00     0.207 C 
BRANCH   7   8
HETATM    8  O3  UNL     1      22.255   1.104  50.603  1.00  0.00    -0.387 OA
BRANCH   8   9
HETATM    9  C13 UNL     1      22.246   1.987  49.558  1.00  0.00     0.169 C 
BRANCH   9  10
HETATM   10  C14 UNL     1      22.964   3.256  49.885  1.00  0.00     0.056 C 
BRANCH  10  11
HETATM   11  C15 UNL     1      21.993   4.436  49.965  1.00  0.00     0.273 C 
BRANCH  11  12
HETATM   12  N1  UNL     1      22.690   5.559  50.596  1.00  0.00     0.080 N 
HETATM   13  C16 UNL     1      23.260   5.077  51.860  1.00  0.00     0.309 C 
HETATM   14  C17 UNL     1      21.691   6.553  50.912  1.00  0.00     0.309 C 
ENDBRANCH  11  12
ENDBRANCH  10  11
ENDBRANCH   9  10
ENDBRANCH   8   9
ENDBRANCH   7   8
ENDBRANCH   6   7
BRANCH   1  15
HETATM   15  C5  UNL     1      25.243   0.152  53.252  1.00  0.00     0.008 C 
HETATM   16  C4  UNL     1      26.137  -0.728  52.865  1.00  0.00    -0.016 C 
BRANCH  16  17
HETATM   17  C3  UNL     1      27.559  -0.325  52.611  1.00  0.00     0.138 C 
BRANCH  17  18
HETATM   18  C2  UNL     1      28.371  -0.854  53.761  1.00  0.00     0.261 C 
HETATM   19  O2  UNL     1      28.625  -2.045  53.449  1.00  0.00    -0.265 OA
BRANCH  18  20
HETATM   20  O1  UNL     1      28.562   0.100  54.741  1.00  0.00    -0.326 OA
HETATM   21  C1  UNL     1      29.171   1.332  54.353  1.00  0.00     0.213 C 
ENDBRANCH  18  20
ENDBRANCH  17  18
ENDBRANCH  16  17
ENDBRANCH   1  15
TORSDOF 10
ENDMDL
MODEL 9
REMARK VINA RESULT:      -5.7      4.565      9.055
REMARK  10 active torsions:
REMARK  status: ('A' for Active; 'I' for Inactive)
REMARK    1  A    between atoms: O1_2  and  C2_3 
REMARK    2  A    between atoms: C2_3  and  C3_5 
REMARK    3  A    between atoms: C3_5  and  C4_6 
REMARK    4  A    between atoms: C5_7  and  C6_8 
REMARK    5  A    between atoms: C11_13  and  C12_14 
REMARK    6  A    between atoms: C12_14  and  O3_15 
REMARK    7  A    between atoms: O3_15  and  C13_16 
REMARK    8  A    between atoms: C13_16  and  C14_17 
REMARK    9  A    between atoms: C14_17  and  C15_18 
REMARK   10  A    between atoms: C15_18  and  N1_19 
ROOT
HETATM    1  C6  UNL     1      26.980   5.480  48.680  1.00  0.00    -0.028 A 
HETATM    2  C7  UNL     1      26.475   6.709  48.318  1.00  0.00     0.012 A 
HETATM    3  C8  UNL     1      25.122   7.015  48.453  1.00  0.00     0.001 A 
HETATM    4  C9  UNL     1      24.295   6.045  48.965  1.00  0.00     0.001 A 
HETATM    5  C10 UNL     1      24.831   4.829  49.318  1.00  0.00     0.010 A 
HETATM    6  C11 UNL     1      26.163   4.503  49.193  1.00  0.00    -0.024 A 
ENDROOT
BRANCH   6   7
HETATM    7  C12 UNL     1      26.729   3.169  49.592  1.00  0.00     0.207 C 
BRANCH   7   8
HETATM    8  O3  UNL     1      27.118   3.226  50.905  1.00  0.00    -0.387 OA
BRANCH   8   9
HETATM    9  C13 UNL     1      26.547   2.324  51.759  1.00  0.00     0.169 C 
BRANCH   9  10
HETATM   10  C14 UNL     1      27.567   1.564  52.542  1.00  0.00     0.056 C 
BRANCH  10  11
HETATM   11  C15 UNL     1      27.167   0.095  52.695  1.00  0.00     0.273 C 
BRANCH  11  12
HETATM   12  N1  UNL     1      27.485  -0.325  54.061  1.00  0.00     0.080 N 
HETATM   13  C16 UNL     1      26.406   0.144  54.936  1.00  0.00     0.309 C 
HETATM   14  C17 UNL     1      28.696   0.363  54.443  1.00  0.00     0.309 C 
ENDBRANCH  11  12
ENDBRANCH  10  11
ENDBRANCH   9  10
ENDBRANCH   8   9
ENDBRANCH   7   8
ENDBRANCH   6   7
BRANCH   1  15
HETATM   15  C5  UNL     1      28.408   5.266  48.488  1.00  0.00     0.008 C 
HETATM   16  C4  UNL     1      29.315   6.181  48.234  1.00  0.00    -0.016 C 
BRANCH  16  17
HETATM   17  C3  UNL     1      30.758   5.812  48.058  1.00  0.00     0.138 C 
BRANCH  17  18
HETATM   18  C2  UNL     1      31.497   6.377  49.241  1.00  0.00     0.261 C 
HETATM   19  O2  UNL     1      31.550   5.428  50.064  1.00  0.00    -0.265 OA
BRANCH  18  20
HETATM   20  O1  UNL     1      31.857   7.696  49.042  1.00  0.00    -0.326 OA
HETATM   21  C1  UNL     1      32.687   7.991  47.919  1.00  0.00     0.213 C 
ENDBRANCH  18  20
ENDBRANCH  17  18
ENDBRANCH  16  17
ENDBRANCH   1  15
TORSDOF 10
ENDMDL
