MODEL 1
REMARK VINA RESULT:      -8.2      0.000      0.000
REMARK  4 active torsions:
REMARK  status: ('A' for Active; 'I' for Inactive)
REMARK    1  A    between atoms: O1_2  and  C2_3 
REMARK    2  A    between atoms: C2_3  and  C3_4 
REMARK    3  A    between atoms: C9_10  and  N1_11 
REMARK       I    between atoms: N1_11  and  C10_12 
REMARK       I    between atoms: C10_12  and  N2_14 
REMARK    4  A    between atoms: C17_21  and  O3_22 
ROOT
HETATM    1  C3  UNL     1      19.966   2.928  51.286  1.00  0.00     0.095 A 
HETATM    2  C4  UNL     1      20.399   3.377  52.645  1.00  0.00     0.055 A 
HETATM    3  C5  UNL     1      20.033   2.149  52.571  1.00  0.00     0.071 A 
HETATM    4  C6  UNL     1      20.708   1.054  53.352  1.00  0.00     0.126 A 
HETATM    5  C7  UNL     1      21.853   0.385  53.535  1.00  0.00     0.018 C 
HETATM    6  C8  UNL     1      23.289  -0.117  53.440  1.00  0.00     0.001 C 
HETATM    7  C9  UNL     1      23.805   0.655  52.481  1.00  0.00     0.014 C 
HETATM    8  C16 UNL     1      23.691   1.802  51.611  1.00  0.00     0.117 C 
HETATM    9  C17 UNL     1      23.094   1.689  50.256  1.00  0.00     0.267 C 
HETATM   10  O4  UNL     1      21.785   1.263  50.222  1.00  0.00    -0.331 OA
HETATM   11  C18 UNL     1      20.951   1.441  49.149  1.00  0.00     0.155 C 
HETATM   12  C19 UNL     1      19.604   1.650  49.369  1.00  0.00     0.116 C 
HETATM   13  N3  UNL     1      19.478   1.611  50.838  1.00  0.00    -0.340 N 
HETATM   14  C20 UNL     1      19.182   0.281  51.324  1.00  0.00     0.155 A 
HETATM   15  N4  UNL     1      19.607   0.849  52.346  1.00  0.00    -0.258 NA
ENDROOT
BRANCH   7  16
HETATM   16  N1  UNL     1      25.115  -0.050  52.612  1.00  0.00    -0.312 N 
HETATM   17  C10 UNL     1      26.122   0.873  53.131  1.00  0.00     0.326 C 
HETATM   18  O2  UNL     1      25.984   2.072  53.424  1.00  0.00    -0.246 OA
HETATM   19  N2  UNL     1      27.394   0.276  53.303  1.00  0.00    -0.306 N 
HETATM   20  C11 UNL     1      27.747  -1.072  53.009  1.00  0.00     0.096 A 
HETATM   21  C15 UNL     1      28.460   1.084  53.818  1.00  0.00     0.160 A 
HETATM   22  C12 UNL     1      28.933  -1.606  53.175  1.00  0.00     0.017 A 
HETATM   23  C13 UNL     1      30.081  -0.879  53.697  1.00  0.00    -0.001 A 
HETATM   24  C14 UNL     1      29.716   0.370  53.954  1.00  0.00    -0.007 A 
HETATM   25  H9  UNL     1      25.214  -1.054  52.375  1.00  0.00     0.170 HD
ENDBRANCH   7  16
BRANCH   9  26
HETATM   26  O3  UNL     1      23.069   3.024  49.718  1.00  0.00    -0.371 OA
HETATM   27  H19 UNL     1      23.363   3.648  50.443  1.00  0.00     0.212 HD
ENDBRANCH   9  26
BRANCH   1  28
HETATM   28  C2  UNL     1      19.974   3.836  50.280  1.00  0.00     0.183 C 
BRANCH  28  29
HETATM   29  O1  UNL     1      20.160   4.880  49.376  1.00  0.00    -0.385 OA
HETATM   30  C1  UNL     1      19.214   5.896  49.185  1.00  0.00     0.202 C 
ENDBRANCH  28  29
ENDBRANCH   1  28
TORSDOF 4
ENDMDL
MODEL 2
REMARK VINA RESULT:      -7.8      9.390     10.523
REMARK  4 active torsions:
REMARK  status: ('A' for Active; 'I' for Inactive)
REMARK    1  A    between atoms: O1_2  and  C2_3 
REMARK    2  A    between atoms: C2_3  and  C3_4 
REMARK    3  A    between atoms: C9_10  and  N1_11 
REMARK       I    between atoms: N1_11  and  C10_12 
REMARK       I    between atoms: C10_12  and  N2_14 
REMARK    4  A    between atoms: C17_21  and  O3_22 
ROOT
HETATM    1  C3  UNL     1      27.107   9.995  48.573  1.00  0.00     0.095 A 
HETATM    2  C4  UNL     1      26.942   9.127  49.781  1.00  0.00     0.055 A 
HETATM    3  C5  UNL     1      26.665   8.559  48.663  1.00  0.00     0.071 A 
HETATM    4  C6  UNL     1      26.989   7.116  48.384  1.00  0.00     0.126 A 
HETATM    5  C7  UNL     1      27.976   6.224  48.244  1.00  0.00     0.018 C 
HETATM    6  C8  UNL     1      29.338   5.544  48.163  1.00  0.00     0.001 C 
HETATM    7  C9  UNL     1      30.181   6.553  48.394  1.00  0.00     0.014 C 
HETATM    8  C16 UNL     1      30.405   7.917  48.811  1.00  0.00     0.117 C 
HETATM    9  C17 UNL     1      30.410   9.034  47.833  1.00  0.00     0.267 C 
HETATM   10  O4  UNL     1      29.236   9.213  47.136  1.00  0.00    -0.331 OA
HETATM   11  C18 UNL     1      28.905  10.371  46.482  1.00  0.00     0.155 C 
HETATM   12  C19 UNL     1      27.579  10.755  46.420  1.00  0.00     0.116 C 
HETATM   13  N3  UNL     1      26.870   9.688  47.151  1.00  0.00    -0.340 N 
HETATM   14  C20 UNL     1      26.432   8.625  46.274  1.00  0.00     0.155 A 
HETATM   15  N4  UNL     1      26.394   8.079  47.391  1.00  0.00    -0.258 NA
ENDROOT
BRANCH   7  16
HETATM   16  N1  UNL     1      31.341   5.625  48.240  1.00  0.00    -0.312 N 
HETATM   17  C10 UNL     1      31.926   5.782  46.910  1.00  0.00     0.326 C 
HETATM   18  O2  UNL     1      31.559   6.538  45.996  1.00  0.00    -0.246 OA
HETATM   19  N2  UNL     1      33.048   4.947  46.688  1.00  0.00    -0.306 N 
HETATM   20  C11 UNL     1      33.604   4.009  47.605  1.00  0.00     0.096 A 
HETATM   21  C15 UNL     1      33.712   5.024  45.421  1.00  0.00     0.160 A 
HETATM   22  C12 UNL     1      34.644   3.244  47.380  1.00  0.00     0.017 A 
HETATM   23  C13 UNL     1      35.395   3.246  46.133  1.00  0.00    -0.001 A 
HETATM   24  C14 UNL     1      34.847   4.126  45.305  1.00  0.00    -0.007 A 
HETATM   25  H9  UNL     1      31.644   5.008  49.014  1.00  0.00     0.170 HD
ENDBRANCH   7  16
BRANCH   9  26
HETATM   26  O3  UNL     1      30.576  10.239  48.605  1.00  0.00    -0.371 OA
HETATM   27  H19 UNL     1      29.677  10.498  48.958  1.00  0.00     0.212 HD
ENDBRANCH   9  26
BRANCH   1  28
HETATM   28  C2  UNL     1      27.501  11.278  48.758  1.00  0.00     0.183 C 
BRANCH  28  29
HETATM   29  O1  UNL     1      28.008  12.514  49.156  1.00  0.00    -0.385 OA
HETATM   30  C1  UNL     1      27.655  13.715  48.528  1.00  0.00     0.202 C 
ENDBRANCH  28  29
ENDBRANCH   1  28
TORSDOF 4
ENDMDL
MODEL 3
REMARK VINA RESULT:      -7.6      1.802      2.603
REMARK  4 active torsions:
REMARK  status: ('A' for Active; 'I' for Inactive)
REMARK    1  A    between atoms: O1_2  and  C2_3 
REMARK    2  A    between atoms: C2_3  and  C3_4 
REMARK    3  A    between atoms: C9_10  and  N1_11 
REMARK       I    between atoms: N1_11  and  C10_12 
REMARK       I    between atoms: C10_12  and  N2_14 
REMARK    4  A    between atoms: C17_21  and  O3_22 
ROOT
HETATM    1  C3  UNL     1      20.140   4.057  49.404  1.00  0.00     0.095 A 
HETATM    2  C4  UNL     1      20.796   5.377  49.655  1.00  0.00     0.055 A 
HETATM    3  C5  UNL     1      20.453   4.733  50.712  1.00  0.00     0.071 A 
HETATM    4  C6  UNL     1      21.283   4.735  51.967  1.00  0.00     0.126 A 
HETATM    5  C7  UNL     1      22.458   4.385  52.503  1.00  0.00     0.018 C 
HETATM    6  C8  UNL     1      23.866   3.845  52.725  1.00  0.00     0.001 C 
HETATM    7  C9  UNL     1      24.184   3.360  51.523  1.00  0.00     0.014 C 
HETATM    8  C16 UNL     1      23.891   3.231  50.115  1.00  0.00     0.117 C 
HETATM    9  C17 UNL     1      23.066   2.111  49.596  1.00  0.00     0.267 C 
HETATM   10  O4  UNL     1      21.782   2.045  50.090  1.00  0.00    -0.331 OA
HETATM   11  C18 UNL     1      20.767   1.346  49.491  1.00  0.00     0.155 C 
HETATM   12  C19 UNL     1      19.475   1.828  49.574  1.00  0.00     0.116 C 
HETATM   13  N3  UNL     1      19.613   3.067  50.362  1.00  0.00    -0.340 N 
HETATM   14  C20 UNL     1      19.440   2.835  51.778  1.00  0.00     0.155 A 
HETATM   15  N4  UNL     1      20.025   3.932  51.760  1.00  0.00    -0.258 NA
ENDROOT
BRANCH   7  16
HETATM   16  N1  UNL     1      25.514   2.925  52.046  1.00  0.00    -0.312 N 
HETATM   17  C10 UNL     1      25.490   1.490  52.324  1.00  0.00     0.326 C 
HETATM   18  O2  UNL     1      24.543   0.699  52.185  1.00  0.00    -0.246 OA
HETATM   19  N2  UNL     1      26.723   0.992  52.808  1.00  0.00    -0.306 N 
HETATM   20  C11 UNL     1      27.909   1.744  53.046  1.00  0.00     0.096 A 
HETATM   21  C15 UNL     1      26.822  -0.406  53.105  1.00  0.00     0.160 A 
HETATM   22  C12 UNL     1      29.043   1.264  53.496  1.00  0.00     0.017 A 
HETATM   23  C13 UNL     1      29.254  -0.139  53.822  1.00  0.00    -0.001 A 
HETATM   24  C14 UNL     1      28.130  -0.806  53.592  1.00  0.00    -0.007 A 
HETATM   25  H9  UNL     1      26.299   3.593  52.146  1.00  0.00     0.170 HD
ENDBRANCH   7  16
BRANCH   9  26
HETATM   26  O3  UNL     1      22.913   2.348  48.185  1.00  0.00    -0.371 OA
HETATM   27  H19 UNL     1      23.794   2.665  47.833  1.00  0.00     0.212 HD
ENDBRANCH   9  26
BRANCH   1  28
HETATM   28  C2  UNL     1      19.948   3.673  48.119  1.00  0.00     0.183 C 
BRANCH  28  29
HETATM   29  O1  UNL     1      19.893   3.471  46.741  1.00  0.00    -0.385 OA
HETATM   30  C1  UNL     1      20.844   4.000  45.859  1.00  0.00     0.202 C 
ENDBRANCH  28  29
ENDBRANCH   1  28
TORSDOF 4
ENDMDL
MODEL 4
REMARK VINA RESULT:      -7.5      2.429      3.477
REMARK  4 active torsions:
REMARK  status: ('A' for Active; 'I' for Inactive)
REMARK    1  A    between atoms: O1_2  and  C2_3 
REMARK    2  A    between atoms: C2_3  and  C3_4 
REMARK    3  A    between atoms: C9_10  and  N1_11 
REMARK       I    between atoms: N1_11  and  C10_12 
REMARK       I    between atoms: C10_12  and  N2_14 
REMARK    4  A    between atoms: C17_21  and  O3_22 
ROOT
HETATM    1  C3  UNL     1      20.601   5.366  49.338  1.00  0.00     0.095 A 
HETATM    2  C4  UNL     1      19.709   4.411  50.064  1.00  0.00     0.055 A 
HETATM    3  C5  UNL     1      20.490   3.872  49.199  1.00  0.00     0.071 A 
HETATM    4  C6  UNL     1      21.136   2.530  49.415  1.00  0.00     0.126 A 
HETATM    5  C7  UNL     1      21.996   1.838  50.172  1.00  0.00     0.018 C 
HETATM    6  C8  UNL     1      23.007   1.419  51.232  1.00  0.00     0.001 C 
HETATM    7  C9  UNL     1      23.187   2.545  51.925  1.00  0.00     0.014 C 
HETATM    8  C16 UNL     1      22.785   3.899  52.225  1.00  0.00     0.117 C 
HETATM    9  C17 UNL     1      23.363   5.058  51.498  1.00  0.00     0.267 C 
HETATM   10  O4  UNL     1      23.148   5.067  50.137  1.00  0.00    -0.331 OA
HETATM   11  C18 UNL     1      23.262   6.185  49.353  1.00  0.00     0.155 C 
HETATM   12  C19 UNL     1      22.431   6.329  48.259  1.00  0.00     0.116 C 
HETATM   13  N3  UNL     1      21.601   5.110  48.286  1.00  0.00    -0.340 N 
HETATM   14  C20 UNL     1      22.177   4.042  47.499  1.00  0.00     0.155 A 
HETATM   15  N4  UNL     1      21.380   3.431  48.232  1.00  0.00    -0.258 NA
ENDROOT
BRANCH   7  16
HETATM   16  N1  UNL     1      24.170   1.850  52.808  1.00  0.00    -0.312 N 
HETATM   17  C10 UNL     1      25.531   2.158  52.372  1.00  0.00     0.326 C 
HETATM   18  O2  UNL     1      25.887   2.866  51.417  1.00  0.00    -0.246 OA
HETATM   19  N2  UNL     1      26.527   1.550  53.173  1.00  0.00    -0.306 N 
HETATM   20  C11 UNL     1      26.314   0.698  54.294  1.00  0.00     0.096 A 
HETATM   21  C15 UNL     1      27.902   1.791  52.847  1.00  0.00     0.160 A 
HETATM   22  C12 UNL     1      27.251   0.142  55.023  1.00  0.00     0.017 A 
HETATM   23  C13 UNL     1      28.676   0.326  54.784  1.00  0.00    -0.001 A 
HETATM   24  C14 UNL     1      28.835   1.119  53.733  1.00  0.00    -0.007 A 
HETATM   25  H9  UNL     1      23.860   1.272  53.610  1.00  0.00     0.170 HD
ENDBRANCH   7  16
BRANCH   9  26
HETATM   26  O3  UNL     1      22.677   6.223  51.994  1.00  0.00    -0.371 OA
HETATM   27  H19 UNL     1      21.741   6.195  51.645  1.00  0.00     0.212 HD
ENDBRANCH   9  26
BRANCH   1  28
HETATM   28  C2  UNL     1      20.497   6.685  49.630  1.00  0.00     0.183 C 
BRANCH  28  29
HETATM   29  O1  UNL     1      20.179   7.979  50.040  1.00  0.00    -0.385 OA
HETATM   30  C1  UNL     1      19.341   8.823  49.301  1.00  0.00     0.202 C 
ENDBRANCH  28  29
ENDBRANCH   1  28
TORSDOF 4
ENDMDL
MODEL 5
REMARK VINA RESULT:      -7.3      6.964      8.536
REMARK  4 active torsions:
REMARK  status: ('A' for Active; 'I' for Inactive)
REMARK    1  A    between atoms: O1_2  and  C2_3 
REMARK    2  A    between atoms: C2_3  and  C3_4 
REMARK    3  A    between atoms: C9_10  and  N1_11 
REMARK       I    between atoms: N1_11  and  C10_12 
REMARK       I    between atoms: C10_12  and  N2_14 
REMARK    4  A    between atoms: C17_21  and  O3_22 
ROOT
HETATM    1  C3  UNL     1      25.801  10.449  47.549  1.00  0.00     0.095 A 
HETATM    2  C4  UNL     1      24.316  10.430  47.720  1.00  0.00     0.055 A 
HETATM    3  C5  UNL     1      24.780   9.541  46.918  1.00  0.00     0.071 A 
HETATM    4  C6  UNL     1      24.207   8.153  46.827  1.00  0.00     0.126 A 
HETATM    5  C7  UNL     1      23.999   7.009  47.490  1.00  0.00     0.018 C 
HETATM    6  C8  UNL     1      23.956   5.916  48.552  1.00  0.00     0.001 C 
HETATM    7  C9  UNL     1      24.562   6.495  49.590  1.00  0.00     0.014 C 
HETATM    8  C16 UNL     1      25.101   7.681  50.214  1.00  0.00     0.117 C 
HETATM    9  C17 UNL     1      26.524   8.069  50.038  1.00  0.00     0.267 C 
HETATM   10  O4  UNL     1      26.913   8.314  48.740  1.00  0.00    -0.331 OA
HETATM   11  C18 UNL     1      28.035   9.022  48.399  1.00  0.00     0.155 C 
HETATM   12  C19 UNL     1      28.022   9.798  47.256  1.00  0.00     0.116 C 
HETATM   13  N3  UNL     1      26.666   9.597  46.711  1.00  0.00    -0.340 N 
HETATM   14  C20 UNL     1      26.615   8.503  45.768  1.00  0.00     0.155 A 
HETATM   15  N4  UNL     1      25.418   8.642  46.077  1.00  0.00    -0.258 NA
ENDROOT
BRANCH   7  16
HETATM   16  N1  UNL     1      24.382   5.251  50.395  1.00  0.00    -0.312 N 
HETATM   17  C10 UNL     1      25.566   4.403  50.266  1.00  0.00     0.326 C 
HETATM   18  O2  UNL     1      26.591   4.616  49.598  1.00  0.00    -0.246 OA
HETATM   19  N2  UNL     1      25.484   3.206  51.017  1.00  0.00    -0.306 N 
HETATM   20  C11 UNL     1      24.390   2.784  51.827  1.00  0.00     0.096 A 
HETATM   21  C15 UNL     1      26.594   2.301  50.977  1.00  0.00     0.160 A 
HETATM   22  C12 UNL     1      24.332   1.670  52.515  1.00  0.00     0.017 A 
HETATM   23  C13 UNL     1      25.404   0.685  52.550  1.00  0.00    -0.001 A 
HETATM   24  C14 UNL     1      26.401   1.109  51.784  1.00  0.00    -0.007 A 
HETATM   25  H9  UNL     1      23.527   5.091  50.958  1.00  0.00     0.170 HD
ENDBRANCH   7  16
BRANCH   9  26
HETATM   26  O3  UNL     1      26.682   9.327  50.720  1.00  0.00    -0.371 OA
HETATM   27  H19 UNL     1      25.842   9.853  50.584  1.00  0.00     0.212 HD
ENDBRANCH   9  26
BRANCH   1  28
HETATM   28  C2  UNL     1      26.510  11.391  48.218  1.00  0.00     0.183 C 
BRANCH  28  29
HETATM   29  O1  UNL     1      27.024  12.480  48.919  1.00  0.00    -0.385 OA
HETATM   30  C1  UNL     1      27.943  13.376  48.359  1.00  0.00     0.202 C 
ENDBRANCH  28  29
ENDBRANCH   1  28
TORSDOF 4
ENDMDL
MODEL 6
REMARK VINA RESULT:      -7.1      7.114      8.625
REMARK  4 active torsions:
REMARK  status: ('A' for Active; 'I' for Inactive)
REMARK    1  A    between atoms: O1_2  and  C2_3 
REMARK    2  A    between atoms: C2_3  and  C3_4 
REMARK    3  A    between atoms: C9_10  and  N1_11 
REMARK       I    between atoms: N1_11  and  C10_12 
REMARK       I    between atoms: C10_12  and  N2_14 
REMARK    4  A    between atoms: C17_21  and  O3_22 
ROOT
HETATM    1  C3  UNL     1      22.651   4.854  49.652  1.00  0.00     0.095 A 
HETATM    2  C4  UNL     1      23.842   4.396  48.872  1.00  0.00     0.055 A 
HETATM    3  C5  UNL     1      23.078   5.226  48.258  1.00  0.00     0.071 A 
HETATM    4  C6  UNL     1      23.611   6.294  47.342  1.00  0.00     0.126 A 
HETATM    5  C7  UNL     1      24.361   7.400  47.269  1.00  0.00     0.018 C 
HETATM    6  C8  UNL     1      25.257   8.588  47.598  1.00  0.00     0.001 C 
HETATM    7  C9  UNL     1      25.450   8.453  48.912  1.00  0.00     0.014 C 
HETATM    8  C16 UNL     1      25.330   7.658  50.112  1.00  0.00     0.117 C 
HETATM    9  C17 UNL     1      24.134   7.753  50.986  1.00  0.00     0.267 C 
HETATM   10  O4  UNL     1      22.939   7.421  50.389  1.00  0.00    -0.331 OA
HETATM   11  C18 UNL     1      21.804   7.088  51.082  1.00  0.00     0.155 C 
HETATM   12  C19 UNL     1      20.936   6.156  50.546  1.00  0.00     0.116 C 
HETATM   13  N3  UNL     1      21.569   5.779  49.269  1.00  0.00    -0.340 N 
HETATM   14  C20 UNL     1      21.108   6.597  48.169  1.00  0.00     0.155 A 
HETATM   15  N4  UNL     1      22.163   6.118  47.718  1.00  0.00    -0.258 NA
ENDROOT
BRANCH   7  16
HETATM   16  N1  UNL     1      26.290   9.687  48.920  1.00  0.00    -0.312 N 
HETATM   17  C10 UNL     1      27.703   9.323  49.009  1.00  0.00     0.326 C 
HETATM   18  O2  UNL     1      28.197   8.186  49.083  1.00  0.00    -0.246 OA
HETATM   19  N2  UNL     1      28.572  10.440  49.003  1.00  0.00    -0.306 N 
HETATM   20  C11 UNL     1      28.193  11.812  48.940  1.00  0.00     0.096 A 
HETATM   21  C15 UNL     1      29.984  10.203  49.074  1.00  0.00     0.160 A 
HETATM   22  C12 UNL     1      29.014  12.834  48.937  1.00  0.00     0.017 A 
HETATM   23  C13 UNL     1      30.463  12.706  48.999  1.00  0.00    -0.001 A 
HETATM   24  C14 UNL     1      30.777  11.419  49.061  1.00  0.00    -0.007 A 
HETATM   25  H9  UNL     1      25.866  10.629  48.846  1.00  0.00     0.170 HD
ENDBRANCH   7  16
BRANCH   9  26
HETATM   26  O3  UNL     1      24.320   6.773  52.025  1.00  0.00    -0.371 OA
HETATM   27  H19 UNL     1      25.289   6.773  52.271  1.00  0.00     0.212 HD
ENDBRANCH   9  26
BRANCH   1  28
HETATM   28  C2  UNL     1      22.472   4.351  50.898  1.00  0.00     0.183 C 
BRANCH  28  29
HETATM   29  O1  UNL     1      22.513   3.738  52.149  1.00  0.00    -0.385 OA
HETATM   30  C1  UNL     1      23.676   3.156  52.670  1.00  0.00     0.202 C 
ENDBRANCH  28  29
ENDBRANCH   1  28
TORSDOF 4
ENDMDL
MODEL 7
REMARK VINA RESULT:      -7.1      5.547      6.971
REMARK  4 active torsions:
REMARK  status: ('A' for Active; 'I' for Inactive)
REMARK    1  A    between atoms: O1_2  and  C2_3 
REMARK    2  A    between atoms: C2_3  and  C3_4 
REMARK    3  A    between atoms: C9_10  and  N1_11 
REMARK       I    between atoms: N1_11  and  C10_12 
REMARK       I    between atoms: C10_12  and  N2_14 
REMARK    4  A    between atoms: C17_21  and  O3_22 
ROOT
HETATM    1  C3  UNL     1      21.473   3.251  50.541  1.00  0.00     0.095 A 
HETATM    2  C4  UNL     1      22.575   2.655  51.358  1.00  0.00     0.055 A 
HETATM    3  C5  UNL     1      22.783   2.665  50.091  1.00  0.00     0.071 A 
HETATM    4  C6  UNL     1      24.142   2.915  49.494  1.00  0.00     0.126 A 
HETATM    5  C7  UNL     1      25.129   3.807  49.356  1.00  0.00     0.018 C 
HETATM    6  C8  UNL     1      25.995   5.060  49.430  1.00  0.00     0.001 C 
HETATM    7  C9  UNL     1      25.243   5.892  50.153  1.00  0.00     0.014 C 
HETATM    8  C16 UNL     1      24.090   6.115  50.994  1.00  0.00     0.117 C 
HETATM    9  C17 UNL     1      22.780   6.516  50.421  1.00  0.00     0.267 C 
HETATM   10  O4  UNL     1      22.227   5.623  49.531  1.00  0.00    -0.331 OA
HETATM   11  C18 UNL     1      20.902   5.613  49.182  1.00  0.00     0.155 C 
HETATM   12  C19 UNL     1      20.287   4.409  48.899  1.00  0.00     0.116 C 
HETATM   13  N3  UNL     1      21.363   3.415  49.080  1.00  0.00    -0.340 N 
HETATM   14  C20 UNL     1      22.074   3.153  47.849  1.00  0.00     0.155 A 
HETATM   15  N4  UNL     1      22.870   2.735  48.708  1.00  0.00    -0.258 NA
ENDROOT
BRANCH   7  16
HETATM   16  N1  UNL     1      26.291   6.949  50.036  1.00  0.00    -0.312 N 
HETATM   17  C10 UNL     1      26.012   7.793  48.875  1.00  0.00     0.326 C 
HETATM   18  O2  UNL     1      25.078   7.696  48.064  1.00  0.00    -0.246 OA
HETATM   19  N2  UNL     1      26.953   8.837  48.703  1.00  0.00    -0.306 N 
HETATM   20  C11 UNL     1      28.092   9.098  49.518  1.00  0.00     0.096 A 
HETATM   21  C15 UNL     1      26.775   9.737  47.603  1.00  0.00     0.160 A 
HETATM   22  C12 UNL     1      28.954  10.070  49.340  1.00  0.00     0.017 A 
HETATM   23  C13 UNL     1      28.863  11.043  48.261  1.00  0.00    -0.001 A 
HETATM   24  C14 UNL     1      27.796  10.767  47.523  1.00  0.00    -0.007 A 
HETATM   25  H9  UNL     1      27.058   7.027  50.727  1.00  0.00     0.170 HD
ENDBRANCH   7  16
BRANCH   9  26
HETATM   26  O3  UNL     1      21.859   6.564  51.526  1.00  0.00    -0.371 OA
HETATM   27  H19 UNL     1      21.399   5.678  51.576  1.00  0.00     0.212 HD
ENDBRANCH   9  26
BRANCH   1  28
HETATM   28  C2  UNL     1      20.368   3.698  51.187  1.00  0.00     0.183 C 
BRANCH  28  29
HETATM   29  O1  UNL     1      19.222   3.930  51.945  1.00  0.00    -0.385 OA
HETATM   30  C1  UNL     1      17.949   3.508  51.542  1.00  0.00     0.202 C 
ENDBRANCH  28  29
ENDBRANCH   1  28
TORSDOF 4
ENDMDL
MODEL 8
REMARK VINA RESULT:      -7.0      3.922      8.675
REMARK  4 active torsions:
REMARK  status: ('A' for Active; 'I' for Inactive)
REMARK    1  A    between atoms: O1_2  and  C2_3 
REMARK    2  A    between atoms: C2_3  and  C3_4 
REMARK    3  A    between atoms: C9_10  and  N1_11 
REMARK       I    between atoms: N1_11  and  C10_12 
REMARK       I    between atoms: C10_12  and  N2_14 
REMARK    4  A    between atoms: C17_21  and  O3_22 
ROOT
HETATM    1  C3  UNL     1      23.163   3.212  49.290  1.00  0.00     0.095 A 
HETATM    2  C4  UNL     1      22.560   2.712  48.016  1.00  0.00     0.055 A 
HETATM    3  C5  UNL     1      22.360   1.964  49.041  1.00  0.00     0.071 A 
HETATM    4  C6  UNL     1      21.068   1.226  49.266  1.00  0.00     0.126 A 
HETATM    5  C7  UNL     1      19.755   1.360  49.487  1.00  0.00     0.018 C 
HETATM    6  C8  UNL     1      18.356   1.920  49.719  1.00  0.00     0.001 C 
HETATM    7  C9  UNL     1      18.561   3.238  49.681  1.00  0.00     0.014 C 
HETATM    8  C16 UNL     1      19.430   4.355  49.393  1.00  0.00     0.117 C 
HETATM    9  C17 UNL     1      20.315   4.935  50.434  1.00  0.00     0.267 C 
HETATM   10  O4  UNL     1      21.246   4.070  50.965  1.00  0.00    -0.331 OA
HETATM   11  C18 UNL     1      22.368   4.474  51.641  1.00  0.00     0.155 C 
HETATM   12  C19 UNL     1      23.525   3.727  51.535  1.00  0.00     0.116 C 
HETATM   13  N3  UNL     1      23.147   2.618  50.640  1.00  0.00    -0.340 N 
HETATM   14  C20 UNL     1      22.666   1.467  51.370  1.00  0.00     0.155 A 
HETATM   15  N4  UNL     1      22.229   1.255  50.226  1.00  0.00    -0.258 NA
ENDROOT
BRANCH   7  16
HETATM   16  N1  UNL     1      17.109   3.475  49.938  1.00  0.00    -0.312 N 
HETATM   17  C10 UNL     1      16.887   3.674  51.370  1.00  0.00     0.326 C 
HETATM   18  O2  UNL     1      17.725   3.648  52.285  1.00  0.00    -0.246 OA
HETATM   19  N2  UNL     1      15.533   3.924  51.698  1.00  0.00    -0.306 N 
HETATM   20  C11 UNL     1      14.435   3.977  50.792  1.00  0.00     0.096 A 
HETATM   21  C15 UNL     1      15.197   4.146  53.073  1.00  0.00     0.160 A 
HETATM   22  C12 UNL     1      13.186   4.209  51.116  1.00  0.00     0.017 A 
HETATM   23  C13 UNL     1      12.737   4.454  52.480  1.00  0.00    -0.001 A 
HETATM   24  C14 UNL     1      13.783   4.394  53.293  1.00  0.00    -0.007 A 
HETATM   25  H9  UNL     1      16.422   3.506  49.164  1.00  0.00     0.170 HD
ENDBRANCH   7  16
BRANCH   9  26
HETATM   26  O3  UNL     1      21.086   5.959  49.778  1.00  0.00    -0.371 OA
HETATM   27  H19 UNL     1      21.230   6.698  50.436  1.00  0.00     0.212 HD
ENDBRANCH   9  26
BRANCH   1  28
HETATM   28  C2  UNL     1      23.869   4.368  49.252  1.00  0.00     0.183 C 
BRANCH  28  29
HETATM   29  O1  UNL     1      24.710   5.455  49.019  1.00  0.00    -0.385 OA
HETATM   30  C1  UNL     1      26.106   5.359  49.074  1.00  0.00     0.202 C 
ENDBRANCH  28  29
ENDBRANCH   1  28
TORSDOF 4
ENDMDL
MODEL 9
REMARK VINA RESULT:      -7.0      6.260      7.504
REMARK  4 active torsions:
REMARK  status: ('A' for Active; 'I' for Inactive)
REMARK    1  A    between atoms: O1_2  and  C2_3 
REMARK    2  A    between atoms: C2_3  and  C3_4 
REMARK    3  A    between atoms: C9_10  and  N1_11 
REMARK       I    between atoms: N1_11  and  C10_12 
REMARK       I    between atoms: C10_12  and  N2_14 
REMARK    4  A    between atoms: C17_21  and  O3_22 
ROOT
HETATM    1  C3  UNL     1      22.273   4.129  49.968  1.00  0.00     0.095 A 
HETATM    2  C4  UNL     1      22.001   5.190  48.949  1.00  0.00     0.055 A 
HETATM    3  C5  UNL     1      22.065   5.606  50.162  1.00  0.00     0.071 A 
HETATM    4  C6  UNL     1      22.674   6.931  50.534  1.00  0.00     0.126 A 
HETATM    5  C7  UNL     1      23.801   7.652  50.549  1.00  0.00     0.018 C 
HETATM    6  C8  UNL     1      25.242   8.124  50.393  1.00  0.00     0.001 C 
HETATM    7  C9  UNL     1      25.839   7.062  49.848  1.00  0.00     0.014 C 
HETATM    8  C16 UNL     1      25.741   5.763  49.223  1.00  0.00     0.117 C 
HETATM    9  C17 UNL     1      25.771   4.515  50.027  1.00  0.00     0.267 C 
HETATM   10  O4  UNL     1      24.759   4.385  50.952  1.00  0.00    -0.331 OA
HETATM   11  C18 UNL     1      24.388   3.193  51.517  1.00  0.00     0.155 C 
HETATM   12  C19 UNL     1      23.061   2.982  51.839  1.00  0.00     0.116 C 
HETATM   13  N3  UNL     1      22.398   4.236  51.433  1.00  0.00    -0.340 N 
HETATM   14  C20 UNL     1      22.337   5.195  52.513  1.00  0.00     0.155 A 
HETATM   15  N4  UNL     1      22.153   5.911  51.512  1.00  0.00    -0.258 NA
ENDROOT
BRANCH   7  16
HETATM   16  N1  UNL     1      27.141   7.792  49.840  1.00  0.00    -0.312 N 
HETATM   17  C10 UNL     1      27.369   8.382  48.521  1.00  0.00     0.326 C 
HETATM   18  O2  UNL     1      26.643   8.314  47.517  1.00  0.00    -0.246 OA
HETATM   19  N2  UNL     1      28.579   9.111  48.435  1.00  0.00    -0.306 N 
HETATM   20  C11 UNL     1      29.541   9.287  49.470  1.00  0.00     0.096 A 
HETATM   21  C15 UNL     1      28.902   9.745  47.191  1.00  0.00     0.160 A 
HETATM   22  C12 UNL     1      30.658   9.966  49.369  1.00  0.00     0.017 A 
HETATM   23  C13 UNL     1      31.080  10.654  48.157  1.00  0.00    -0.001 A 
HETATM   24  C14 UNL     1      30.163  10.465  47.216  1.00  0.00    -0.007 A 
HETATM   25  H9  UNL     1      27.732   7.852  50.688  1.00  0.00     0.170 HD
ENDBRANCH   7  16
BRANCH   9  26
HETATM   26  O3  UNL     1      25.567   3.436  49.095  1.00  0.00    -0.371 OA
HETATM   27  H19 UNL     1      26.443   3.253  48.648  1.00  0.00     0.212 HD
ENDBRANCH   9  26
BRANCH   1  28
HETATM   28  C2  UNL     1      22.403   2.850  49.538  1.00  0.00     0.183 C 
BRANCH  28  29
HETATM   29  O1  UNL     1      22.352   1.590  48.945  1.00  0.00    -0.385 OA
HETATM   30  C1  UNL     1      21.307   0.686  49.174  1.00  0.00     0.202 C 
ENDBRANCH  28  29
ENDBRANCH   1  28
TORSDOF 4
ENDMDL
