MODEL 1
REMARK VINA RESULT:     -10.3      0.000      0.000
REMARK  2 active torsions:
REMARK  status: ('A' for Active; 'I' for Inactive)
REMARK    1  A    between atoms: C14_16  and  C15_17 
REMARK    2  A    between atoms: C18_21  and  C19_22 
ROOT
HETATM    1  C1  UNL     1      23.416   1.334  52.071  1.00  0.00     0.035 A 
HETATM    2  C2  UNL     1      22.975   1.904  50.824  1.00  0.00     0.007 A 
HETATM    3  C3  UNL     1      22.107   0.883  51.185  1.00  0.00     0.021 A 
HETATM    4  C4  UNL     1      21.911  -0.158  52.283  1.00  0.00     0.006 C 
HETATM    5  C5  UNL     1      22.144  -0.892  53.417  1.00  0.00     0.236 C 
HETATM    6  N1  UNL     1      23.186  -0.986  54.519  1.00  0.00     0.113 N 
HETATM    7  C6  UNL     1      24.625  -0.821  55.071  1.00  0.00     0.388 A 
HETATM    8  O1  UNL     1      23.783  -0.772  54.176  1.00  0.00    -0.140 OA
HETATM    9  C7  UNL     1      25.662  -0.344  54.017  1.00  0.00     0.017 A 
HETATM   10  C8  UNL     1      26.285  -1.306  53.255  1.00  0.00     0.012 A 
HETATM   11  C9  UNL     1      26.843  -0.920  52.006  1.00  0.00     0.002 A 
HETATM   12  C10 UNL     1      26.682   0.447  51.669  1.00  0.00     0.011 A 
HETATM   13  C11 UNL     1      26.028   1.264  52.557  1.00  0.00    -0.035 A 
HETATM   14  C12 UNL     1      25.473   0.999  53.797  1.00  0.00     0.024 A 
HETATM   15  C13 UNL     1      25.651   2.384  51.639  1.00  0.00     0.023 C 
HETATM   16  C14 UNL     1      24.394   2.546  50.992  1.00  0.00     0.001 C 
HETATM   17  H7  UNL     1      22.573  -1.343  55.382  1.00  0.00     0.328 HD
ENDROOT
BRANCH  16  18
HETATM   18  C15 UNL     1      24.236   3.737  50.202  1.00  0.00     0.156 A 
HETATM   19  N2  UNL     1      23.168   4.412  49.815  1.00  0.00    -0.241 NA
HETATM   20  C16 UNL     1      23.136   5.525  49.084  1.00  0.00     0.121 A 
HETATM   21  C17 UNL     1      24.339   6.035  48.680  1.00  0.00     0.052 A 
HETATM   22  C18 UNL     1      25.498   5.406  49.030  1.00  0.00     0.072 A 
HETATM   23  N4  UNL     1      25.334   4.336  49.745  1.00  0.00    -0.228 NA
BRANCH  22  24
HETATM   24  C19 UNL     1      26.807   5.892  48.621  1.00  0.00     0.010 A 
HETATM   25  C20 UNL     1      27.887   5.036  48.571  1.00  0.00     0.017 A 
HETATM   26  C21 UNL     1      29.140   5.487  48.184  1.00  0.00     0.020 A 
HETATM   27  C22 UNL     1      29.343   6.827  47.833  1.00  0.00     0.116 A 
HETATM   28  N3  UNL     1      28.272   7.657  47.886  1.00  0.00    -0.272 NA
HETATM   29  C23 UNL     1      27.073   7.188  48.265  1.00  0.00     0.130 A 
ENDBRANCH  22  24
ENDBRANCH  16  18
TORSDOF 2
ENDMDL
MODEL 2
REMARK VINA RESULT:     -10.1      2.777      7.535
REMARK  2 active torsions:
REMARK  status: ('A' for Active; 'I' for Inactive)
REMARK    1  A    between atoms: C14_16  and  C15_17 
REMARK    2  A    between atoms: C18_21  and  C19_22 
ROOT
HETATM    1  C1  UNL     1      25.685   4.218  50.520  1.00  0.00     0.035 A 
HETATM    2  C2  UNL     1      25.564   2.786  50.432  1.00  0.00     0.007 A 
HETATM    3  C3  UNL     1      26.480   3.220  49.484  1.00  0.00     0.021 A 
HETATM    4  C4  UNL     1      27.100   4.510  48.957  1.00  0.00     0.006 C 
HETATM    5  C5  UNL     1      27.357   5.849  48.809  1.00  0.00     0.236 C 
HETATM    6  N1  UNL     1      26.883   7.170  49.391  1.00  0.00     0.113 N 
HETATM    7  C6  UNL     1      25.821   8.076  50.066  1.00  0.00     0.388 A 
HETATM    8  O1  UNL     1      26.202   7.017  49.571  1.00  0.00    -0.140 OA
HETATM    9  C7  UNL     1      24.445   7.389  50.287  1.00  0.00     0.017 A 
HETATM   10  C8  UNL     1      23.534   7.441  49.257  1.00  0.00     0.012 A 
HETATM   11  C9  UNL     1      22.506   6.460  49.217  1.00  0.00     0.002 A 
HETATM   12  C10 UNL     1      22.540   5.506  50.263  1.00  0.00     0.011 A 
HETATM   13  C11 UNL     1      23.529   5.611  51.209  1.00  0.00    -0.035 A 
HETATM   14  C12 UNL     1      24.553   6.531  51.354  1.00  0.00     0.024 A 
HETATM   15  C13 UNL     1      23.503   4.218  51.757  1.00  0.00     0.023 C 
HETATM   16  C14 UNL     1      24.368   3.156  51.373  1.00  0.00     0.001 C 
HETATM   17  H7  UNL     1      27.798   7.804  49.291  1.00  0.00     0.328 HD
ENDROOT
BRANCH  16  18
HETATM   18  C15 UNL     1      24.201   1.915  52.081  1.00  0.00     0.156 A 
HETATM   19  N2  UNL     1      23.137   1.318  52.590  1.00  0.00    -0.241 NA
HETATM   20  C16 UNL     1      23.093   0.148  53.225  1.00  0.00     0.121 A 
HETATM   21  C17 UNL     1      24.277  -0.519  53.375  1.00  0.00     0.052 A 
HETATM   22  C18 UNL     1      25.431   0.019  52.884  1.00  0.00     0.072 A 
HETATM   23  N4  UNL     1      25.281   1.165  52.295  1.00  0.00    -0.228 NA
BRANCH  22  24
HETATM   24  C19 UNL     1      26.722  -0.636  53.022  1.00  0.00     0.010 A 
HETATM   25  C20 UNL     1      27.836   0.086  53.396  1.00  0.00     0.017 A 
HETATM   26  C21 UNL     1      29.074  -0.527  53.531  1.00  0.00     0.020 A 
HETATM   27  C22 UNL     1      29.225  -1.898  53.291  1.00  0.00     0.116 A 
HETATM   28  N3  UNL     1      28.121  -2.595  52.925  1.00  0.00    -0.272 NA
HETATM   29  C23 UNL     1      26.939  -1.972  52.803  1.00  0.00     0.130 A 
ENDBRANCH  22  24
ENDBRANCH  16  18
TORSDOF 2
ENDMDL
MODEL 3
REMARK VINA RESULT:      -9.9      2.519      8.274
REMARK  2 active torsions:
REMARK  status: ('A' for Active; 'I' for Inactive)
REMARK    1  A    between atoms: C14_16  and  C15_17 
REMARK    2  A    between atoms: C18_21  and  C19_22 
ROOT
HETATM    1  C1  UNL     1      25.726   4.693  49.669  1.00  0.00     0.035 A 
HETATM    2  C2  UNL     1      26.511   3.497  49.836  1.00  0.00     0.007 A 
HETATM    3  C3  UNL     1      27.226   4.401  49.062  1.00  0.00     0.021 A 
HETATM    4  C4  UNL     1      27.086   5.793  48.454  1.00  0.00     0.006 C 
HETATM    5  C5  UNL     1      26.530   6.998  48.112  1.00  0.00     0.236 C 
HETATM    6  N1  UNL     1      25.217   7.740  48.298  1.00  0.00     0.113 N 
HETATM    7  C6  UNL     1      23.683   7.792  48.516  1.00  0.00     0.388 A 
HETATM    8  O1  UNL     1      24.746   7.197  48.340  1.00  0.00    -0.140 OA
HETATM    9  C7  UNL     1      22.995   6.399  48.538  1.00  0.00     0.017 A 
HETATM   10  C8  UNL     1      22.599   5.864  47.334  1.00  0.00     0.012 A 
HETATM   11  C9  UNL     1      22.424   4.457  47.246  1.00  0.00     0.002 A 
HETATM   12  C10 UNL     1      22.695   3.739  48.437  1.00  0.00     0.011 A 
HETATM   13  C11 UNL     1      23.083   4.443  49.549  1.00  0.00    -0.035 A 
HETATM   14  C12 UNL     1      23.259   5.802  49.747  1.00  0.00     0.024 A 
HETATM   15  C13 UNL     1      23.722   3.343  50.337  1.00  0.00     0.023 C 
HETATM   16  C14 UNL     1      25.113   3.048  50.380  1.00  0.00     0.001 C 
HETATM   17  H7  UNL     1      25.555   8.805  48.292  1.00  0.00     0.328 HD
ENDROOT
BRANCH  16  18
HETATM   18  C15 UNL     1      25.507   1.979  51.258  1.00  0.00     0.156 A 
HETATM   19  N2  UNL     1      26.688   1.477  51.574  1.00  0.00    -0.241 NA
HETATM   20  C16 UNL     1      26.943   0.480  52.420  1.00  0.00     0.121 A 
HETATM   21  C17 UNL     1      25.868  -0.099  53.035  1.00  0.00     0.052 A 
HETATM   22  C18 UNL     1      24.607   0.350  52.771  1.00  0.00     0.072 A 
HETATM   23  N4  UNL     1      24.552   1.329  51.923  1.00  0.00    -0.228 NA
BRANCH  22  24
HETATM   24  C19 UNL     1      23.423  -0.233  53.385  1.00  0.00     0.010 A 
HETATM   25  C20 UNL     1      22.191  -0.114  52.778  1.00  0.00     0.017 A 
HETATM   26  C21 UNL     1      21.054  -0.665  53.353  1.00  0.00     0.020 A 
HETATM   27  C22 UNL     1      21.128  -1.357  54.568  1.00  0.00     0.116 A 
HETATM   28  N3  UNL     1      22.347  -1.466  55.153  1.00  0.00    -0.272 NA
HETATM   29  C23 UNL     1      23.427  -0.921  54.570  1.00  0.00     0.130 A 
ENDBRANCH  22  24
ENDBRANCH  16  18
TORSDOF 2
ENDMDL
MODEL 4
REMARK VINA RESULT:      -9.8      2.817      7.305
REMARK  2 active torsions:
REMARK  status: ('A' for Active; 'I' for Inactive)
REMARK    1  A    between atoms: C14_16  and  C15_17 
REMARK    2  A    between atoms: C18_21  and  C19_22 
ROOT
HETATM    1  C1  UNL     1      24.685   3.702  50.231  1.00  0.00     0.035 A 
HETATM    2  C2  UNL     1      25.431   2.582  50.744  1.00  0.00     0.007 A 
HETATM    3  C3  UNL     1      26.302   3.443  50.093  1.00  0.00     0.021 A 
HETATM    4  C4  UNL     1      26.292   4.753  49.311  1.00  0.00     0.006 C 
HETATM    5  C5  UNL     1      25.814   5.880  48.693  1.00  0.00     0.236 C 
HETATM    6  N1  UNL     1      24.478   6.553  48.427  1.00  0.00     0.113 N 
HETATM    7  C6  UNL     1      22.942   6.530  48.212  1.00  0.00     0.388 A 
HETATM    8  O1  UNL     1      24.031   5.988  48.402  1.00  0.00    -0.140 OA
HETATM    9  C7  UNL     1      22.320   5.106  48.210  1.00  0.00     0.017 A 
HETATM   10  C8  UNL     1      22.290   4.425  47.014  1.00  0.00     0.012 A 
HETATM   11  C9  UNL     1      22.191   3.008  47.048  1.00  0.00     0.002 A 
HETATM   12  C10 UNL     1      22.145   2.436  48.343  1.00  0.00     0.011 A 
HETATM   13  C11 UNL     1      22.188   3.275  49.429  1.00  0.00    -0.035 A 
HETATM   14  C12 UNL     1      22.258   4.656  49.506  1.00  0.00     0.024 A 
HETATM   15  C13 UNL     1      22.618   2.305  50.483  1.00  0.00     0.023 C 
HETATM   16  C14 UNL     1      23.951   2.104  50.937  1.00  0.00     0.001 C 
HETATM   17  H7  UNL     1      24.770   7.630  48.388  1.00  0.00     0.328 HD
ENDROOT
BRANCH  16  18
HETATM   18  C15 UNL     1      24.121   1.159  52.007  1.00  0.00     0.156 A 
HETATM   19  N2  UNL     1      23.256   0.545  52.796  1.00  0.00    -0.241 NA
HETATM   20  C16 UNL     1      23.525  -0.334  53.761  1.00  0.00     0.121 A 
HETATM   21  C17 UNL     1      24.841  -0.641  53.969  1.00  0.00     0.052 A 
HETATM   22  C18 UNL     1      25.807  -0.056  53.204  1.00  0.00     0.072 A 
HETATM   23  N4  UNL     1      25.359   0.773  52.313  1.00  0.00    -0.228 NA
BRANCH  22  24
HETATM   24  C19 UNL     1      27.224  -0.332  53.386  1.00  0.00     0.010 A 
HETATM   25  C20 UNL     1      27.757  -1.542  52.992  1.00  0.00     0.017 A 
HETATM   26  C21 UNL     1      29.106  -1.818  53.160  1.00  0.00     0.020 A 
HETATM   27  C22 UNL     1      29.966  -0.874  53.736  1.00  0.00     0.116 A 
HETATM   28  N3  UNL     1      29.428   0.310  54.118  1.00  0.00    -0.272 NA
HETATM   29  C23 UNL     1      28.118   0.546  53.941  1.00  0.00     0.130 A 
ENDBRANCH  22  24
ENDBRANCH  16  18
TORSDOF 2
ENDMDL
MODEL 5
REMARK VINA RESULT:      -9.7      1.499      2.040
REMARK  2 active torsions:
REMARK  status: ('A' for Active; 'I' for Inactive)
REMARK    1  A    between atoms: C14_16  and  C15_17 
REMARK    2  A    between atoms: C18_21  and  C19_22 
ROOT
HETATM    1  C1  UNL     1      23.087   2.561  50.317  1.00  0.00     0.035 A 
HETATM    2  C2  UNL     1      23.366   3.136  49.027  1.00  0.00     0.007 A 
HETATM    3  C3  UNL     1      22.443   2.111  48.873  1.00  0.00     0.021 A 
HETATM    4  C4  UNL     1      21.704   1.064  49.701  1.00  0.00     0.006 C 
HETATM    5  C5  UNL     1      21.308   0.325  50.785  1.00  0.00     0.236 C 
HETATM    6  N1  UNL     1      21.614   0.229  52.270  1.00  0.00     0.113 N 
HETATM    7  C6  UNL     1      22.546   0.395  53.498  1.00  0.00     0.388 A 
HETATM    8  O1  UNL     1      22.301   0.446  52.294  1.00  0.00    -0.140 OA
HETATM    9  C7  UNL     1      23.981   0.880  53.150  1.00  0.00     0.017 A 
HETATM   10  C8  UNL     1      24.916  -0.076  52.827  1.00  0.00     0.012 A 
HETATM   11  C9  UNL     1      26.046   0.318  52.061  1.00  0.00     0.002 A 
HETATM   12  C10 UNL     1      26.079   1.686  51.693  1.00  0.00     0.011 A 
HETATM   13  C11 UNL     1      25.052   2.497  52.105  1.00  0.00    -0.035 A 
HETATM   14  C12 UNL     1      23.929   2.223  52.867  1.00  0.00     0.024 A 
HETATM   15  C13 UNL     1      25.209   3.621  51.130  1.00  0.00     0.023 C 
HETATM   16  C14 UNL     1      24.480   3.782  49.919  1.00  0.00     0.001 C 
HETATM   17  H7  UNL     1      20.640  -0.135  52.680  1.00  0.00     0.328 HD
ENDROOT
BRANCH  16  18
HETATM   18  C15 UNL     1      24.756   4.976  49.167  1.00  0.00     0.156 A 
HETATM   19  N2  UNL     1      23.969   5.839  48.548  1.00  0.00    -0.241 NA
HETATM   20  C16 UNL     1      24.335   6.934  47.882  1.00  0.00     0.121 A 
HETATM   21  C17 UNL     1      25.674   7.204  47.825  1.00  0.00     0.052 A 
HETATM   22  C18 UNL     1      26.565   6.370  48.434  1.00  0.00     0.072 A 
HETATM   23  N4  UNL     1      26.027   5.355  49.035  1.00  0.00    -0.228 NA
BRANCH  22  24
HETATM   24  C19 UNL     1      28.002   6.597  48.398  1.00  0.00     0.010 A 
HETATM   25  C20 UNL     1      28.872   5.545  48.209  1.00  0.00     0.017 A 
HETATM   26  C21 UNL     1      30.244   5.748  48.174  1.00  0.00     0.020 A 
HETATM   27  C22 UNL     1      30.784   7.031  48.329  1.00  0.00     0.116 A 
HETATM   28  N3  UNL     1      29.915   8.056  48.513  1.00  0.00    -0.272 NA
HETATM   29  C23 UNL     1      28.593   7.825  48.542  1.00  0.00     0.130 A 
ENDBRANCH  22  24
ENDBRANCH  16  18
TORSDOF 2
ENDMDL
MODEL 6
REMARK VINA RESULT:      -9.6      4.138      7.235
REMARK  2 active torsions:
REMARK  status: ('A' for Active; 'I' for Inactive)
REMARK    1  A    between atoms: C14_16  and  C15_17 
REMARK    2  A    between atoms: C18_21  and  C19_22 
ROOT
HETATM    1  C1  UNL     1      21.883   3.006  51.862  1.00  0.00     0.035 A 
HETATM    2  C2  UNL     1      23.051   2.555  52.573  1.00  0.00     0.007 A 
HETATM    3  C3  UNL     1      23.170   3.916  52.328  1.00  0.00     0.021 A 
HETATM    4  C4  UNL     1      22.417   5.055  51.649  1.00  0.00     0.006 C 
HETATM    5  C5  UNL     1      21.446   5.715  50.939  1.00  0.00     0.236 C 
HETATM    6  N1  UNL     1      20.147   5.396  50.219  1.00  0.00     0.113 N 
HETATM    7  C6  UNL     1      19.198   4.443  49.446  1.00  0.00     0.388 A 
HETATM    8  O1  UNL     1      20.258   4.716  50.008  1.00  0.00    -0.140 OA
HETATM    9  C7  UNL     1      19.800   3.040  49.159  1.00  0.00     0.017 A 
HETATM   10  C8  UNL     1      20.549   2.890  48.013  1.00  0.00     0.012 A 
HETATM   11  C9  UNL     1      21.483   1.821  47.954  1.00  0.00     0.002 A 
HETATM   12  C10 UNL     1      21.552   1.013  49.116  1.00  0.00     0.011 A 
HETATM   13  C11 UNL     1      20.725   1.315  50.170  1.00  0.00    -0.035 A 
HETATM   14  C12 UNL     1      19.771   2.307  50.320  1.00  0.00     0.024 A 
HETATM   15  C13 UNL     1      21.450   0.607  51.271  1.00  0.00     0.023 C 
HETATM   16  C14 UNL     1      22.367   1.202  52.182  1.00  0.00     0.001 C 
HETATM   17  H7  UNL     1      19.583   6.353  50.333  1.00  0.00     0.328 HD
ENDROOT
BRANCH  16  18
HETATM   18  C15 UNL     1      22.897   0.338  53.202  1.00  0.00     0.156 A 
HETATM   19  N2  UNL     1      22.316  -0.455  54.086  1.00  0.00    -0.241 NA
HETATM   20  C16 UNL     1      22.912  -1.232  54.990  1.00  0.00     0.121 A 
HETATM   21  C17 UNL     1      24.279  -1.213  55.016  1.00  0.00     0.052 A 
HETATM   22  C18 UNL     1      24.967  -0.424  54.142  1.00  0.00     0.072 A 
HETATM   23  N4  UNL     1      24.220   0.262  53.335  1.00  0.00    -0.228 NA
BRANCH  22  24
HETATM   24  C19 UNL     1      26.421  -0.353  54.130  1.00  0.00     0.010 A 
HETATM   25  C20 UNL     1      27.147  -1.053  53.190  1.00  0.00     0.017 A 
HETATM   26  C21 UNL     1      28.533  -0.994  53.167  1.00  0.00     0.020 A 
HETATM   27  C22 UNL     1      29.233  -0.220  54.101  1.00  0.00     0.116 A 
HETATM   28  N3  UNL     1      28.506   0.463  55.019  1.00  0.00    -0.272 NA
HETATM   29  C23 UNL     1      27.165   0.384  55.013  1.00  0.00     0.130 A 
ENDBRANCH  22  24
ENDBRANCH  16  18
TORSDOF 2
ENDMDL
MODEL 7
REMARK VINA RESULT:      -9.6      2.961      5.891
REMARK  2 active torsions:
REMARK  status: ('A' for Active; 'I' for Inactive)
REMARK    1  A    between atoms: C14_16  and  C15_17 
REMARK    2  A    between atoms: C18_21  and  C19_22 
ROOT
HETATM    1  C1  UNL     1      21.538   0.834  51.970  1.00  0.00     0.035 A 
HETATM    2  C2  UNL     1      22.792   1.359  52.444  1.00  0.00     0.007 A 
HETATM    3  C3  UNL     1      22.201   0.620  53.459  1.00  0.00     0.021 A 
HETATM    4  C4  UNL     1      20.934  -0.182  53.740  1.00  0.00     0.006 C 
HETATM    5  C5  UNL     1      19.701  -0.751  53.550  1.00  0.00     0.236 C 
HETATM    6  N1  UNL     1      18.630  -0.813  52.474  1.00  0.00     0.113 N 
HETATM    7  C6  UNL     1      17.872  -0.237  51.250  1.00  0.00     0.388 A 
HETATM    8  O1  UNL     1      18.720  -0.181  52.140  1.00  0.00    -0.140 OA
HETATM    9  C7  UNL     1      18.345   1.177  50.815  1.00  0.00     0.017 A 
HETATM   10  C8  UNL     1      17.761   2.262  51.428  1.00  0.00     0.012 A 
HETATM   11  C9  UNL     1      18.465   3.497  51.427  1.00  0.00     0.002 A 
HETATM   12  C10 UNL     1      19.729   3.471  50.790  1.00  0.00     0.011 A 
HETATM   13  C11 UNL     1      20.154   2.291  50.231  1.00  0.00    -0.035 A 
HETATM   14  C12 UNL     1      19.543   1.051  50.154  1.00  0.00     0.024 A 
HETATM   15  C13 UNL     1      21.624   2.562  50.154  1.00  0.00     0.023 C 
HETATM   16  C14 UNL     1      22.599   2.142  51.101  1.00  0.00     0.001 C 
HETATM   17  H7  UNL     1      18.170  -1.812  52.669  1.00  0.00     0.328 HD
ENDROOT
BRANCH  16  18
HETATM   18  C15 UNL     1      23.966   2.463  50.788  1.00  0.00     0.156 A 
HETATM   19  N2  UNL     1      24.511   3.178  49.820  1.00  0.00    -0.241 NA
HETATM   20  C16 UNL     1      25.807   3.425  49.628  1.00  0.00     0.121 A 
HETATM   21  C17 UNL     1      26.679   2.881  50.529  1.00  0.00     0.052 A 
HETATM   22  C18 UNL     1      26.210   2.126  51.564  1.00  0.00     0.072 A 
HETATM   23  N4  UNL     1      24.920   1.994  51.591  1.00  0.00    -0.228 NA
BRANCH  22  24
HETATM   24  C19 UNL     1      27.089   1.511  52.547  1.00  0.00     0.010 A 
HETATM   25  C20 UNL     1      27.176   0.138  52.645  1.00  0.00     0.017 A 
HETATM   26  C21 UNL     1      28.009  -0.461  53.579  1.00  0.00     0.020 A 
HETATM   27  C22 UNL     1      28.786   0.314  54.449  1.00  0.00     0.116 A 
HETATM   28  N3  UNL     1      28.690   1.662  54.340  1.00  0.00    -0.272 NA
HETATM   29  C23 UNL     1      27.874   2.210  53.426  1.00  0.00     0.130 A 
ENDBRANCH  22  24
ENDBRANCH  16  18
TORSDOF 2
ENDMDL
MODEL 8
REMARK VINA RESULT:      -9.4      3.141      6.888
REMARK  2 active torsions:
REMARK  status: ('A' for Active; 'I' for Inactive)
REMARK    1  A    between atoms: C14_16  and  C15_17 
REMARK    2  A    between atoms: C18_21  and  C19_22 
ROOT
HETATM    1  C1  UNL     1      21.925   3.083  50.962  1.00  0.00     0.035 A 
HETATM    2  C2  UNL     1      22.079   2.692  52.339  1.00  0.00     0.007 A 
HETATM    3  C3  UNL     1      20.985   3.539  52.231  1.00  0.00     0.021 A 
HETATM    4  C4  UNL     1      20.229   4.351  51.184  1.00  0.00     0.006 C 
HETATM    5  C5  UNL     1      19.900   4.901  49.972  1.00  0.00     0.236 C 
HETATM    6  N1  UNL     1      20.427   4.913  48.547  1.00  0.00     0.113 N 
HETATM    7  C6  UNL     1      21.564   4.808  47.498  1.00  0.00     0.388 A 
HETATM    8  O1  UNL     1      21.135   4.825  48.650  1.00  0.00    -0.140 OA
HETATM    9  C7  UNL     1      22.981   4.629  48.109  1.00  0.00     0.017 A 
HETATM   10  C8  UNL     1      23.678   5.767  48.447  1.00  0.00     0.012 A 
HETATM   11  C9  UNL     1      24.715   5.660  49.412  1.00  0.00     0.002 A 
HETATM   12  C10 UNL     1      24.915   4.362  49.943  1.00  0.00     0.011 A 
HETATM   13  C11 UNL     1      24.120   3.341  49.486  1.00  0.00    -0.035 A 
HETATM   14  C12 UNL     1      23.108   3.332  48.541  1.00  0.00     0.024 A 
HETATM   15  C13 UNL     1      24.299   2.361  50.603  1.00  0.00     0.023 C 
HETATM   16  C14 UNL     1      23.417   2.182  51.705  1.00  0.00     0.001 C 
HETATM   17  H7  UNL     1      19.488   5.051  47.958  1.00  0.00     0.328 HD
ENDROOT
BRANCH  16  18
HETATM   18  C15 UNL     1      23.761   1.134  52.627  1.00  0.00     0.156 A 
HETATM   19  N2  UNL     1      23.024   0.333  53.377  1.00  0.00    -0.241 NA
HETATM   20  C16 UNL     1      23.451  -0.625  54.199  1.00  0.00     0.121 A 
HETATM   21  C17 UNL     1      24.803  -0.807  54.286  1.00  0.00     0.052 A 
HETATM   22  C18 UNL     1      25.646  -0.026  53.550  1.00  0.00     0.072 A 
HETATM   23  N4  UNL     1      25.051   0.853  52.806  1.00  0.00    -0.228 NA
BRANCH  22  24
HETATM   24  C19 UNL     1      27.093  -0.164  53.609  1.00  0.00     0.010 A 
HETATM   25  C20 UNL     1      27.709  -1.293  53.112  1.00  0.00     0.017 A 
HETATM   26  C21 UNL     1      29.088  -1.438  53.163  1.00  0.00     0.020 A 
HETATM   27  C22 UNL     1      29.894  -0.437  53.722  1.00  0.00     0.116 A 
HETATM   28  N3  UNL     1      29.274   0.667  54.206  1.00  0.00    -0.272 NA
HETATM   29  C23 UNL     1      27.937   0.775  54.142  1.00  0.00     0.130 A 
ENDBRANCH  22  24
ENDBRANCH  16  18
TORSDOF 2
ENDMDL
MODEL 9
REMARK VINA RESULT:      -9.3      2.750      4.987
REMARK  2 active torsions:
REMARK  status: ('A' for Active; 'I' for Inactive)
REMARK    1  A    between atoms: C14_16  and  C15_17 
REMARK    2  A    between atoms: C18_21  and  C19_22 
ROOT
HETATM    1  C1  UNL     1      21.303   0.396  52.242  1.00  0.00     0.035 A 
HETATM    2  C2  UNL     1      22.531   0.705  52.929  1.00  0.00     0.007 A 
HETATM    3  C3  UNL     1      21.694   0.011  53.792  1.00  0.00     0.021 A 
HETATM    4  C4  UNL     1      20.301  -0.607  53.830  1.00  0.00     0.006 C 
HETATM    5  C5  UNL     1      19.044  -0.977  53.424  1.00  0.00     0.236 C 
HETATM    6  N1  UNL     1      18.152  -0.825  52.204  1.00  0.00     0.113 N 
HETATM    7  C6  UNL     1      17.677  -0.083  50.928  1.00  0.00     0.388 A 
HETATM    8  O1  UNL     1      18.379  -0.198  51.932  1.00  0.00    -0.140 OA
HETATM    9  C7  UNL     1      18.403   1.266  50.668  1.00  0.00     0.017 A 
HETATM   10  C8  UNL     1      17.889   2.393  51.267  1.00  0.00     0.012 A 
HETATM   11  C9  UNL     1      18.749   3.508  51.456  1.00  0.00     0.002 A 
HETATM   12  C10 UNL     1      20.080   3.327  51.007  1.00  0.00     0.011 A 
HETATM   13  C11 UNL     1      20.417   2.127  50.432  1.00  0.00    -0.035 A 
HETATM   14  C12 UNL     1      19.659   0.997  50.179  1.00  0.00     0.024 A 
HETATM   15  C13 UNL     1      21.904   2.181  50.587  1.00  0.00     0.023 C 
HETATM   16  C14 UNL     1      22.656   1.573  51.632  1.00  0.00     0.001 C 
HETATM   17  H7  UNL     1      17.533  -1.754  52.258  1.00  0.00     0.328 HD
ENDROOT
BRANCH  16  18
HETATM   18  C15 UNL     1      24.085   1.704  51.543  1.00  0.00     0.156 A 
HETATM   19  N2  UNL     1      25.076   0.949  51.983  1.00  0.00    -0.241 NA
HETATM   20  C16 UNL     1      26.383   1.161  51.832  1.00  0.00     0.121 A 
HETATM   21  C17 UNL     1      26.752   2.286  51.148  1.00  0.00     0.052 A 
HETATM   22  C18 UNL     1      25.799   3.128  50.656  1.00  0.00     0.072 A 
HETATM   23  N4  UNL     1      24.580   2.760  50.898  1.00  0.00    -0.228 NA
BRANCH  22  24
HETATM   24  C19 UNL     1      26.129   4.346  49.931  1.00  0.00     0.010 A 
HETATM   25  C20 UNL     1      27.229   4.389  49.100  1.00  0.00     0.017 A 
HETATM   26  C21 UNL     1      27.555   5.543  48.403  1.00  0.00     0.020 A 
HETATM   27  C22 UNL     1      26.774   6.700  48.526  1.00  0.00     0.116 A 
HETATM   28  N3  UNL     1      25.696   6.642  49.346  1.00  0.00    -0.272 NA
HETATM   29  C23 UNL     1      25.409   5.509  50.006  1.00  0.00     0.130 A 
ENDBRANCH  22  24
ENDBRANCH  16  18
TORSDOF 2
ENDMDL
