MODEL 1
REMARK VINA RESULT:      -9.0      0.000      0.000
REMARK  7 active torsions:
REMARK  status: ('A' for Active; 'I' for Inactive)
REMARK    1  A    between atoms: C2_2  and  N1_3 
REMARK    2  A    between atoms: C2_2  and  C7_8 
REMARK    3  A    between atoms: N1_3  and  C3_4 
REMARK    4  A    between atoms: C8_10  and  C9_11 
REMARK    5  A    between atoms: C12_14  and  C13_15 
REMARK    6  A    between atoms: C13_15  and  N3_16 
REMARK       I    between atoms: N3_16  and  C14_17 
REMARK    7  A    between atoms: C20_26  and  N6_27 
ROOT
HETATM    1  C7  UNL     1      24.598   2.767  51.524  1.00  0.00     0.111 A 
HETATM    2  N2  UNL     1      23.358   2.297  51.581  1.00  0.00    -0.230 NA
HETATM    3  C8  UNL     1      23.362   1.053  52.157  1.00  0.00     0.116 A 
HETATM    4  N4  UNL     1      24.641   0.726  52.474  1.00  0.00    -0.303 N 
HETATM    5  C18 UNL     1      25.185  -0.362  53.045  1.00  0.00     0.118 A 
HETATM    6  C19 UNL     1      26.544  -0.452  53.261  1.00  0.00     0.136 A 
HETATM    7  N5  UNL     1      27.294   0.616  52.863  1.00  0.00    -0.245 NA
HETATM    8  C20 UNL     1      26.704   1.679  52.297  1.00  0.00     0.130 A 
HETATM    9  C21 UNL     1      25.363   1.770  52.083  1.00  0.00     0.111 A 
ENDROOT
BRANCH   3  10
HETATM   10  C9  UNL     1      22.127   0.252  52.370  1.00  0.00     0.056 C 
HETATM   11  C10 UNL     1      21.656   0.617  53.760  1.00  0.00     0.013 C 
HETATM   12  C11 UNL     1      20.355   0.040  54.148  1.00  0.00     0.007 C 
HETATM   13  C12 UNL     1      19.696  -0.705  53.025  1.00  0.00     0.003 C 
HETATM   14  C16 UNL     1      19.661   0.304  51.867  1.00  0.00     0.007 C 
HETATM   15  C17 UNL     1      21.093   0.413  51.313  1.00  0.00     0.013 C 
BRANCH  13  16
HETATM   16  C13 UNL     1      18.262  -1.059  53.315  1.00  0.00     0.127 C 
BRANCH  16  17
HETATM   17  N3  UNL     1      18.113  -2.422  53.756  1.00  0.00    -0.361 N 
HETATM   18  C14 UNL     1      17.020  -3.236  53.418  1.00  0.00     0.213 C 
HETATM   19  C15 UNL     1      16.831  -4.648  53.855  1.00  0.00     0.117 C 
HETATM   20  O1  UNL     1      16.103  -2.755  52.680  1.00  0.00    -0.274 OA
HETATM   21  H17 UNL     1      18.804  -2.941  54.374  1.00  0.00     0.162 HD
ENDBRANCH  16  17
ENDBRANCH  13  16
ENDBRANCH   3  10
BRANCH   1  22
HETATM   22  C2  UNL     1      24.960   4.048  50.977  1.00  0.00     0.037 C 
HETATM   23  C1  UNL     1      24.035   4.973  51.152  1.00  0.00     0.065 C 
BRANCH  22  24
HETATM   24  N1  UNL     1      26.057   4.573  50.302  1.00  0.00    -0.383 N 
HETATM   25  H3  UNL     1      26.769   4.776  51.052  1.00  0.00     0.160 HD
BRANCH  24  26
HETATM   26  C3  UNL     1      26.448   4.881  48.937  1.00  0.00     0.107 A 
HETATM   27  C4  UNL     1      26.465   6.315  48.611  1.00  0.00    -0.006 A 
HETATM   28  C5  UNL     1      27.741   6.288  48.325  1.00  0.00    -0.026 A 
HETATM   29  C6  UNL     1      27.890   4.870  48.610  1.00  0.00     0.056 A 
ENDBRANCH  24  26
ENDBRANCH  22  24
ENDBRANCH   1  22
BRANCH   8  30
HETATM   30  N6  UNL     1      27.576   2.713  51.925  1.00  0.00    -0.285 NA
HETATM   31  H27 UNL     1      28.412   3.033  51.404  1.00  0.00     0.125 HD
HETATM   32  H28 UNL     1      28.394   2.548  51.297  1.00  0.00     0.125 HD
ENDBRANCH   8  30
TORSDOF 7
ENDMDL
MODEL 2
REMARK VINA RESULT:      -8.7      3.769      6.852
REMARK  7 active torsions:
REMARK  status: ('A' for Active; 'I' for Inactive)
REMARK    1  A    between atoms: C2_2  and  N1_3 
REMARK    2  A    between atoms: C2_2  and  C7_8 
REMARK    3  A    between atoms: N1_3  and  C3_4 
REMARK    4  A    between atoms: C8_10  and  C9_11 
REMARK    5  A    between atoms: C12_14  and  C13_15 
REMARK    6  A    between atoms: C13_15  and  N3_16 
REMARK       I    between atoms: N3_16  and  C14_17 
REMARK    7  A    between atoms: C20_26  and  N6_27 
ROOT
HETATM    1  C7  UNL     1      24.916  -0.067  53.133  1.00  0.00     0.111 A 
HETATM    2  N2  UNL     1      24.770   0.760  52.105  1.00  0.00    -0.230 NA
HETATM    3  C8  UNL     1      23.462   1.163  52.021  1.00  0.00     0.116 A 
HETATM    4  N4  UNL     1      22.761   0.575  53.023  1.00  0.00    -0.303 N 
HETATM    5  C18 UNL     1      21.467   0.633  53.381  1.00  0.00     0.118 A 
HETATM    6  C19 UNL     1      20.992  -0.077  54.464  1.00  0.00     0.136 A 
HETATM    7  N5  UNL     1      21.904  -0.833  55.140  1.00  0.00    -0.245 NA
HETATM    8  C20 UNL     1      23.185  -0.858  54.744  1.00  0.00     0.130 A 
HETATM    9  C21 UNL     1      23.656  -0.158  53.675  1.00  0.00     0.111 A 
ENDROOT
BRANCH   3  10
HETATM   10  C9  UNL     1      22.966   2.097  50.974  1.00  0.00     0.056 C 
HETATM   11  C10 UNL     1      24.191   2.852  50.508  1.00  0.00     0.013 C 
HETATM   12  C11 UNL     1      23.967   3.754  49.362  1.00  0.00     0.007 C 
HETATM   13  C12 UNL     1      22.577   3.648  48.806  1.00  0.00     0.003 C 
HETATM   14  C16 UNL     1      22.394   2.149  48.523  1.00  0.00     0.007 C 
HETATM   15  C17 UNL     1      22.195   1.448  49.879  1.00  0.00     0.013 C 
BRANCH  13  16
HETATM   16  C13 UNL     1      22.417   4.346  47.483  1.00  0.00     0.127 C 
BRANCH  16  17
HETATM   17  N3  UNL     1      21.087   4.209  46.948  1.00  0.00    -0.361 N 
HETATM   18  C14 UNL     1      20.814   3.877  45.612  1.00  0.00     0.213 C 
HETATM   19  C15 UNL     1      19.454   3.726  45.023  1.00  0.00     0.117 C 
HETATM   20  O1  UNL     1      21.788   3.684  44.817  1.00  0.00    -0.274 OA
HETATM   21  H17 UNL     1      20.191   4.344  47.503  1.00  0.00     0.162 HD
ENDBRANCH  16  17
ENDBRANCH  13  16
ENDBRANCH   3  10
BRANCH   1  22
HETATM   22  C2  UNL     1      26.161  -0.682  53.514  1.00  0.00     0.037 C 
HETATM   23  C1  UNL     1      26.564  -1.615  52.672  1.00  0.00     0.065 C 
BRANCH  22  24
HETATM   24  N1  UNL     1      27.066  -0.542  54.560  1.00  0.00    -0.383 N 
HETATM   25  H3  UNL     1      26.610  -1.016  55.383  1.00  0.00     0.160 HD
BRANCH  24  26
HETATM   26  C3  UNL     1      28.378   0.038  54.792  1.00  0.00     0.107 A 
HETATM   27  C4  UNL     1      29.493  -0.698  54.177  1.00  0.00    -0.006 A 
HETATM   28  C5  UNL     1      29.839   0.333  53.449  1.00  0.00    -0.026 A 
HETATM   29  C6  UNL     1      28.784   1.191  53.961  1.00  0.00     0.056 A 
ENDBRANCH  24  26
ENDBRANCH  22  24
ENDBRANCH   1  22
BRANCH   8  30
HETATM   30  N6  UNL     1      24.028  -1.674  55.513  1.00  0.00    -0.285 NA
HETATM   31  H27 UNL     1      24.811  -2.350  55.567  1.00  0.00     0.125 HD
HETATM   32  H28 UNL     1      24.776  -2.260  55.080  1.00  0.00     0.125 HD
ENDBRANCH   8  30
TORSDOF 7
ENDMDL
MODEL 3
REMARK VINA RESULT:      -8.3      4.372      8.917
REMARK  7 active torsions:
REMARK  status: ('A' for Active; 'I' for Inactive)
REMARK    1  A    between atoms: C2_2  and  N1_3 
REMARK    2  A    between atoms: C2_2  and  C7_8 
REMARK    3  A    between atoms: N1_3  and  C3_4 
REMARK    4  A    between atoms: C8_10  and  C9_11 
REMARK    5  A    between atoms: C12_14  and  C13_15 
REMARK    6  A    between atoms: C13_15  and  N3_16 
REMARK       I    between atoms: N3_16  and  C14_17 
REMARK    7  A    between atoms: C20_26  and  N6_27 
ROOT
HETATM    1  C7  UNL     1      25.627   0.612  52.443  1.00  0.00     0.111 A 
HETATM    2  N2  UNL     1      26.099   1.497  51.574  1.00  0.00    -0.230 NA
HETATM    3  C8  UNL     1      25.080   2.297  51.130  1.00  0.00     0.116 A 
HETATM    4  N4  UNL     1      23.929   1.909  51.734  1.00  0.00    -0.303 N 
HETATM    5  C18 UNL     1      22.663   2.355  51.650  1.00  0.00     0.118 A 
HETATM    6  C19 UNL     1      21.650   1.775  52.384  1.00  0.00     0.136 A 
HETATM    7  N5  UNL     1      22.005   0.734  53.191  1.00  0.00    -0.245 NA
HETATM    8  C20 UNL     1      23.281   0.326  53.241  1.00  0.00     0.130 A 
HETATM    9  C21 UNL     1      24.283   0.896  52.517  1.00  0.00     0.111 A 
ENDROOT
BRANCH   3  10
HETATM   10  C9  UNL     1      25.278   3.395  50.145  1.00  0.00     0.056 C 
HETATM   11  C10 UNL     1      25.060   4.670  50.928  1.00  0.00     0.013 C 
HETATM   12  C11 UNL     1      25.338   5.913  50.183  1.00  0.00     0.007 C 
HETATM   13  C12 UNL     1      25.905   5.654  48.818  1.00  0.00     0.003 C 
HETATM   14  C16 UNL     1      27.115   4.743  49.076  1.00  0.00     0.007 C 
HETATM   15  C17 UNL     1      26.571   3.343  49.410  1.00  0.00     0.013 C 
BRANCH  13  16
HETATM   16  C13 UNL     1      26.447   6.894  48.161  1.00  0.00     0.127 C 
BRANCH  16  17
HETATM   17  N3  UNL     1      27.528   7.482  48.908  1.00  0.00    -0.361 N 
HETATM   18  C14 UNL     1      28.656   8.070  48.315  1.00  0.00     0.213 C 
HETATM   19  C15 UNL     1      29.793   8.688  49.053  1.00  0.00     0.117 C 
HETATM   20  O1  UNL     1      28.741   8.091  47.046  1.00  0.00    -0.274 OA
HETATM   21  H17 UNL     1      27.580   7.530  49.968  1.00  0.00     0.162 HD
ENDBRANCH  16  17
ENDBRANCH  13  16
ENDBRANCH   3  10
BRANCH   1  22
HETATM   22  C2  UNL     1      26.424  -0.385  53.108  1.00  0.00     0.037 C 
HETATM   23  C1  UNL     1      26.448  -1.543  52.476  1.00  0.00     0.065 C 
BRANCH  22  24
HETATM   24  N1  UNL     1      27.193  -0.442  54.265  1.00  0.00    -0.383 N 
HETATM   25  H3  UNL     1      26.548  -0.827  55.004  1.00  0.00     0.160 HD
BRANCH  24  26
HETATM   26  C3  UNL     1      28.550  -0.139  54.685  1.00  0.00     0.107 A 
HETATM   27  C4  UNL     1      29.595  -0.901  53.986  1.00  0.00    -0.006 A 
HETATM   28  C5  UNL     1      30.148   0.187  53.516  1.00  0.00    -0.026 A 
HETATM   29  C6  UNL     1      29.188   1.080  54.143  1.00  0.00     0.056 A 
ENDBRANCH  24  26
ENDBRANCH  22  24
ENDBRANCH   1  22
BRANCH   8  30
HETATM   30  N6  UNL     1      23.525  -0.755  54.102  1.00  0.00    -0.285 NA
HETATM   31  H27 UNL     1      24.157  -1.503  54.440  1.00  0.00     0.125 HD
HETATM   32  H28 UNL     1      24.427  -1.282  54.087  1.00  0.00     0.125 HD
ENDBRANCH   8  30
TORSDOF 7
ENDMDL
MODEL 4
REMARK VINA RESULT:      -8.3      3.761      7.317
REMARK  7 active torsions:
REMARK  status: ('A' for Active; 'I' for Inactive)
REMARK    1  A    between atoms: C2_2  and  N1_3 
REMARK    2  A    between atoms: C2_2  and  C7_8 
REMARK    3  A    between atoms: N1_3  and  C3_4 
REMARK    4  A    between atoms: C8_10  and  C9_11 
REMARK    5  A    between atoms: C12_14  and  C13_15 
REMARK    6  A    between atoms: C13_15  and  N3_16 
REMARK       I    between atoms: N3_16  and  C14_17 
REMARK    7  A    between atoms: C20_26  and  N6_27 
ROOT
HETATM    1  C7  UNL     1      25.024  -0.051  53.251  1.00  0.00     0.111 A 
HETATM    2  N2  UNL     1      24.787   0.855  52.311  1.00  0.00    -0.230 NA
HETATM    3  C8  UNL     1      23.462   1.206  52.332  1.00  0.00     0.116 A 
HETATM    4  N4  UNL     1      22.842   0.501  53.312  1.00  0.00    -0.303 N 
HETATM    5  C18 UNL     1      21.569   0.469  53.741  1.00  0.00     0.118 A 
HETATM    6  C19 UNL     1      21.184  -0.355  54.778  1.00  0.00     0.136 A 
HETATM    7  N5  UNL     1      22.162  -1.126  55.335  1.00  0.00    -0.245 NA
HETATM    8  C20 UNL     1      23.418  -1.058  54.871  1.00  0.00     0.130 A 
HETATM    9  C21 UNL     1      23.800  -0.247  53.848  1.00  0.00     0.111 A 
ENDROOT
BRANCH   3  10
HETATM   10  C9  UNL     1      22.872   2.205  51.401  1.00  0.00     0.056 C 
HETATM   11  C10 UNL     1      22.887   3.510  52.165  1.00  0.00     0.013 C 
HETATM   12  C11 UNL     1      22.466   4.691  51.387  1.00  0.00     0.007 C 
HETATM   13  C12 UNL     1      22.220   4.373  49.941  1.00  0.00     0.003 C 
HETATM   14  C16 UNL     1      23.517   3.693  49.476  1.00  0.00     0.007 C 
HETATM   15  C17 UNL     1      23.524   2.271  50.066  1.00  0.00     0.013 C 
BRANCH  13  16
HETATM   16  C13 UNL     1      22.062   5.602  49.087  1.00  0.00     0.127 C 
BRANCH  16  17
HETATM   17  N3  UNL     1      23.262   6.395  49.042  1.00  0.00    -0.361 N 
HETATM   18  C14 UNL     1      23.374   7.673  49.614  1.00  0.00     0.213 C 
HETATM   19  C15 UNL     1      24.597   8.523  49.589  1.00  0.00     0.117 C 
HETATM   20  O1  UNL     1      22.366   8.168  50.209  1.00  0.00    -0.274 OA
HETATM   21  H17 UNL     1      24.171   6.100  48.577  1.00  0.00     0.162 HD
ENDBRANCH  16  17
ENDBRANCH  13  16
ENDBRANCH   3  10
BRANCH   1  22
HETATM   22  C2  UNL     1      26.311  -0.642  53.509  1.00  0.00     0.037 C 
HETATM   23  C1  UNL     1      26.704  -1.476  52.565  1.00  0.00     0.065 C 
BRANCH  22  24
HETATM   24  N1  UNL     1      27.267  -0.555  54.515  1.00  0.00    -0.383 N 
HETATM   25  H3  UNL     1      26.832  -1.031  55.349  1.00  0.00     0.160 HD
BRANCH  24  26
HETATM   26  C3  UNL     1      28.608  -0.026  54.699  1.00  0.00     0.107 A 
HETATM   27  C4  UNL     1      29.673  -0.816  54.065  1.00  0.00    -0.006 A 
HETATM   28  C5  UNL     1      30.039   0.188  53.310  1.00  0.00    -0.026 A 
HETATM   29  C6  UNL     1      29.034   1.097  53.837  1.00  0.00     0.056 A 
ENDBRANCH  24  26
ENDBRANCH  22  24
ENDBRANCH   1  22
BRANCH   8  30
HETATM   30  N6  UNL     1      24.335  -1.900  55.519  1.00  0.00    -0.285 NA
HETATM   31  H27 UNL     1      25.046  -2.047  56.258  1.00  0.00     0.125 HD
HETATM   32  H28 UNL     1      24.911  -1.575  56.327  1.00  0.00     0.125 HD
ENDBRANCH   8  30
TORSDOF 7
ENDMDL
MODEL 5
REMARK VINA RESULT:      -8.2      5.088      9.895
REMARK  7 active torsions:
REMARK  status: ('A' for Active; 'I' for Inactive)
REMARK    1  A    between atoms: C2_2  and  N1_3 
REMARK    2  A    between atoms: C2_2  and  C7_8 
REMARK    3  A    between atoms: N1_3  and  C3_4 
REMARK    4  A    between atoms: C8_10  and  C9_11 
REMARK    5  A    between atoms: C12_14  and  C13_15 
REMARK    6  A    between atoms: C13_15  and  N3_16 
REMARK       I    between atoms: N3_16  and  C14_17 
REMARK    7  A    between atoms: C20_26  and  N6_27 
ROOT
HETATM    1  C7  UNL     1      26.384   2.313  51.441  1.00  0.00     0.111 A 
HETATM    2  N2  UNL     1      26.978   3.251  50.712  1.00  0.00    -0.230 NA
HETATM    3  C8  UNL     1      26.048   3.881  49.927  1.00  0.00     0.116 A 
HETATM    4  N4  UNL     1      24.832   3.328  50.164  1.00  0.00    -0.303 N 
HETATM    5  C18 UNL     1      23.609   3.574  49.664  1.00  0.00     0.118 A 
HETATM    6  C19 UNL     1      22.509   2.853  50.079  1.00  0.00     0.136 A 
HETATM    7  N5  UNL     1      22.734   1.887  51.015  1.00  0.00    -0.245 NA
HETATM    8  C20 UNL     1      23.973   1.679  51.483  1.00  0.00     0.130 A 
HETATM    9  C21 UNL     1      25.061   2.389  51.076  1.00  0.00     0.111 A 
ENDROOT
BRANCH   3  10
HETATM   10  C9  UNL     1      26.390   4.986  48.991  1.00  0.00     0.056 C 
HETATM   11  C10 UNL     1      25.992   6.252  49.715  1.00  0.00     0.013 C 
HETATM   12  C11 UNL     1      26.363   7.505  49.029  1.00  0.00     0.007 C 
HETATM   13  C12 UNL     1      27.180   7.266  47.793  1.00  0.00     0.003 C 
HETATM   14  C16 UNL     1      28.350   6.393  48.273  1.00  0.00     0.007 C 
HETATM   15  C17 UNL     1      27.798   4.976  48.507  1.00  0.00     0.013 C 
BRANCH  13  16
HETATM   16  C13 UNL     1      27.795   8.524  47.241  1.00  0.00     0.127 C 
BRANCH  16  17
HETATM   17  N3  UNL     1      29.073   8.816  47.838  1.00  0.00    -0.361 N 
HETATM   18  C14 UNL     1      29.283   9.851  48.762  1.00  0.00     0.213 C 
HETATM   19  C15 UNL     1      30.588  10.184  49.400  1.00  0.00     0.117 C 
HETATM   20  O1  UNL     1      28.298  10.580  49.101  1.00  0.00    -0.274 OA
HETATM   21  H17 UNL     1      29.972   8.285  47.641  1.00  0.00     0.162 HD
ENDBRANCH  16  17
ENDBRANCH  13  16
ENDBRANCH   3  10
BRANCH   1  22
HETATM   22  C2  UNL     1      27.063   1.456  52.378  1.00  0.00     0.037 C 
HETATM   23  C1  UNL     1      27.497   2.092  53.450  1.00  0.00     0.065 C 
BRANCH  22  24
HETATM   24  N1  UNL     1      27.382   0.105  52.446  1.00  0.00    -0.383 N 
HETATM   25  H3  UNL     1      27.204  -0.268  51.476  1.00  0.00     0.160 HD
BRANCH  24  26
HETATM   26  C3  UNL     1      27.867  -0.850  53.428  1.00  0.00     0.107 A 
HETATM   27  C4  UNL     1      27.807  -2.256  53.002  1.00  0.00    -0.006 A 
HETATM   28  C5  UNL     1      29.102  -2.401  53.119  1.00  0.00    -0.026 A 
HETATM   29  C6  UNL     1      29.329  -1.033  53.554  1.00  0.00     0.056 A 
ENDBRANCH  24  26
ENDBRANCH  22  24
ENDBRANCH   1  22
BRANCH   8  30
HETATM   30  N6  UNL     1      24.083   0.657  52.439  1.00  0.00    -0.285 NA
HETATM   31  H27 UNL     1      24.106  -0.352  52.668  1.00  0.00     0.125 HD
HETATM   32  H28 UNL     1      24.048  -0.353  52.175  1.00  0.00     0.125 HD
ENDBRANCH   8  30
TORSDOF 7
ENDMDL
MODEL 6
REMARK VINA RESULT:      -8.1      1.109      1.712
REMARK  7 active torsions:
REMARK  status: ('A' for Active; 'I' for Inactive)
REMARK    1  A    between atoms: C2_2  and  N1_3 
REMARK    2  A    between atoms: C2_2  and  C7_8 
REMARK    3  A    between atoms: N1_3  and  C3_4 
REMARK    4  A    between atoms: C8_10  and  C9_11 
REMARK    5  A    between atoms: C12_14  and  C13_15 
REMARK    6  A    between atoms: C13_15  and  N3_16 
REMARK       I    between atoms: N3_16  and  C14_17 
REMARK    7  A    between atoms: C20_26  and  N6_27 
ROOT
HETATM    1  C7  UNL     1      24.644   2.645  51.289  1.00  0.00     0.111 A 
HETATM    2  N2  UNL     1      23.411   2.155  51.329  1.00  0.00    -0.230 NA
HETATM    3  C8  UNL     1      23.391   1.018  52.094  1.00  0.00     0.116 A 
HETATM    4  N4  UNL     1      24.647   0.780  52.550  1.00  0.00    -0.303 N 
HETATM    5  C18 UNL     1      25.163  -0.189  53.326  1.00  0.00     0.118 A 
HETATM    6  C19 UNL     1      26.503  -0.206  53.652  1.00  0.00     0.136 A 
HETATM    7  N5  UNL     1      27.263   0.807  53.146  1.00  0.00    -0.245 NA
HETATM    8  C20 UNL     1      26.702   1.751  52.377  1.00  0.00     0.130 A 
HETATM    9  C21 UNL     1      25.380   1.770  52.053  1.00  0.00     0.111 A 
ENDROOT
BRANCH   3  10
HETATM   10  C9  UNL     1      22.156   0.225  52.340  1.00  0.00     0.056 C 
HETATM   11  C10 UNL     1      21.693   0.638  53.718  1.00  0.00     0.013 C 
HETATM   12  C11 UNL     1      20.393   0.076  54.132  1.00  0.00     0.007 C 
HETATM   13  C12 UNL     1      19.728  -0.707  53.038  1.00  0.00     0.003 C 
HETATM   14  C16 UNL     1      19.688   0.262  51.847  1.00  0.00     0.007 C 
HETATM   15  C17 UNL     1      21.117   0.351  51.282  1.00  0.00     0.013 C 
BRANCH  13  16
HETATM   16  C13 UNL     1      18.295  -1.050  53.347  1.00  0.00     0.127 C 
BRANCH  16  17
HETATM   17  N3  UNL     1      18.136  -2.422  53.755  1.00  0.00    -0.361 N 
HETATM   18  C14 UNL     1      17.034  -3.217  53.403  1.00  0.00     0.213 C 
HETATM   19  C15 UNL     1      16.834  -4.637  53.805  1.00  0.00     0.117 C 
HETATM   20  O1  UNL     1      16.117  -2.709  52.684  1.00  0.00    -0.274 OA
HETATM   21  H17 UNL     1      18.826  -2.963  54.355  1.00  0.00     0.162 HD
ENDBRANCH  16  17
ENDBRANCH  13  16
ENDBRANCH   3  10
BRANCH   1  22
HETATM   22  C2  UNL     1      25.026   3.834  50.574  1.00  0.00     0.037 C 
HETATM   23  C1  UNL     1      25.514   3.589  49.372  1.00  0.00     0.065 C 
BRANCH  22  24
HETATM   24  N1  UNL     1      25.011   5.201  50.827  1.00  0.00    -0.383 N 
HETATM   25  H3  UNL     1      25.388   5.303  51.806  1.00  0.00     0.160 HD
BRANCH  24  26
HETATM   26  C3  UNL     1      24.645   6.430  50.144  1.00  0.00     0.107 A 
HETATM   27  C4  UNL     1      23.208   6.579  49.872  1.00  0.00    -0.006 A 
HETATM   28  C5  UNL     1      23.133   7.672  50.587  1.00  0.00    -0.026 A 
HETATM   29  C6  UNL     1      24.540   7.666  50.948  1.00  0.00     0.056 A 
ENDBRANCH  24  26
ENDBRANCH  22  24
ENDBRANCH   1  22
BRANCH   8  30
HETATM   30  N6  UNL     1      27.583   2.738  51.910  1.00  0.00    -0.285 NA
HETATM   31  H27 UNL     1      27.781   3.531  51.274  1.00  0.00     0.125 HD
HETATM   32  H28 UNL     1      27.316   3.405  51.152  1.00  0.00     0.125 HD
ENDBRANCH   8  30
TORSDOF 7
ENDMDL
MODEL 7
REMARK VINA RESULT:      -8.0      2.000      4.264
REMARK  7 active torsions:
REMARK  status: ('A' for Active; 'I' for Inactive)
REMARK    1  A    between atoms: C2_2  and  N1_3 
REMARK    2  A    between atoms: C2_2  and  C7_8 
REMARK    3  A    between atoms: N1_3  and  C3_4 
REMARK    4  A    between atoms: C8_10  and  C9_11 
REMARK    5  A    between atoms: C12_14  and  C13_15 
REMARK    6  A    between atoms: C13_15  and  N3_16 
REMARK       I    between atoms: N3_16  and  C14_17 
REMARK    7  A    between atoms: C20_26  and  N6_27 
ROOT
HETATM    1  C7  UNL     1      24.574   0.668  53.347  1.00  0.00     0.111 A 
HETATM    2  N2  UNL     1      23.336   0.233  53.547  1.00  0.00    -0.230 NA
HETATM    3  C8  UNL     1      22.452   1.025  52.861  1.00  0.00     0.116 A 
HETATM    4  N4  UNL     1      23.149   1.989  52.209  1.00  0.00    -0.303 N 
HETATM    5  C18 UNL     1      22.770   3.003  51.412  1.00  0.00     0.118 A 
HETATM    6  C19 UNL     1      23.695   3.864  50.862  1.00  0.00     0.136 A 
HETATM    7  N5  UNL     1      25.002   3.630  51.172  1.00  0.00    -0.245 NA
HETATM    8  C20 UNL     1      25.331   2.606  51.973  1.00  0.00     0.130 A 
HETATM    9  C21 UNL     1      24.420   1.754  52.517  1.00  0.00     0.111 A 
ENDROOT
BRANCH   3  10
HETATM   10  C9  UNL     1      20.981   0.802  52.876  1.00  0.00     0.056 C 
HETATM   11  C10 UNL     1      20.641   0.331  51.480  1.00  0.00     0.013 C 
HETATM   12  C11 UNL     1      19.239  -0.086  51.287  1.00  0.00     0.007 C 
HETATM   13  C12 UNL     1      18.453  -0.074  52.566  1.00  0.00     0.003 C 
HETATM   14  C16 UNL     1      19.281  -0.935  53.530  1.00  0.00     0.007 C 
HETATM   15  C17 UNL     1      20.501  -0.100  53.958  1.00  0.00     0.013 C 
BRANCH  13  16
HETATM   16  C13 UNL     1      17.116  -0.752  52.441  1.00  0.00     0.127 C 
BRANCH  16  17
HETATM   17  N3  UNL     1      17.088  -2.032  53.100  1.00  0.00    -0.361 N 
HETATM   18  C14 UNL     1      16.134  -3.027  52.831  1.00  0.00     0.213 C 
HETATM   19  C15 UNL     1      16.073  -4.362  53.491  1.00  0.00     0.117 C 
HETATM   20  O1  UNL     1      15.239  -2.798  51.958  1.00  0.00    -0.274 OA
HETATM   21  H17 UNL     1      17.775  -2.348  53.847  1.00  0.00     0.162 HD
ENDBRANCH  16  17
ENDBRANCH  13  16
ENDBRANCH   3  10
BRANCH   1  22
HETATM   22  C2  UNL     1      25.752   0.069  53.918  1.00  0.00     0.037 C 
HETATM   23  C1  UNL     1      25.532  -0.513  55.082  1.00  0.00     0.065 C 
BRANCH  22  24
HETATM   24  N1  UNL     1      27.086  -0.059  53.550  1.00  0.00    -0.383 N 
HETATM   25  H3  UNL     1      27.092   0.037  52.500  1.00  0.00     0.160 HD
BRANCH  24  26
HETATM   26  C3  UNL     1      28.375  -0.268  54.188  1.00  0.00     0.107 A 
HETATM   27  C4  UNL     1      29.255  -1.223  53.498  1.00  0.00    -0.006 A 
HETATM   28  C5  UNL     1      30.179  -0.315  53.311  1.00  0.00    -0.026 A 
HETATM   29  C6  UNL     1      29.430   0.744  53.966  1.00  0.00     0.056 A 
ENDBRANCH  24  26
ENDBRANCH  22  24
ENDBRANCH   1  22
BRANCH   8  30
HETATM   30  N6  UNL     1      26.704   2.467  52.225  1.00  0.00    -0.285 NA
HETATM   31  H27 UNL     1      27.643   2.894  52.317  1.00  0.00     0.125 HD
HETATM   32  H28 UNL     1      27.355   3.283  52.209  1.00  0.00     0.125 HD
ENDBRANCH   8  30
TORSDOF 7
ENDMDL
MODEL 8
REMARK VINA RESULT:      -7.9      5.026      6.903
REMARK  7 active torsions:
REMARK  status: ('A' for Active; 'I' for Inactive)
REMARK    1  A    between atoms: C2_2  and  N1_3 
REMARK    2  A    between atoms: C2_2  and  C7_8 
REMARK    3  A    between atoms: N1_3  and  C3_4 
REMARK    4  A    between atoms: C8_10  and  C9_11 
REMARK    5  A    between atoms: C12_14  and  C13_15 
REMARK    6  A    between atoms: C13_15  and  N3_16 
REMARK       I    between atoms: N3_16  and  C14_17 
REMARK    7  A    between atoms: C20_26  and  N6_27 
ROOT
HETATM    1  C7  UNL     1      25.645   5.416  49.084  1.00  0.00     0.111 A 
HETATM    2  N2  UNL     1      26.015   4.469  49.937  1.00  0.00    -0.230 NA
HETATM    3  C8  UNL     1      24.928   3.707  50.280  1.00  0.00     0.116 A 
HETATM    4  N4  UNL     1      23.840   4.185  49.626  1.00  0.00    -0.303 N 
HETATM    5  C18 UNL     1      22.549   3.806  49.612  1.00  0.00     0.118 A 
HETATM    6  C19 UNL     1      21.617   4.473  48.846  1.00  0.00     0.136 A 
HETATM    7  N5  UNL     1      22.076   5.527  48.113  1.00  0.00    -0.245 NA
HETATM    8  C20 UNL     1      23.372   5.866  48.160  1.00  0.00     0.130 A 
HETATM    9  C21 UNL     1      24.295   5.210  48.915  1.00  0.00     0.111 A 
ENDROOT
BRANCH   3  10
HETATM   10  C9  UNL     1      25.007   2.558  51.221  1.00  0.00     0.056 C 
HETATM   11  C10 UNL     1      26.370   1.948  50.984  1.00  0.00     0.013 C 
HETATM   12  C11 UNL     1      26.733   0.858  51.910  1.00  0.00     0.007 C 
HETATM   13  C12 UNL     1      25.712   0.654  52.991  1.00  0.00     0.003 C 
HETATM   14  C16 UNL     1      25.547   2.043  53.625  1.00  0.00     0.007 C 
HETATM   15  C17 UNL     1      24.729   2.900  52.643  1.00  0.00     0.013 C 
BRANCH  13  16
HETATM   16  C13 UNL     1      26.193  -0.254  54.091  1.00  0.00     0.127 C 
BRANCH  16  17
HETATM   17  N3  UNL     1      27.470  -0.848  53.792  1.00  0.00    -0.361 N 
HETATM   18  C14 UNL     1      28.692  -0.353  54.274  1.00  0.00     0.213 C 
HETATM   19  C15 UNL     1      30.032  -0.939  53.987  1.00  0.00     0.117 C 
HETATM   20  O1  UNL     1      28.685   0.678  55.019  1.00  0.00    -0.274 OA
HETATM   21  H17 UNL     1      27.615  -1.708  53.184  1.00  0.00     0.162 HD
ENDBRANCH  16  17
ENDBRANCH  13  16
ENDBRANCH   3  10
BRANCH   1  22
HETATM   22  C2  UNL     1      26.533   6.396  48.517  1.00  0.00     0.037 C 
HETATM   23  C1  UNL     1      27.747   5.933  48.288  1.00  0.00     0.065 C 
BRANCH  22  24
HETATM   24  N1  UNL     1      26.438   7.731  48.138  1.00  0.00    -0.383 N 
HETATM   25  H3  UNL     1      26.035   7.711  47.164  1.00  0.00     0.160 HD
BRANCH  24  26
HETATM   26  C3  UNL     1      26.721   9.043  48.695  1.00  0.00     0.107 A 
HETATM   27  C4  UNL     1      27.071   9.042  50.123  1.00  0.00    -0.006 A 
HETATM   28  C5  UNL     1      28.249   9.561  49.887  1.00  0.00    -0.026 A 
HETATM   29  C6  UNL     1      28.055   9.628  48.448  1.00  0.00     0.056 A 
ENDBRANCH  24  26
ENDBRANCH  22  24
ENDBRANCH   1  22
BRANCH   8  30
HETATM   30  N6  UNL     1      23.726   6.969  47.368  1.00  0.00    -0.285 NA
HETATM   31  H27 UNL     1      24.169   7.350  46.513  1.00  0.00     0.125 HD
HETATM   32  H28 UNL     1      24.234   6.860  46.462  1.00  0.00     0.125 HD
ENDBRANCH   8  30
TORSDOF 7
ENDMDL
MODEL 9
REMARK VINA RESULT:      -7.9      3.871      9.390
REMARK  7 active torsions:
REMARK  status: ('A' for Active; 'I' for Inactive)
REMARK    1  A    between atoms: C2_2  and  N1_3 
REMARK    2  A    between atoms: C2_2  and  C7_8 
REMARK    3  A    between atoms: N1_3  and  C3_4 
REMARK    4  A    between atoms: C8_10  and  C9_11 
REMARK    5  A    between atoms: C12_14  and  C13_15 
REMARK    6  A    between atoms: C13_15  and  N3_16 
REMARK       I    between atoms: N3_16  and  C14_17 
REMARK    7  A    between atoms: C20_26  and  N6_27 
ROOT
HETATM    1  C7  UNL     1      23.064   1.559  51.077  1.00  0.00     0.111 A 
HETATM    2  N2  UNL     1      23.495   2.630  50.422  1.00  0.00    -0.230 NA
HETATM    3  C8  UNL     1      24.700   3.032  50.937  1.00  0.00     0.116 A 
HETATM    4  N4  UNL     1      25.042   2.191  51.946  1.00  0.00    -0.303 N 
HETATM    5  C18 UNL     1      26.106   2.143  52.767  1.00  0.00     0.118 A 
HETATM    6  C19 UNL     1      26.219   1.167  53.734  1.00  0.00     0.136 A 
HETATM    7  N5  UNL     1      25.199   0.264  53.807  1.00  0.00    -0.245 NA
HETATM    8  C20 UNL     1      24.159   0.354  52.966  1.00  0.00     0.130 A 
HETATM    9  C21 UNL     1      24.044   1.317  52.010  1.00  0.00     0.111 A 
ENDROOT
BRANCH   3  10
HETATM   10  C9  UNL     1      25.453   4.207  50.421  1.00  0.00     0.056 C 
HETATM   11  C10 UNL     1      26.508   3.626  49.506  1.00  0.00     0.013 C 
HETATM   12  C11 UNL     1      27.303   4.623  48.763  1.00  0.00     0.007 C 
HETATM   13  C12 UNL     1      26.818   6.026  48.979  1.00  0.00     0.003 C 
HETATM   14  C16 UNL     1      25.323   5.969  48.630  1.00  0.00     0.007 C 
HETATM   15  C17 UNL     1      24.609   5.257  49.792  1.00  0.00     0.013 C 
BRANCH  13  16
HETATM   16  C13 UNL     1      27.433   7.015  48.025  1.00  0.00     0.127 C 
BRANCH  16  17
HETATM   17  N3  UNL     1      28.838   6.773  47.817  1.00  0.00    -0.361 N 
HETATM   18  C14 UNL     1      29.856   7.543  48.402  1.00  0.00     0.213 C 
HETATM   19  C15 UNL     1      31.318   7.325  48.211  1.00  0.00     0.117 C 
HETATM   20  O1  UNL     1      29.534   8.512  49.160  1.00  0.00    -0.274 OA
HETATM   21  H17 UNL     1      29.239   6.000  47.209  1.00  0.00     0.162 HD
ENDBRANCH  16  17
ENDBRANCH  13  16
ENDBRANCH   3  10
BRANCH   1  22
HETATM   22  C2  UNL     1      21.829   0.874  50.798  1.00  0.00     0.037 C 
HETATM   23  C1  UNL     1      21.492   0.901  49.522  1.00  0.00     0.065 C 
BRANCH  22  24
HETATM   24  N1  UNL     1      20.884   0.176  51.540  1.00  0.00    -0.383 N 
HETATM   25  H3  UNL     1      21.255  -0.809  51.600  1.00  0.00     0.160 HD
BRANCH  24  26
HETATM   26  C3  UNL     1      19.620   0.432  52.209  1.00  0.00     0.107 A 
HETATM   27  C4  UNL     1      18.426   0.156  51.397  1.00  0.00    -0.006 A 
HETATM   28  C5  UNL     1      17.994  -0.743  52.243  1.00  0.00    -0.026 A 
HETATM   29  C6  UNL     1      19.116  -0.587  53.154  1.00  0.00     0.056 A 
ENDBRANCH  24  26
ENDBRANCH  22  24
ENDBRANCH   1  22
BRANCH   8  30
HETATM   30  N6  UNL     1      23.169  -0.625  53.139  1.00  0.00    -0.285 NA
HETATM   31  H27 UNL     1      22.260  -0.916  53.542  1.00  0.00     0.125 HD
HETATM   32  H28 UNL     1      22.307  -0.448  53.702  1.00  0.00     0.125 HD
ENDBRANCH   8  30
TORSDOF 7
ENDMDL
