MODEL 1
REMARK VINA RESULT:      -8.3      0.000      0.000
REMARK  2 active torsions:
REMARK  status: ('A' for Active; 'I' for Inactive)
REMARK    1  A    between atoms: O1_2  and  C2_3 
REMARK    2  A    between atoms: C7_8  and  O2_9 
ROOT
HETATM    1  C2  UNL     1      27.586   6.189  48.586  1.00  0.00     0.102 A 
HETATM    2  C3  UNL     1      27.062   4.924  48.748  1.00  0.00     0.050 A 
HETATM    3  C4  UNL     1      25.897   4.551  49.434  1.00  0.00    -0.018 A 
HETATM    4  C5  UNL     1      25.200   5.593  50.014  1.00  0.00     0.079 A 
HETATM    5  C6  UNL     1      25.708   6.889  49.867  1.00  0.00     0.077 A 
HETATM    6  C7  UNL     1      26.880   7.220  49.170  1.00  0.00     0.104 A 
HETATM    7  O3  UNL     1      24.065   5.702  50.747  1.00  0.00    -0.338 OA
HETATM    8  C9  UNL     1      22.753   5.936  50.406  1.00  0.00     0.190 C 
HETATM    9  C10 UNL     1      21.784   5.776  51.540  1.00  0.00     0.143 C 
HETATM   10  N1  UNL     1      22.288   4.795  52.215  1.00  0.00    -0.077 NA
HETATM   11  C11 UNL     1      22.532   3.634  51.358  1.00  0.00     0.721 C 
HETATM   12  N2  UNL     1      22.271   3.572  50.064  1.00  0.00    -0.102 NA
HETATM   13  C12 UNL     1      22.414   4.855  49.347  1.00  0.00     0.206 C 
HETATM   14  N3  UNL     1      23.089   2.327  51.477  1.00  0.00    -0.188 N 
HETATM   15  C13 UNL     1      24.526   2.129  51.600  1.00  0.00     0.057 A 
HETATM   16  C14 UNL     1      24.765   1.500  52.806  1.00  0.00     0.049 A 
HETATM   17  C15 UNL     1      26.027   1.168  53.266  1.00  0.00     0.013 A 
HETATM   18 BR1  UNL     1      26.407   0.304  54.912  1.00  0.00    -0.051 Br
HETATM   19  C16 UNL     1      27.114   1.497  52.448  1.00  0.00     0.020 A 
HETATM   20  C17 UNL     1      26.814   2.123  51.256  1.00  0.00     0.011 A 
HETATM   21  C18 UNL     1      25.571   2.470  50.765  1.00  0.00    -0.026 A 
HETATM   22  C19 UNL     1      25.532   3.117  49.462  1.00  0.00     0.082 C 
HETATM   23  H13 UNL     1      22.482   1.450  51.483  1.00  0.00     0.184 HD
ENDROOT
BRANCH   1  24
HETATM   24  O1  UNL     1      28.743   6.421  47.886  1.00  0.00    -0.353 OA
HETATM   25  C1  UNL     1      29.988   5.863  48.170  1.00  0.00     0.210 C 
ENDBRANCH   1  24
BRANCH   6  26
HETATM   26  O2  UNL     1      27.397   8.489  49.013  1.00  0.00    -0.353 OA
HETATM   27  C8  UNL     1      27.653   9.421  50.012  1.00  0.00     0.210 C 
ENDBRANCH   6  26
TORSDOF 2
ENDMDL
MODEL 2
REMARK VINA RESULT:      -8.0      4.076      6.353
REMARK  2 active torsions:
REMARK  status: ('A' for Active; 'I' for Inactive)
REMARK    1  A    between atoms: O1_2  and  C2_3 
REMARK    2  A    between atoms: C7_8  and  O2_9 
ROOT
HETATM    1  C2  UNL     1      26.193   1.503  53.748  1.00  0.00     0.102 A 
HETATM    2  C3  UNL     1      25.360   2.584  53.548  1.00  0.00     0.050 A 
HETATM    3  C4  UNL     1      24.077   2.595  52.981  1.00  0.00    -0.018 A 
HETATM    4  C5  UNL     1      23.604   1.360  52.579  1.00  0.00     0.079 A 
HETATM    5  C6  UNL     1      24.428   0.245  52.769  1.00  0.00     0.077 A 
HETATM    6  C7  UNL     1      25.708   0.278  53.341  1.00  0.00     0.104 A 
HETATM    7  O3  UNL     1      22.465   0.907  52.001  1.00  0.00    -0.338 OA
HETATM    8  C9  UNL     1      21.290   0.410  52.519  1.00  0.00     0.190 C 
HETATM    9  C10 UNL     1      20.205   0.212  51.503  1.00  0.00     0.143 C 
HETATM   10  N1  UNL     1      20.383   1.204  50.693  1.00  0.00    -0.077 NA
HETATM   11  C11 UNL     1      20.416   2.476  51.415  1.00  0.00     0.721 C 
HETATM   12  N2  UNL     1      20.277   2.617  52.722  1.00  0.00    -0.102 NA
HETATM   13  C12 UNL     1      20.803   1.490  53.519  1.00  0.00     0.206 C 
HETATM   14  N3  UNL     1      20.619   3.857  51.122  1.00  0.00    -0.188 N 
HETATM   15  C13 UNL     1      21.944   4.373  50.807  1.00  0.00     0.057 A 
HETATM   16  C14 UNL     1      21.900   4.905  49.534  1.00  0.00     0.049 A 
HETATM   17  C15 UNL     1      22.990   5.472  48.897  1.00  0.00     0.013 A 
HETATM   18 BR1  UNL     1      22.980   6.215  47.151  1.00  0.00    -0.051 Br
HETATM   19  C16 UNL     1      24.200   5.500  49.599  1.00  0.00     0.020 A 
HETATM   20  C17 UNL     1      24.183   4.955  50.867  1.00  0.00     0.011 A 
HETATM   21  C18 UNL     1      23.118   4.382  51.533  1.00  0.00    -0.026 A 
HETATM   22  C19 UNL     1      23.369   3.890  52.880  1.00  0.00     0.082 C 
HETATM   23  H13 UNL     1      19.818   4.560  51.117  1.00  0.00     0.184 HD
ENDROOT
BRANCH   1  24
HETATM   24  O1  UNL     1      27.435   1.628  54.317  1.00  0.00    -0.353 OA
HETATM   25  C1  UNL     1      28.565   2.148  53.690  1.00  0.00     0.210 C 
ENDBRANCH   1  24
BRANCH   6  26
HETATM   26  O2  UNL     1      26.535  -0.809  53.538  1.00  0.00    -0.353 OA
HETATM   27  C8  UNL     1      26.840  -1.808  52.621  1.00  0.00     0.210 C 
ENDBRANCH   6  26
TORSDOF 2
ENDMDL
MODEL 3
REMARK VINA RESULT:      -7.6      2.753      4.906
REMARK  2 active torsions:
REMARK  status: ('A' for Active; 'I' for Inactive)
REMARK    1  A    between atoms: O1_2  and  C2_3 
REMARK    2  A    between atoms: C7_8  and  O2_9 
ROOT
HETATM    1  C2  UNL     1      25.591   5.361  49.922  1.00  0.00     0.102 A 
HETATM    2  C3  UNL     1      24.803   4.950  50.977  1.00  0.00     0.050 A 
HETATM    3  C4  UNL     1      24.782   3.697  51.605  1.00  0.00    -0.018 A 
HETATM    4  C5  UNL     1      25.669   2.770  51.092  1.00  0.00     0.079 A 
HETATM    5  C6  UNL     1      26.482   3.158  50.021  1.00  0.00     0.077 A 
HETATM    6  C7  UNL     1      26.471   4.425  49.419  1.00  0.00     0.104 A 
HETATM    7  O3  UNL     1      25.984   1.481  51.371  1.00  0.00    -0.338 OA
HETATM    8  C9  UNL     1      26.938   0.909  52.181  1.00  0.00     0.190 C 
HETATM    9  C10 UNL     1      26.796  -0.576  52.344  1.00  0.00     0.143 C 
HETATM   10  N1  UNL     1      25.514  -0.745  52.350  1.00  0.00    -0.077 NA
HETATM   11  C11 UNL     1      24.873   0.115  53.346  1.00  0.00     0.721 C 
HETATM   12  N2  UNL     1      25.502   0.955  54.149  1.00  0.00    -0.102 NA
HETATM   13  C12 UNL     1      26.722   1.555  53.575  1.00  0.00     0.206 C 
HETATM   14  N3  UNL     1      23.552   0.421  53.788  1.00  0.00    -0.188 N 
HETATM   15  C13 UNL     1      22.658   1.240  52.981  1.00  0.00     0.057 A 
HETATM   16  C14 UNL     1      21.547   0.479  52.675  1.00  0.00     0.049 A 
HETATM   17  C15 UNL     1      20.492   0.932  51.904  1.00  0.00     0.013 A 
HETATM   18 BR1  UNL     1      18.945  -0.073  51.456  1.00  0.00    -0.051 Br
HETATM   19  C16 UNL     1      20.571   2.240  51.412  1.00  0.00     0.020 A 
HETATM   20  C17 UNL     1      21.704   2.951  51.750  1.00  0.00     0.011 A 
HETATM   21  C18 UNL     1      22.774   2.534  52.515  1.00  0.00    -0.026 A 
HETATM   22  C19 UNL     1      23.845   3.496  52.733  1.00  0.00     0.082 C 
HETATM   23  H13 UNL     1      23.167   0.065  54.716  1.00  0.00     0.184 HD
ENDROOT
BRANCH   1  24
HETATM   24  O1  UNL     1      25.512   6.625  49.395  1.00  0.00    -0.353 OA
HETATM   25  C1  UNL     1      26.048   7.777  49.968  1.00  0.00     0.210 C 
ENDBRANCH   1  24
BRANCH   6  26
HETATM   26  O2  UNL     1      27.263   4.828  48.365  1.00  0.00    -0.353 OA
HETATM   27  C8  UNL     1      28.571   5.294  48.428  1.00  0.00     0.210 C 
ENDBRANCH   6  26
TORSDOF 2
ENDMDL
MODEL 4
REMARK VINA RESULT:      -7.6      4.563      7.919
REMARK  2 active torsions:
REMARK  status: ('A' for Active; 'I' for Inactive)
REMARK    1  A    between atoms: O1_2  and  C2_3 
REMARK    2  A    between atoms: C7_8  and  O2_9 
ROOT
HETATM    1  C2  UNL     1      18.197  -0.559  52.322  1.00  0.00     0.102 A 
HETATM    2  C3  UNL     1      19.230   0.032  53.021  1.00  0.00     0.050 A 
HETATM    3  C4  UNL     1      20.161   0.973  52.558  1.00  0.00    -0.018 A 
HETATM    4  C5  UNL     1      20.011   1.343  51.236  1.00  0.00     0.079 A 
HETATM    5  C6  UNL     1      18.972   0.760  50.501  1.00  0.00     0.077 A 
HETATM    6  C7  UNL     1      18.060  -0.180  51.003  1.00  0.00     0.104 A 
HETATM    7  O3  UNL     1      20.655   2.187  50.393  1.00  0.00    -0.338 OA
HETATM    8  C9  UNL     1      20.453   3.507  50.060  1.00  0.00     0.190 C 
HETATM    9  C10 UNL     1      21.544   4.104  49.221  1.00  0.00     0.143 C 
HETATM   10  N1  UNL     1      22.609   3.535  49.684  1.00  0.00    -0.077 NA
HETATM   11  C11 UNL     1      22.702   3.691  51.136  1.00  0.00     0.721 C 
HETATM   12  N2  UNL     1      21.829   4.332  51.894  1.00  0.00    -0.102 NA
HETATM   13  C12 UNL     1      20.435   4.265  51.412  1.00  0.00     0.206 C 
HETATM   14  N3  UNL     1      23.563   3.274  52.193  1.00  0.00    -0.188 N 
HETATM   15  C13 UNL     1      23.563   1.897  52.667  1.00  0.00     0.057 A 
HETATM   16  C14 UNL     1      24.829   1.381  52.472  1.00  0.00     0.049 A 
HETATM   17  C15 UNL     1      25.191   0.085  52.793  1.00  0.00     0.013 A 
HETATM   18 BR1  UNL     1      26.914  -0.670  52.545  1.00  0.00    -0.051 Br
HETATM   19  C16 UNL     1      24.204  -0.738  53.347  1.00  0.00     0.020 A 
HETATM   20  C17 UNL     1      22.959  -0.168  53.519  1.00  0.00     0.011 A 
HETATM   21  C18 UNL     1      22.562   1.117  53.211  1.00  0.00    -0.026 A 
HETATM   22  C19 UNL     1      21.181   1.471  53.507  1.00  0.00     0.082 C 
HETATM   23  H13 UNL     1      24.239   3.945  52.673  1.00  0.00     0.184 HD
ENDROOT
BRANCH   1  24
HETATM   24  O1  UNL     1      17.350  -1.473  52.897  1.00  0.00    -0.353 OA
HETATM   25  C1  UNL     1      17.739  -2.646  53.539  1.00  0.00     0.210 C 
ENDBRANCH   1  24
BRANCH   6  26
HETATM   26  O2  UNL     1      17.030  -0.765  50.297  1.00  0.00    -0.353 OA
HETATM   27  C8  UNL     1      16.221  -0.165  49.340  1.00  0.00     0.210 C 
ENDBRANCH   6  26
TORSDOF 2
ENDMDL
MODEL 5
REMARK VINA RESULT:      -7.6      2.612      3.510
REMARK  2 active torsions:
REMARK  status: ('A' for Active; 'I' for Inactive)
REMARK    1  A    between atoms: O1_2  and  C2_3 
REMARK    2  A    between atoms: C7_8  and  O2_9 
ROOT
HETATM    1  C2  UNL     1      24.631   5.401  50.099  1.00  0.00     0.102 A 
HETATM    2  C3  UNL     1      24.267   4.076  49.982  1.00  0.00     0.050 A 
HETATM    3  C4  UNL     1      23.031   3.487  50.284  1.00  0.00    -0.018 A 
HETATM    4  C5  UNL     1      22.068   4.359  50.756  1.00  0.00     0.079 A 
HETATM    5  C6  UNL     1      22.408   5.710  50.886  1.00  0.00     0.077 A 
HETATM    6  C7  UNL     1      23.660   6.259  50.572  1.00  0.00     0.104 A 
HETATM    7  O3  UNL     1      20.779   4.242  51.161  1.00  0.00    -0.338 OA
HETATM    8  C9  UNL     1      19.579   4.375  50.502  1.00  0.00     0.190 C 
HETATM    9  C10 UNL     1      18.384   3.957  51.308  1.00  0.00     0.143 C 
HETATM   10  N1  UNL     1      18.833   2.955  51.990  1.00  0.00    -0.077 NA
HETATM   11  C11 UNL     1      19.450   1.955  51.117  1.00  0.00     0.721 C 
HETATM   12  N2  UNL     1      19.540   2.041  49.802  1.00  0.00    -0.102 NA
HETATM   13  C12 UNL     1      19.680   3.418  49.286  1.00  0.00     0.206 C 
HETATM   14  N3  UNL     1      20.137   0.713  51.249  1.00  0.00    -0.188 N 
HETATM   15  C13 UNL     1      21.508   0.658  51.738  1.00  0.00     0.057 A 
HETATM   16  C14 UNL     1      21.516  -0.100  52.892  1.00  0.00     0.049 A 
HETATM   17  C15 UNL     1      22.652  -0.351  53.641  1.00  0.00     0.013 A 
HETATM   18 BR1  UNL     1      22.715  -1.384  55.231  1.00  0.00    -0.051 Br
HETATM   19  C16 UNL     1      23.854   0.203  53.187  1.00  0.00     0.020 A 
HETATM   20  C17 UNL     1      23.785   0.950  52.029  1.00  0.00     0.011 A 
HETATM   21  C18 UNL     1      22.673   1.222  51.257  1.00  0.00    -0.026 A 
HETATM   22  C19 UNL     1      22.878   2.032  50.066  1.00  0.00     0.082 C 
HETATM   23  H13 UNL     1      19.680  -0.218  51.001  1.00  0.00     0.184 HD
ENDROOT
BRANCH   1  24
HETATM   24  O1  UNL     1      25.884   5.851  49.767  1.00  0.00    -0.353 OA
HETATM   25  C1  UNL     1      26.781   5.201  48.922  1.00  0.00     0.210 C 
ENDBRANCH   1  24
BRANCH   6  26
HETATM   26  O2  UNL     1      24.015   7.587  50.691  1.00  0.00    -0.353 OA
HETATM   27  C8  UNL     1      23.869   8.584  49.734  1.00  0.00     0.210 C 
ENDBRANCH   6  26
TORSDOF 2
ENDMDL
MODEL 6
REMARK VINA RESULT:      -7.4      4.870      7.467
REMARK  2 active torsions:
REMARK  status: ('A' for Active; 'I' for Inactive)
REMARK    1  A    between atoms: O1_2  and  C2_3 
REMARK    2  A    between atoms: C7_8  and  O2_9 
ROOT
HETATM    1  C2  UNL     1      32.208   5.124  48.078  1.00  0.00     0.102 A 
HETATM    2  C3  UNL     1      30.986   5.519  47.575  1.00  0.00     0.050 A 
HETATM    3  C4  UNL     1      30.347   6.758  47.725  1.00  0.00    -0.018 A 
HETATM    4  C5  UNL     1      31.041   7.688  48.475  1.00  0.00     0.079 A 
HETATM    5  C6  UNL     1      32.284   7.316  49.000  1.00  0.00     0.077 A 
HETATM    6  C7  UNL     1      32.890   6.063  48.825  1.00  0.00     0.104 A 
HETATM    7  O3  UNL     1      30.820   8.966  48.869  1.00  0.00    -0.338 OA
HETATM    8  C9  UNL     1      31.161  10.182  48.325  1.00  0.00     0.190 C 
HETATM    9  C10 UNL     1      30.529  11.360  49.006  1.00  0.00     0.143 C 
HETATM   10  N1  UNL     1      29.361  10.913  49.332  1.00  0.00    -0.077 NA
HETATM   11  C11 UNL     1      28.671  10.344  48.175  1.00  0.00     0.721 C 
HETATM   12  N2  UNL     1      29.155  10.291  46.946  1.00  0.00    -0.102 NA
HETATM   13  C12 UNL     1      30.622  10.138  46.871  1.00  0.00     0.206 C 
HETATM   14  N3  UNL     1      27.440   9.678  47.896  1.00  0.00    -0.188 N 
HETATM   15  C13 UNL     1      27.224   8.295  48.296  1.00  0.00     0.057 A 
HETATM   16  C14 UNL     1      26.149   8.268  49.162  1.00  0.00     0.049 A 
HETATM   17  C15 UNL     1      25.668   7.115  49.758  1.00  0.00     0.013 A 
HETATM   18 BR1  UNL     1      24.197   7.026  50.953  1.00  0.00    -0.051 Br
HETATM   19  C16 UNL     1      26.322   5.916  49.454  1.00  0.00     0.020 A 
HETATM   20  C17 UNL     1      27.388   6.005  48.583  1.00  0.00     0.011 A 
HETATM   21  C18 UNL     1      27.895   7.134  47.970  1.00  0.00    -0.026 A 
HETATM   22  C19 UNL     1      29.030   6.948  47.078  1.00  0.00     0.082 C 
HETATM   23  H13 UNL     1      26.635  10.162  47.391  1.00  0.00     0.184 HD
ENDROOT
BRANCH   1  24
HETATM   24  O1  UNL     1      32.725   3.873  47.857  1.00  0.00    -0.353 OA
HETATM   25  C1  UNL     1      32.575   3.130  46.688  1.00  0.00     0.210 C 
ENDBRANCH   1  24
BRANCH   6  26
HETATM   26  O2  UNL     1      34.113   5.677  49.332  1.00  0.00    -0.353 OA
HETATM   27  C8  UNL     1      35.369   5.995  48.829  1.00  0.00     0.210 C 
ENDBRANCH   6  26
TORSDOF 2
ENDMDL
MODEL 7
REMARK VINA RESULT:      -7.2      4.537      6.771
REMARK  2 active torsions:
REMARK  status: ('A' for Active; 'I' for Inactive)
REMARK    1  A    between atoms: O1_2  and  C2_3 
REMARK    2  A    between atoms: C7_8  and  O2_9 
ROOT
HETATM    1  C2  UNL     1      27.543   0.864  53.684  1.00  0.00     0.102 A 
HETATM    2  C3  UNL     1      26.486   1.716  53.439  1.00  0.00     0.050 A 
HETATM    3  C4  UNL     1      25.134   1.388  53.262  1.00  0.00    -0.018 A 
HETATM    4  C5  UNL     1      24.842   0.040  53.347  1.00  0.00     0.079 A 
HETATM    5  C6  UNL     1      25.895  -0.848  53.594  1.00  0.00     0.077 A 
HETATM    6  C7  UNL     1      27.237  -0.478  53.766  1.00  0.00     0.104 A 
HETATM    7  O3  UNL     1      23.718  -0.710  53.244  1.00  0.00    -0.338 OA
HETATM    8  C9  UNL     1      22.814  -1.168  54.175  1.00  0.00     0.190 C 
HETATM    9  C10 UNL     1      21.592  -1.806  53.584  1.00  0.00     0.143 C 
HETATM   10  N1  UNL     1      21.380  -1.098  52.523  1.00  0.00    -0.077 NA
HETATM   11  C11 UNL     1      21.317   0.328  52.844  1.00  0.00     0.721 C 
HETATM   12  N2  UNL     1      21.448   0.846  54.053  1.00  0.00    -0.102 NA
HETATM   13  C12 UNL     1      22.354   0.097  54.946  1.00  0.00     0.206 C 
HETATM   14  N3  UNL     1      21.167   1.565  52.150  1.00  0.00    -0.188 N 
HETATM   15  C13 UNL     1      22.256   2.123  51.360  1.00  0.00     0.057 A 
HETATM   16  C14 UNL     1      21.822   2.226  50.054  1.00  0.00     0.049 A 
HETATM   17  C15 UNL     1      22.605   2.703  49.017  1.00  0.00     0.013 A 
HETATM   18 BR1  UNL     1      22.056   2.864  47.208  1.00  0.00    -0.051 Br
HETATM   19  C16 UNL     1      23.910   3.100  49.330  1.00  0.00     0.020 A 
HETATM   20  C17 UNL     1      24.287   2.975  50.651  1.00  0.00     0.011 A 
HETATM   21  C18 UNL     1      23.536   2.505  51.710  1.00  0.00    -0.026 A 
HETATM   22  C19 UNL     1      24.175   2.488  53.017  1.00  0.00     0.082 C 
HETATM   23  H13 UNL     1      20.260   2.125  52.177  1.00  0.00     0.184 HD
ENDROOT
BRANCH   1  24
HETATM   24  O1  UNL     1      28.830   1.316  53.839  1.00  0.00    -0.353 OA
HETATM   25  C1  UNL     1      29.344   1.920  54.984  1.00  0.00     0.210 C 
ENDBRANCH   1  24
BRANCH   6  26
HETATM   26  O2  UNL     1      28.289  -1.337  54.011  1.00  0.00    -0.353 OA
HETATM   27  C8  UNL     1      29.081  -1.983  53.070  1.00  0.00     0.210 C 
ENDBRANCH   6  26
TORSDOF 2
ENDMDL
MODEL 8
REMARK VINA RESULT:      -6.9      3.456      6.721
REMARK  2 active torsions:
REMARK  status: ('A' for Active; 'I' for Inactive)
REMARK    1  A    between atoms: O1_2  and  C2_3 
REMARK    2  A    between atoms: C7_8  and  O2_9 
ROOT
HETATM    1  C2  UNL     1      18.683   1.795  51.159  1.00  0.00     0.102 A 
HETATM    2  C3  UNL     1      19.732   2.035  52.022  1.00  0.00     0.050 A 
HETATM    3  C4  UNL     1      20.978   2.610  51.732  1.00  0.00    -0.018 A 
HETATM    4  C5  UNL     1      21.161   2.975  50.412  1.00  0.00     0.079 A 
HETATM    5  C6  UNL     1      20.114   2.743  49.512  1.00  0.00     0.077 A 
HETATM    6  C7  UNL     1      18.880   2.164  49.845  1.00  0.00     0.104 A 
HETATM    7  O3  UNL     1      22.165   3.542  49.700  1.00  0.00    -0.338 OA
HETATM    8  C9  UNL     1      22.456   4.847  49.374  1.00  0.00     0.190 C 
HETATM    9  C10 UNL     1      23.797   5.036  48.727  1.00  0.00     0.143 C 
HETATM   10  N1  UNL     1      24.535   4.163  49.332  1.00  0.00    -0.077 NA
HETATM   11  C11 UNL     1      24.451   4.316  50.785  1.00  0.00     0.721 C 
HETATM   12  N2  UNL     1      23.729   5.225  51.417  1.00  0.00    -0.102 NA
HETATM   13  C12 UNL     1      22.480   5.604  50.727  1.00  0.00     0.206 C 
HETATM   14  N3  UNL     1      24.957   3.669  51.951  1.00  0.00    -0.188 N 
HETATM   15  C13 UNL     1      24.437   2.379  52.383  1.00  0.00     0.057 A 
HETATM   16  C14 UNL     1      25.480   1.476  52.370  1.00  0.00     0.049 A 
HETATM   17  C15 UNL     1      25.348   0.140  52.708  1.00  0.00     0.013 A 
HETATM   18 BR1  UNL     1      26.748  -1.140  52.707  1.00  0.00    -0.051 Br
HETATM   19  C16 UNL     1      24.074  -0.302  53.083  1.00  0.00     0.020 A 
HETATM   20  C17 UNL     1      23.071   0.645  53.078  1.00  0.00     0.011 A 
HETATM   21  C18 UNL     1      23.166   1.982  52.747  1.00  0.00    -0.026 A 
HETATM   22  C19 UNL     1      21.947   2.773  52.838  1.00  0.00     0.082 C 
HETATM   23  H13 UNL     1      25.732   4.096  52.545  1.00  0.00     0.184 HD
ENDROOT
BRANCH   1  24
HETATM   24  O1  UNL     1      17.508   1.221  51.573  1.00  0.00    -0.353 OA
HETATM   25  C1  UNL     1      17.340  -0.115  51.933  1.00  0.00     0.210 C 
ENDBRANCH   1  24
BRANCH   6  26
HETATM   26  O2  UNL     1      17.836   1.928  48.975  1.00  0.00    -0.353 OA
HETATM   27  C8  UNL     1      17.180   2.859  48.178  1.00  0.00     0.210 C 
ENDBRANCH   6  26
TORSDOF 2
ENDMDL
MODEL 9
REMARK VINA RESULT:      -6.9      6.647      9.158
REMARK  2 active torsions:
REMARK  status: ('A' for Active; 'I' for Inactive)
REMARK    1  A    between atoms: O1_2  and  C2_3 
REMARK    2  A    between atoms: C7_8  and  O2_9 
ROOT
HETATM    1  C2  UNL     1      32.351   6.698  48.874  1.00  0.00     0.102 A 
HETATM    2  C3  UNL     1      32.126   8.050  49.029  1.00  0.00     0.050 A 
HETATM    3  C4  UNL     1      30.943   8.764  48.788  1.00  0.00    -0.018 A 
HETATM    4  C5  UNL     1      29.881   8.002  48.340  1.00  0.00     0.079 A 
HETATM    5  C6  UNL     1      30.080   6.627  48.173  1.00  0.00     0.077 A 
HETATM    6  C7  UNL     1      31.282   5.950  48.426  1.00  0.00     0.104 A 
HETATM    7  O3  UNL     1      28.596   8.254  47.990  1.00  0.00    -0.338 OA
HETATM    8  C9  UNL     1      27.414   8.226  48.695  1.00  0.00     0.190 C 
HETATM    9  C10 UNL     1      26.237   8.776  47.946  1.00  0.00     0.143 C 
HETATM   10  N1  UNL     1      26.756   9.745  47.264  1.00  0.00    -0.077 NA
HETATM   11  C11 UNL     1      27.503  10.659  48.129  1.00  0.00     0.721 C 
HETATM   12  N2  UNL     1      27.635  10.536  49.438  1.00  0.00    -0.102 NA
HETATM   13  C12 UNL     1      27.657   9.142  49.923  1.00  0.00     0.206 C 
HETATM   14  N3  UNL     1      28.304  11.830  47.991  1.00  0.00    -0.188 N 
HETATM   15  C13 UNL     1      29.654  11.760  47.448  1.00  0.00     0.057 A 
HETATM   16  C14 UNL     1      29.693  12.538  46.309  1.00  0.00     0.049 A 
HETATM   17  C15 UNL     1      30.818  12.693  45.518  1.00  0.00     0.013 A 
HETATM   18 BR1  UNL     1      30.922  13.749  43.945  1.00  0.00    -0.051 Br
HETATM   19  C16 UNL     1      31.976  12.013  45.913  1.00  0.00     0.020 A 
HETATM   20  C17 UNL     1      31.878  11.252  47.060  1.00  0.00     0.011 A 
HETATM   21  C18 UNL     1      30.775  11.074  47.871  1.00  0.00    -0.026 A 
HETATM   22  C19 UNL     1      30.944  10.222  49.038  1.00  0.00     0.082 C 
HETATM   23  H13 UNL     1      27.952  12.796  48.274  1.00  0.00     0.184 HD
ENDROOT
BRANCH   1  24
HETATM   24  O1  UNL     1      33.565   6.119  49.147  1.00  0.00    -0.353 OA
HETATM   25  C1  UNL     1      34.769   6.426  48.515  1.00  0.00     0.210 C 
ENDBRANCH   1  24
BRANCH   6  26
HETATM   26  O2  UNL     1      31.499   4.597  48.268  1.00  0.00    -0.353 OA
HETATM   27  C8  UNL     1      31.741   3.919  47.080  1.00  0.00     0.210 C 
ENDBRANCH   6  26
TORSDOF 2
ENDMDL
