MODEL 1
REMARK VINA RESULT:      -7.9      0.000      0.000
REMARK  8 active torsions:
REMARK  status: ('A' for Active; 'I' for Inactive)
REMARK    1  A    between atoms: C2_2  and  C3_3 
REMARK    2  A    between atoms: C4_4  and  C5_5 
REMARK    3  A    between atoms: C6_6  and  C7_7 
REMARK    4  A    between atoms: C7_7  and  N1_8 
REMARK    5  A    between atoms: N1_8  and  C8_9 
REMARK    6  A    between atoms: C12_15  and  O1_16 
REMARK    7  A    between atoms: O1_16  and  C13_17 
REMARK    8  A    between atoms: C13_17  and  C14_18 
ROOT
HETATM    1  C8  UNL     1      21.706   3.219  52.039  1.00  0.00     0.140 A 
HETATM    2  N2  UNL     1      22.058   4.248  51.263  1.00  0.00    -0.224 NA
HETATM    3  C9  UNL     1      23.235   4.413  50.681  1.00  0.00     0.236 A 
HETATM    4  N3  UNL     1      24.176   3.485  50.868  1.00  0.00    -0.241 NA
HETATM    5  C10 UNL     1      23.961   2.383  51.633  1.00  0.00     0.077 A 
HETATM    6  C11 UNL     1      24.935   1.427  51.825  1.00  0.00     0.072 A 
HETATM    7  C12 UNL     1      24.688   0.320  52.606  1.00  0.00     0.107 A 
HETATM    8  C18 UNL     1      23.450   0.208  53.180  1.00  0.00     0.136 A 
HETATM    9  C19 UNL     1      22.506   1.177  52.970  1.00  0.00     0.121 A 
HETATM   10  C20 UNL     1      22.707   2.290  52.203  1.00  0.00     0.075 A 
HETATM   11  O3  UNL     1      21.300   0.947  53.603  1.00  0.00    -0.345 OA
HETATM   12  C21 UNL     1      20.917  -0.322  54.047  1.00  0.00     0.202 C 
HETATM   13  C22 UNL     1      22.101  -0.943  54.799  1.00  0.00     0.202 C 
HETATM   14  O4  UNL     1      23.256  -0.940  53.966  1.00  0.00    -0.344 OA
ENDROOT
BRANCH   1  15
HETATM   15  N1  UNL     1      20.420   3.133  52.616  1.00  0.00    -0.370 N 
HETATM   16  H12 UNL     1      19.974   3.107  53.539  1.00  0.00     0.161 HD
BRANCH  15  17
HETATM   17  C7  UNL     1      19.321   3.055  51.673  1.00  0.00     0.148 C 
BRANCH  17  18
HETATM   18  C6  UNL     1      18.944   1.724  51.231  1.00  0.00    -0.007 C 
HETATM   19  C5  UNL     1      19.278   1.083  50.125  1.00  0.00    -0.003 C 
BRANCH  19  20
HETATM   20  C4  UNL     1      20.143   1.659  49.105  1.00  0.00    -0.004 C 
HETATM   21  C3  UNL     1      21.396   1.269  48.945  1.00  0.00    -0.027 C 
BRANCH  21  22
HETATM   22  C2  UNL     1      22.339   1.787  47.951  1.00  0.00     0.022 C 
HETATM   23  C1  UNL     1      22.004   3.166  47.434  1.00  0.00     0.009 C 
ENDBRANCH  21  22
ENDBRANCH  19  20
ENDBRANCH  17  18
ENDBRANCH  15  17
ENDBRANCH   1  15
BRANCH   7  24
HETATM   24  O1  UNL     1      25.674  -0.647  52.799  1.00  0.00    -0.346 OA
BRANCH  24  25
HETATM   25  C13 UNL     1      27.046  -0.373  52.603  1.00  0.00     0.207 C 
BRANCH  25  26
HETATM   26  C14 UNL     1      27.790  -1.041  53.742  1.00  0.00     0.145 C 
HETATM   27  C15 UNL     1      29.219  -1.259  53.271  1.00  0.00     0.036 C 
HETATM   28  C16 UNL     1      29.868   0.053  53.608  1.00  0.00     0.029 C 
HETATM   29  C17 UNL     1      28.988   0.604  54.688  1.00  0.00     0.168 C 
HETATM   30  O2  UNL     1      27.914  -0.250  54.859  1.00  0.00    -0.384 OA
ENDBRANCH  25  26
ENDBRANCH  24  25
ENDBRANCH   7  24
TORSDOF 8
ENDMDL
MODEL 2
REMARK VINA RESULT:      -7.7      3.704      6.914
REMARK  8 active torsions:
REMARK  status: ('A' for Active; 'I' for Inactive)
REMARK    1  A    between atoms: C2_2  and  C3_3 
REMARK    2  A    between atoms: C4_4  and  C5_5 
REMARK    3  A    between atoms: C6_6  and  C7_7 
REMARK    4  A    between atoms: C7_7  and  N1_8 
REMARK    5  A    between atoms: N1_8  and  C8_9 
REMARK    6  A    between atoms: C12_15  and  O1_16 
REMARK    7  A    between atoms: O1_16  and  C13_17 
REMARK    8  A    between atoms: C13_17  and  C14_18 
ROOT
HETATM    1  C8  UNL     1      25.600   3.709  50.166  1.00  0.00     0.140 A 
HETATM    2  N2  UNL     1      24.646   4.168  49.350  1.00  0.00    -0.224 NA
HETATM    3  C9  UNL     1      23.384   3.773  49.334  1.00  0.00     0.236 A 
HETATM    4  N3  UNL     1      22.997   2.833  50.199  1.00  0.00    -0.241 NA
HETATM    5  C10 UNL     1      23.857   2.273  51.089  1.00  0.00     0.077 A 
HETATM    6  C11 UNL     1      23.456   1.303  51.981  1.00  0.00     0.072 A 
HETATM    7  C12 UNL     1      24.351   0.753  52.872  1.00  0.00     0.107 A 
HETATM    8  C18 UNL     1      25.643   1.205  52.837  1.00  0.00     0.136 A 
HETATM    9  C19 UNL     1      26.009   2.170  51.938  1.00  0.00     0.121 A 
HETATM   10  C20 UNL     1      25.155   2.742  51.038  1.00  0.00     0.075 A 
HETATM   11  O3  UNL     1      27.338   2.539  52.005  1.00  0.00    -0.345 OA
HETATM   12  C21 UNL     1      28.128   2.293  53.131  1.00  0.00     0.202 C 
HETATM   13  C22 UNL     1      27.902   0.840  53.567  1.00  0.00     0.202 C 
HETATM   14  O4  UNL     1      26.510   0.609  53.768  1.00  0.00    -0.344 OA
ENDROOT
BRANCH   1  15
HETATM   15  N1  UNL     1      26.923   4.196  50.105  1.00  0.00    -0.370 N 
HETATM   16  H12 UNL     1      27.709   4.415  50.727  1.00  0.00     0.161 HD
BRANCH  15  17
HETATM   17  C7  UNL     1      27.408   4.513  48.776  1.00  0.00     0.148 C 
BRANCH  17  18
HETATM   18  C6  UNL     1      27.676   5.915  48.503  1.00  0.00    -0.007 C 
HETATM   19  C5  UNL     1      28.795   6.489  48.098  1.00  0.00    -0.003 C 
BRANCH  19  20
HETATM   20  C4  UNL     1      30.021   5.746  47.843  1.00  0.00    -0.004 C 
HETATM   21  C3  UNL     1      31.083   5.854  48.624  1.00  0.00    -0.027 C 
BRANCH  21  22
HETATM   22  C2  UNL     1      32.355   5.150  48.450  1.00  0.00     0.022 C 
HETATM   23  C1  UNL     1      32.388   4.203  47.273  1.00  0.00     0.009 C 
ENDBRANCH  21  22
ENDBRANCH  19  20
ENDBRANCH  17  18
ENDBRANCH  15  17
ENDBRANCH   1  15
BRANCH   7  24
HETATM   24  O1  UNL     1      23.942  -0.229  53.774  1.00  0.00    -0.346 OA
BRANCH  24  25
HETATM   25  C13 UNL     1      22.839  -1.073  53.520  1.00  0.00     0.207 C 
BRANCH  25  26
HETATM   26  C14 UNL     1      21.905  -0.938  54.706  1.00  0.00     0.145 C 
HETATM   27  C15 UNL     1      21.051   0.296  54.460  1.00  0.00     0.036 C 
HETATM   28  C16 UNL     1      19.927  -0.255  53.630  1.00  0.00     0.029 C 
HETATM   29  C17 UNL     1      19.931  -1.714  53.973  1.00  0.00     0.168 C 
HETATM   30  O2  UNL     1      21.000  -1.966  54.815  1.00  0.00    -0.384 OA
ENDBRANCH  25  26
ENDBRANCH  24  25
ENDBRANCH   7  24
TORSDOF 8
ENDMDL
MODEL 3
REMARK VINA RESULT:      -7.5      1.301      2.585
REMARK  8 active torsions:
REMARK  status: ('A' for Active; 'I' for Inactive)
REMARK    1  A    between atoms: C2_2  and  C3_3 
REMARK    2  A    between atoms: C4_4  and  C5_5 
REMARK    3  A    between atoms: C6_6  and  C7_7 
REMARK    4  A    between atoms: C7_7  and  N1_8 
REMARK    5  A    between atoms: N1_8  and  C8_9 
REMARK    6  A    between atoms: C12_15  and  O1_16 
REMARK    7  A    between atoms: O1_16  and  C13_17 
REMARK    8  A    between atoms: C13_17  and  C14_18 
ROOT
HETATM    1  C8  UNL     1      21.369   3.124  52.007  1.00  0.00     0.140 A 
HETATM    2  N2  UNL     1      21.590   4.172  51.209  1.00  0.00    -0.224 NA
HETATM    3  C9  UNL     1      22.726   4.449  50.590  1.00  0.00     0.236 A 
HETATM    4  N3  UNL     1      23.762   3.624  50.757  1.00  0.00    -0.241 NA
HETATM    5  C10 UNL     1      23.684   2.516  51.539  1.00  0.00     0.077 A 
HETATM    6  C11 UNL     1      24.755   1.666  51.710  1.00  0.00     0.072 A 
HETATM    7  C12 UNL     1      24.647   0.551  52.511  1.00  0.00     0.107 A 
HETATM    8  C18 UNL     1      23.445   0.321  53.124  1.00  0.00     0.136 A 
HETATM    9  C19 UNL     1      22.400   1.186  52.933  1.00  0.00     0.121 A 
HETATM   10  C20 UNL     1      22.464   2.303  52.149  1.00  0.00     0.075 A 
HETATM   11  O3  UNL     1      21.244   0.843  53.606  1.00  0.00    -0.345 OA
HETATM   12  C21 UNL     1      21.007  -0.451  54.075  1.00  0.00     0.202 C 
HETATM   13  C22 UNL     1      22.269  -0.939  54.797  1.00  0.00     0.202 C 
HETATM   14  O4  UNL     1      23.393  -0.830  53.928  1.00  0.00    -0.344 OA
ENDROOT
BRANCH   1  15
HETATM   15  N1  UNL     1      20.116   2.915  52.624  1.00  0.00    -0.370 N 
HETATM   16  H12 UNL     1      19.713   2.788  53.560  1.00  0.00     0.161 HD
BRANCH  15  17
HETATM   17  C7  UNL     1      18.983   2.849  51.723  1.00  0.00     0.148 C 
BRANCH  17  18
HETATM   18  C6  UNL     1      19.135   1.996  50.556  1.00  0.00    -0.007 C 
HETATM   19  C5  UNL     1      18.935   0.695  50.439  1.00  0.00    -0.003 C 
BRANCH  19  20
HETATM   20  C4  UNL     1      18.498  -0.143  51.546  1.00  0.00    -0.004 C 
HETATM   21  C3  UNL     1      17.253  -0.581  51.646  1.00  0.00    -0.027 C 
BRANCH  21  22
HETATM   22  C2  UNL     1      16.721  -1.425  52.718  1.00  0.00     0.022 C 
HETATM   23  C1  UNL     1      17.768  -2.211  53.471  1.00  0.00     0.009 C 
ENDBRANCH  21  22
ENDBRANCH  19  20
ENDBRANCH  17  18
ENDBRANCH  15  17
ENDBRANCH   1  15
BRANCH   7  24
HETATM   24  O1  UNL     1      25.732  -0.308  52.682  1.00  0.00    -0.346 OA
BRANCH  24  25
HETATM   25  C13 UNL     1      27.067   0.152  52.665  1.00  0.00     0.207 C 
BRANCH  25  26
HETATM   26  C14 UNL     1      27.671  -0.213  54.006  1.00  0.00     0.145 C 
HETATM   27  C15 UNL     1      28.974  -0.944  53.721  1.00  0.00     0.036 C 
HETATM   28  C16 UNL     1      29.950   0.189  53.582  1.00  0.00     0.029 C 
HETATM   29  C17 UNL     1      29.292   1.304  54.337  1.00  0.00     0.168 C 
HETATM   30  O2  UNL     1      28.046   0.876  54.756  1.00  0.00    -0.384 OA
ENDBRANCH  25  26
ENDBRANCH  24  25
ENDBRANCH   7  24
TORSDOF 8
ENDMDL
MODEL 4
REMARK VINA RESULT:      -7.4      2.969      6.228
REMARK  8 active torsions:
REMARK  status: ('A' for Active; 'I' for Inactive)
REMARK    1  A    between atoms: C2_2  and  C3_3 
REMARK    2  A    between atoms: C4_4  and  C5_5 
REMARK    3  A    between atoms: C6_6  and  C7_7 
REMARK    4  A    between atoms: C7_7  and  N1_8 
REMARK    5  A    between atoms: N1_8  and  C8_9 
REMARK    6  A    between atoms: C12_15  and  O1_16 
REMARK    7  A    between atoms: O1_16  and  C13_17 
REMARK    8  A    between atoms: C13_17  and  C14_18 
ROOT
HETATM    1  C8  UNL     1      25.646   3.742  50.130  1.00  0.00     0.140 A 
HETATM    2  N2  UNL     1      24.694   4.212  49.320  1.00  0.00    -0.224 NA
HETATM    3  C9  UNL     1      23.419   3.858  49.335  1.00  0.00     0.236 A 
HETATM    4  N3  UNL     1      23.018   2.952  50.230  1.00  0.00    -0.241 NA
HETATM    5  C10 UNL     1      23.875   2.388  51.120  1.00  0.00     0.077 A 
HETATM    6  C11 UNL     1      23.459   1.453  52.042  1.00  0.00     0.072 A 
HETATM    7  C12 UNL     1      24.352   0.897  52.932  1.00  0.00     0.107 A 
HETATM    8  C18 UNL     1      25.657   1.306  52.864  1.00  0.00     0.136 A 
HETATM    9  C19 UNL     1      26.037   2.236  51.934  1.00  0.00     0.121 A 
HETATM   10  C20 UNL     1      25.186   2.813  51.034  1.00  0.00     0.075 A 
HETATM   11  O3  UNL     1      27.379   2.563  51.969  1.00  0.00    -0.345 OA
HETATM   12  C21 UNL     1      28.180   2.320  53.087  1.00  0.00     0.202 C 
HETATM   13  C22 UNL     1      27.915   0.886  53.563  1.00  0.00     0.202 C 
HETATM   14  O4  UNL     1      26.521   0.705  53.794  1.00  0.00    -0.344 OA
ENDROOT
BRANCH   1  15
HETATM   15  N1  UNL     1      26.983   4.185  50.034  1.00  0.00    -0.370 N 
HETATM   16  H12 UNL     1      27.786   4.395  50.638  1.00  0.00     0.161 HD
BRANCH  15  17
HETATM   17  C7  UNL     1      27.455   4.451  48.690  1.00  0.00     0.148 C 
BRANCH  17  18
HETATM   18  C6  UNL     1      28.148   5.711  48.486  1.00  0.00    -0.007 C 
HETATM   19  C5  UNL     1      27.652   6.907  48.224  1.00  0.00    -0.003 C 
BRANCH  19  20
HETATM   20  C4  UNL     1      26.224   7.161  48.091  1.00  0.00    -0.004 C 
HETATM   21  C3  UNL     1      25.724   7.837  47.070  1.00  0.00    -0.027 C 
BRANCH  21  22
HETATM   22  C2  UNL     1      24.308   8.142  46.850  1.00  0.00     0.022 C 
HETATM   23  C1  UNL     1      23.373   6.986  47.114  1.00  0.00     0.009 C 
ENDBRANCH  21  22
ENDBRANCH  19  20
ENDBRANCH  17  18
ENDBRANCH  15  17
ENDBRANCH   1  15
BRANCH   7  24
HETATM   24  O1  UNL     1      23.928  -0.049  53.865  1.00  0.00    -0.346 OA
BRANCH  24  25
HETATM   25  C13 UNL     1      22.897  -0.972  53.587  1.00  0.00     0.207 C 
BRANCH  25  26
HETATM   26  C14 UNL     1      21.935  -0.917  54.756  1.00  0.00     0.145 C 
HETATM   27  C15 UNL     1      21.033   0.287  54.532  1.00  0.00     0.036 C 
HETATM   28  C16 UNL     1      19.951  -0.284  53.661  1.00  0.00     0.029 C 
HETATM   29  C17 UNL     1      20.011  -1.752  53.957  1.00  0.00     0.168 C 
HETATM   30  O2  UNL     1      21.072  -1.986  54.812  1.00  0.00    -0.384 OA
ENDBRANCH  25  26
ENDBRANCH  24  25
ENDBRANCH   7  24
TORSDOF 8
ENDMDL
MODEL 5
REMARK VINA RESULT:      -7.2      2.927      8.559
REMARK  8 active torsions:
REMARK  status: ('A' for Active; 'I' for Inactive)
REMARK    1  A    between atoms: C2_2  and  C3_3 
REMARK    2  A    between atoms: C4_4  and  C5_5 
REMARK    3  A    between atoms: C6_6  and  C7_7 
REMARK    4  A    between atoms: C7_7  and  N1_8 
REMARK    5  A    between atoms: N1_8  and  C8_9 
REMARK    6  A    between atoms: C12_15  and  O1_16 
REMARK    7  A    between atoms: O1_16  and  C13_17 
REMARK    8  A    between atoms: C13_17  and  C14_18 
ROOT
HETATM    1  C8  UNL     1      24.213   1.468  52.410  1.00  0.00     0.140 A 
HETATM    2  N2  UNL     1      24.317   0.235  52.916  1.00  0.00    -0.224 NA
HETATM    3  C9  UNL     1      23.319  -0.498  53.383  1.00  0.00     0.236 A 
HETATM    4  N3  UNL     1      22.086   0.012  53.360  1.00  0.00    -0.241 NA
HETATM    5  C10 UNL     1      21.827   1.253  52.872  1.00  0.00     0.077 A 
HETATM    6  C11 UNL     1      20.553   1.777  52.849  1.00  0.00     0.072 A 
HETATM    7  C12 UNL     1      20.321   3.039  52.350  1.00  0.00     0.107 A 
HETATM    8  C18 UNL     1      21.396   3.747  51.882  1.00  0.00     0.136 A 
HETATM    9  C19 UNL     1      22.649   3.197  51.920  1.00  0.00     0.121 A 
HETATM   10  C20 UNL     1      22.924   1.950  52.406  1.00  0.00     0.075 A 
HETATM   11  O3  UNL     1      23.646   4.011  51.419  1.00  0.00    -0.345 OA
HETATM   12  C21 UNL     1      23.377   5.087  50.570  1.00  0.00     0.202 C 
HETATM   13  C22 UNL     1      22.213   5.888  51.165  1.00  0.00     0.202 C 
HETATM   14  O4  UNL     1      21.099   5.027  51.386  1.00  0.00    -0.344 OA
ENDROOT
BRANCH   1  15
HETATM   15  N1  UNL     1      25.341   2.170  51.935  1.00  0.00    -0.370 N 
HETATM   16  H12 UNL     1      25.573   3.023  51.414  1.00  0.00     0.161 HD
BRANCH  15  17
HETATM   17  C7  UNL     1      26.623   1.563  52.238  1.00  0.00     0.148 C 
BRANCH  17  18
HETATM   18  C6  UNL     1      27.577   2.394  52.951  1.00  0.00    -0.007 C 
HETATM   19  C5  UNL     1      28.552   2.036  53.768  1.00  0.00    -0.003 C 
BRANCH  19  20
HETATM   20  C4  UNL     1      28.837   0.647  54.101  1.00  0.00    -0.004 C 
HETATM   21  C3  UNL     1      29.773  -0.048  53.474  1.00  0.00    -0.027 C 
BRANCH  21  22
HETATM   22  C2  UNL     1      30.131  -1.443  53.736  1.00  0.00     0.022 C 
HETATM   23  C1  UNL     1      29.113  -2.449  53.255  1.00  0.00     0.009 C 
ENDBRANCH  21  22
ENDBRANCH  19  20
ENDBRANCH  17  18
ENDBRANCH  15  17
ENDBRANCH   1  15
BRANCH   7  24
HETATM   24  O1  UNL     1      19.030   3.567  52.327  1.00  0.00    -0.346 OA
BRANCH  24  25
HETATM   25  C13 UNL     1      18.033   3.081  51.454  1.00  0.00     0.207 C 
BRANCH  25  26
HETATM   26  C14 UNL     1      16.999   4.181  51.319  1.00  0.00     0.145 C 
HETATM   27  C15 UNL     1      15.906   3.652  50.402  1.00  0.00     0.036 C 
HETATM   28  C16 UNL     1      15.012   2.920  51.362  1.00  0.00     0.029 C 
HETATM   29  C17 UNL     1      15.323   3.564  52.680  1.00  0.00     0.168 C 
HETATM   30  O2  UNL     1      16.348   4.474  52.493  1.00  0.00    -0.384 OA
ENDBRANCH  25  26
ENDBRANCH  24  25
ENDBRANCH   7  24
TORSDOF 8
ENDMDL
MODEL 6
REMARK VINA RESULT:      -7.1      2.799      7.838
REMARK  8 active torsions:
REMARK  status: ('A' for Active; 'I' for Inactive)
REMARK    1  A    between atoms: C2_2  and  C3_3 
REMARK    2  A    between atoms: C4_4  and  C5_5 
REMARK    3  A    between atoms: C6_6  and  C7_7 
REMARK    4  A    between atoms: C7_7  and  N1_8 
REMARK    5  A    between atoms: N1_8  and  C8_9 
REMARK    6  A    between atoms: C12_15  and  O1_16 
REMARK    7  A    between atoms: O1_16  and  C13_17 
REMARK    8  A    between atoms: C13_17  and  C14_18 
ROOT
HETATM    1  C8  UNL     1      25.304   1.497  53.334  1.00  0.00     0.140 A 
HETATM    2  N2  UNL     1      25.569   0.394  54.040  1.00  0.00    -0.224 NA
HETATM    3  C9  UNL     1      24.774  -0.657  54.165  1.00  0.00     0.236 A 
HETATM    4  N3  UNL     1      23.594  -0.643  53.541  1.00  0.00    -0.241 NA
HETATM    5  C10 UNL     1      23.189   0.412  52.786  1.00  0.00     0.077 A 
HETATM    6  C11 UNL     1      21.971   0.423  52.143  1.00  0.00     0.072 A 
HETATM    7  C12 UNL     1      21.587   1.507  51.385  1.00  0.00     0.107 A 
HETATM    8  C18 UNL     1      22.455   2.562  51.296  1.00  0.00     0.136 A 
HETATM    9  C19 UNL     1      23.658   2.518  51.948  1.00  0.00     0.121 A 
HETATM   10  C20 UNL     1      24.079   1.464  52.710  1.00  0.00     0.075 A 
HETATM   11  O3  UNL     1      24.441   3.643  51.779  1.00  0.00    -0.345 OA
HETATM   12  C21 UNL     1      24.247   4.539  50.725  1.00  0.00     0.202 C 
HETATM   13  C22 UNL     1      22.748   4.851  50.631  1.00  0.00     0.202 C 
HETATM   14  O4  UNL     1      22.010   3.638  50.510  1.00  0.00    -0.344 OA
ENDROOT
BRANCH   1  15
HETATM   15  N1  UNL     1      26.221   2.567  53.263  1.00  0.00    -0.370 N 
HETATM   16  H12 UNL     1      26.277   3.569  53.476  1.00  0.00     0.161 HD
BRANCH  15  17
HETATM   17  C7  UNL     1      27.528   2.231  52.731  1.00  0.00     0.148 C 
BRANCH  17  18
HETATM   18  C6  UNL     1      28.653   2.382  53.637  1.00  0.00    -0.007 C 
HETATM   19  C5  UNL     1      29.307   1.460  54.320  1.00  0.00    -0.003 C 
BRANCH  19  20
HETATM   20  C4  UNL     1      28.974   0.044  54.261  1.00  0.00    -0.004 C 
HETATM   21  C3  UNL     1      29.580  -0.786  53.428  1.00  0.00    -0.027 C 
BRANCH  21  22
HETATM   22  C2  UNL     1      29.315  -2.221  53.297  1.00  0.00     0.022 C 
HETATM   23  C1  UNL     1      27.916  -2.556  52.835  1.00  0.00     0.009 C 
ENDBRANCH  21  22
ENDBRANCH  19  20
ENDBRANCH  17  18
ENDBRANCH  15  17
ENDBRANCH   1  15
BRANCH   7  24
HETATM   24  O1  UNL     1      20.353   1.517  50.734  1.00  0.00    -0.346 OA
BRANCH  24  25
HETATM   25  C13 UNL     1      19.450   0.435  50.816  1.00  0.00     0.207 C 
BRANCH  25  26
HETATM   26  C14 UNL     1      18.481   0.760  51.934  1.00  0.00     0.145 C 
HETATM   27  C15 UNL     1      17.084   0.737  51.332  1.00  0.00     0.036 C 
HETATM   28  C16 UNL     1      16.720  -0.717  51.429  1.00  0.00     0.029 C 
HETATM   29  C17 UNL     1      17.606  -1.220  52.529  1.00  0.00     0.168 C 
HETATM   30  O2  UNL     1      18.442  -0.192  52.925  1.00  0.00    -0.384 OA
ENDBRANCH  25  26
ENDBRANCH  24  25
ENDBRANCH   7  24
TORSDOF 8
ENDMDL
MODEL 7
REMARK VINA RESULT:      -7.1      2.194      4.033
REMARK  8 active torsions:
REMARK  status: ('A' for Active; 'I' for Inactive)
REMARK    1  A    between atoms: C2_2  and  C3_3 
REMARK    2  A    between atoms: C4_4  and  C5_5 
REMARK    3  A    between atoms: C6_6  and  C7_7 
REMARK    4  A    between atoms: C7_7  and  N1_8 
REMARK    5  A    between atoms: N1_8  and  C8_9 
REMARK    6  A    between atoms: C12_15  and  O1_16 
REMARK    7  A    between atoms: O1_16  and  C13_17 
REMARK    8  A    between atoms: C13_17  and  C14_18 
ROOT
HETATM    1  C8  UNL     1      21.965   4.890  50.442  1.00  0.00     0.140 A 
HETATM    2  N2  UNL     1      20.738   4.727  50.944  1.00  0.00    -0.224 NA
HETATM    3  C9  UNL     1      20.376   3.808  51.824  1.00  0.00     0.236 A 
HETATM    4  N3  UNL     1      21.298   2.952  52.271  1.00  0.00    -0.241 NA
HETATM    5  C10 UNL     1      22.589   2.998  51.850  1.00  0.00     0.077 A 
HETATM    6  C11 UNL     1      23.539   2.113  52.312  1.00  0.00     0.072 A 
HETATM    7  C12 UNL     1      24.840   2.183  51.867  1.00  0.00     0.107 A 
HETATM    8  C18 UNL     1      25.150   3.157  50.955  1.00  0.00     0.136 A 
HETATM    9  C19 UNL     1      24.182   4.020  50.516  1.00  0.00     0.121 A 
HETATM   10  C20 UNL     1      22.880   3.986  50.931  1.00  0.00     0.075 A 
HETATM   11  O3  UNL     1      24.622   4.954  49.599  1.00  0.00    -0.345 OA
HETATM   12  C21 UNL     1      25.972   5.282  49.453  1.00  0.00     0.202 C 
HETATM   13  C22 UNL     1      26.777   3.978  49.392  1.00  0.00     0.202 C 
HETATM   14  O4  UNL     1      26.491   3.180  50.537  1.00  0.00    -0.344 OA
ENDROOT
BRANCH   1  15
HETATM   15  N1  UNL     1      22.252   5.905  49.504  1.00  0.00    -0.370 N 
HETATM   16  H12 UNL     1      22.915   6.674  49.357  1.00  0.00     0.161 HD
BRANCH  15  17
HETATM   17  C7  UNL     1      21.380   5.944  48.346  1.00  0.00     0.148 C 
BRANCH  17  18
HETATM   18  C6  UNL     1      22.007   5.702  47.058  1.00  0.00    -0.007 C 
HETATM   19  C5  UNL     1      22.130   4.571  46.386  1.00  0.00    -0.003 C 
BRANCH  19  20
HETATM   20  C4  UNL     1      21.616   3.299  46.875  1.00  0.00    -0.004 C 
HETATM   21  C3  UNL     1      22.312   2.528  47.695  1.00  0.00    -0.027 C 
BRANCH  21  22
HETATM   22  C2  UNL     1      21.882   1.238  48.238  1.00  0.00     0.022 C 
HETATM   23  C1  UNL     1      20.665   1.312  49.129  1.00  0.00     0.009 C 
ENDBRANCH  21  22
ENDBRANCH  19  20
ENDBRANCH  17  18
ENDBRANCH  15  17
ENDBRANCH   1  15
BRANCH   7  24
HETATM   24  O1  UNL     1      25.800   1.287  52.336  1.00  0.00    -0.346 OA
BRANCH  24  25
HETATM   25  C13 UNL     1      26.327   1.364  53.643  1.00  0.00     0.207 C 
BRANCH  25  26
HETATM   26  C14 UNL     1      26.594  -0.060  54.090  1.00  0.00     0.145 C 
HETATM   27  C15 UNL     1      27.357  -0.741  52.965  1.00  0.00     0.036 C 
HETATM   28  C16 UNL     1      28.779  -0.371  53.274  1.00  0.00     0.029 C 
HETATM   29  C17 UNL     1      28.742  -0.063  54.741  1.00  0.00     0.168 C 
HETATM   30  O2  UNL     1      27.432  -0.149  55.175  1.00  0.00    -0.384 OA
ENDBRANCH  25  26
ENDBRANCH  24  25
ENDBRANCH   7  24
TORSDOF 8
ENDMDL
MODEL 8
REMARK VINA RESULT:      -7.1      1.743      3.119
REMARK  8 active torsions:
REMARK  status: ('A' for Active; 'I' for Inactive)
REMARK    1  A    between atoms: C2_2  and  C3_3 
REMARK    2  A    between atoms: C4_4  and  C5_5 
REMARK    3  A    between atoms: C6_6  and  C7_7 
REMARK    4  A    between atoms: C7_7  and  N1_8 
REMARK    5  A    between atoms: N1_8  and  C8_9 
REMARK    6  A    between atoms: C12_15  and  O1_16 
REMARK    7  A    between atoms: O1_16  and  C13_17 
REMARK    8  A    between atoms: C13_17  and  C14_18 
ROOT
HETATM    1  C8  UNL     1      20.627   0.862  53.090  1.00  0.00     0.140 A 
HETATM    2  N2  UNL     1      20.102  -0.261  53.590  1.00  0.00    -0.224 NA
HETATM    3  C9  UNL     1      20.783  -1.287  54.075  1.00  0.00     0.236 A 
HETATM    4  N3  UNL     1      22.117  -1.223  54.080  1.00  0.00    -0.241 NA
HETATM    5  C10 UNL     1      22.790  -0.143  53.605  1.00  0.00     0.077 A 
HETATM    6  C11 UNL     1      24.166  -0.080  53.611  1.00  0.00     0.072 A 
HETATM    7  C12 UNL     1      24.821   1.029  53.122  1.00  0.00     0.107 A 
HETATM    8  C18 UNL     1      24.058   2.056  52.633  1.00  0.00     0.136 A 
HETATM    9  C19 UNL     1      22.692   1.960  52.641  1.00  0.00     0.121 A 
HETATM   10  C20 UNL     1      22.002   0.881  53.117  1.00  0.00     0.075 A 
HETATM   11  O3  UNL     1      22.040   3.061  52.122  1.00  0.00    -0.345 OA
HETATM   12  C21 UNL     1      22.656   4.310  52.004  1.00  0.00     0.202 C 
HETATM   13  C22 UNL     1      24.041   4.103  51.379  1.00  0.00     0.202 C 
HETATM   14  O4  UNL     1      24.780   3.158  52.148  1.00  0.00    -0.344 OA
ENDROOT
BRANCH   1  15
HETATM   15  N1  UNL     1      19.812   1.902  52.595  1.00  0.00    -0.370 N 
HETATM   16  H12 UNL     1      19.570   2.878  52.804  1.00  0.00     0.161 HD
BRANCH  15  17
HETATM   17  C7  UNL     1      19.036   1.575  51.415  1.00  0.00     0.148 C 
BRANCH  17  18
HETATM   18  C6  UNL     1      19.732   0.854  50.363  1.00  0.00    -0.007 C 
HETATM   19  C5  UNL     1      20.379   1.326  49.312  1.00  0.00    -0.003 C 
BRANCH  19  20
HETATM   20  C4  UNL     1      20.500   2.749  49.028  1.00  0.00    -0.004 C 
HETATM   21  C3  UNL     1      21.624   3.282  48.577  1.00  0.00    -0.027 C 
BRANCH  21  22
HETATM   22  C2  UNL     1      21.842   4.696  48.264  1.00  0.00     0.022 C 
HETATM   23  C1  UNL     1      22.250   4.962  46.835  1.00  0.00     0.009 C 
ENDBRANCH  21  22
ENDBRANCH  19  20
ENDBRANCH  17  18
ENDBRANCH  15  17
ENDBRANCH   1  15
BRANCH   7  24
HETATM   24  O1  UNL     1      26.214   1.090  53.130  1.00  0.00    -0.346 OA
BRANCH  24  25
HETATM   25  C13 UNL     1      27.020  -0.028  52.823  1.00  0.00     0.207 C 
BRANCH  25  26
HETATM   26  C14 UNL     1      27.756  -0.397  54.096  1.00  0.00     0.145 C 
HETATM   27  C15 UNL     1      29.075  -1.026  53.678  1.00  0.00     0.036 C 
HETATM   28  C16 UNL     1      29.961   0.174  53.506  1.00  0.00     0.029 C 
HETATM   29  C17 UNL     1      29.296   1.216  54.356  1.00  0.00     0.168 C 
HETATM   30  O2  UNL     1      28.120   0.689  54.857  1.00  0.00    -0.384 OA
ENDBRANCH  25  26
ENDBRANCH  24  25
ENDBRANCH   7  24
TORSDOF 8
ENDMDL
MODEL 9
REMARK VINA RESULT:      -7.1      3.867      7.043
REMARK  8 active torsions:
REMARK  status: ('A' for Active; 'I' for Inactive)
REMARK    1  A    between atoms: C2_2  and  C3_3 
REMARK    2  A    between atoms: C4_4  and  C5_5 
REMARK    3  A    between atoms: C6_6  and  C7_7 
REMARK    4  A    between atoms: C7_7  and  N1_8 
REMARK    5  A    between atoms: N1_8  and  C8_9 
REMARK    6  A    between atoms: C12_15  and  O1_16 
REMARK    7  A    between atoms: O1_16  and  C13_17 
REMARK    8  A    between atoms: C13_17  and  C14_18 
ROOT
HETATM    1  C8  UNL     1      25.962   3.383  50.934  1.00  0.00     0.140 A 
HETATM    2  N2  UNL     1      26.950   2.508  51.140  1.00  0.00    -0.224 NA
HETATM    3  C9  UNL     1      26.816   1.292  51.646  1.00  0.00     0.236 A 
HETATM    4  N3  UNL     1      25.596   0.875  51.991  1.00  0.00    -0.241 NA
HETATM    5  C10 UNL     1      24.495   1.656  51.838  1.00  0.00     0.077 A 
HETATM    6  C11 UNL     1      23.237   1.223  52.194  1.00  0.00     0.072 A 
HETATM    7  C12 UNL     1      22.139   2.038  52.028  1.00  0.00     0.107 A 
HETATM    8  C18 UNL     1      22.345   3.284  51.500  1.00  0.00     0.136 A 
HETATM    9  C19 UNL     1      23.609   3.684  51.157  1.00  0.00     0.121 A 
HETATM   10  C20 UNL     1      24.725   2.909  51.304  1.00  0.00     0.075 A 
HETATM   11  O3  UNL     1      23.682   4.961  50.635  1.00  0.00    -0.345 OA
HETATM   12  C21 UNL     1      22.570   5.618  50.104  1.00  0.00     0.202 C 
HETATM   13  C22 UNL     1      21.403   5.454  51.085  1.00  0.00     0.202 C 
HETATM   14  O4  UNL     1      21.190   4.071  51.354  1.00  0.00    -0.344 OA
ENDROOT
BRANCH   1  15
HETATM   15  N1  UNL     1      26.208   4.661  50.387  1.00  0.00    -0.370 N 
HETATM   16  H12 UNL     1      26.189   5.650  50.661  1.00  0.00     0.161 HD
BRANCH  15  17
HETATM   17  C7  UNL     1      26.628   4.672  48.999  1.00  0.00     0.148 C 
BRANCH  17  18
HETATM   18  C6  UNL     1      27.092   5.945  48.475  1.00  0.00    -0.007 C 
HETATM   19  C5  UNL     1      28.311   6.309  48.120  1.00  0.00    -0.003 C 
BRANCH  19  20
HETATM   20  C4  UNL     1      29.462   5.420  48.206  1.00  0.00    -0.004 C 
HETATM   21  C3  UNL     1      30.633   5.734  47.678  1.00  0.00    -0.027 C 
BRANCH  21  22
HETATM   22  C2  UNL     1      31.843   4.909  47.713  1.00  0.00     0.022 C 
HETATM   23  C1  UNL     1      32.918   5.338  46.742  1.00  0.00     0.009 C 
ENDBRANCH  21  22
ENDBRANCH  19  20
ENDBRANCH  17  18
ENDBRANCH  15  17
ENDBRANCH   1  15
BRANCH   7  24
HETATM   24  O1  UNL     1      20.867   1.597  52.390  1.00  0.00    -0.346 OA
BRANCH  24  25
HETATM   25  C13 UNL     1      20.496   0.236  52.332  1.00  0.00     0.207 C 
BRANCH  25  26
HETATM   26  C14 UNL     1      19.970  -0.131  53.705  1.00  0.00     0.145 C 
HETATM   27  C15 UNL     1      20.036  -1.646  53.816  1.00  0.00     0.036 C 
HETATM   28  C16 UNL     1      21.444  -1.869  54.289  1.00  0.00     0.029 C 
HETATM   29  C17 UNL     1      21.803  -0.561  54.927  1.00  0.00     0.168 C 
HETATM   30  O2  UNL     1      20.756   0.323  54.737  1.00  0.00    -0.384 OA
ENDBRANCH  25  26
ENDBRANCH  24  25
ENDBRANCH   7  24
TORSDOF 8
ENDMDL
