MODEL 1
REMARK VINA RESULT:      -8.2      0.000      0.000
REMARK  5 active torsions:
REMARK  status: ('A' for Active; 'I' for Inactive)
REMARK    1  A    between atoms: C2_2  and  N1_3 
REMARK    2  A    between atoms: N1_3  and  C4_5 
REMARK    3  A    between atoms: C4_5  and  C5_6 
REMARK    4  A    between atoms: C12_15  and  N4_16 
REMARK    5  A    between atoms: N4_16  and  C13_17 
ROOT
HETATM    1  C5  UNL     1      24.220   2.990  50.168  1.00  0.00    -0.056 A 
HETATM    2  C6  UNL     1      24.548   2.485  51.347  1.00  0.00     0.020 A 
HETATM    3  C7  UNL     1      23.492   1.535  51.672  1.00  0.00     0.017 A 
HETATM    4  C8  UNL     1      22.523   1.459  50.694  1.00  0.00     0.050 A 
HETATM    5  N2  UNL     1      21.486   0.620  50.860  1.00  0.00    -0.263 NA
HETATM    6  C9  UNL     1      21.365  -0.159  51.965  1.00  0.00     0.142 A 
HETATM    7  C10 UNL     1      22.331  -0.094  52.958  1.00  0.00     0.089 A 
HETATM    8  C11 UNL     1      22.136  -0.945  54.096  1.00  0.00     0.103 C 
HETATM    9  N3  UNL     1      21.967  -1.632  55.006  1.00  0.00    -0.191 NA
HETATM   10  C12 UNL     1      23.422   0.770  52.816  1.00  0.00     0.067 A 
HETATM   11  C19 UNL     1      22.951   2.420  49.638  1.00  0.00     0.096 A 
ENDROOT
BRANCH  10  12
HETATM   12  N4  UNL     1      24.299   0.717  53.915  1.00  0.00    -0.354 N 
HETATM   13  H11 UNL     1      24.056   0.999  54.901  1.00  0.00     0.166 HD
BRANCH  12  14
HETATM   14  C13 UNL     1      25.624   0.241  53.680  1.00  0.00     0.034 A 
HETATM   15  C14 UNL     1      25.836  -0.954  53.016  1.00  0.00     0.032 A 
HETATM   16  C15 UNL     1      27.112  -1.448  52.763  1.00  0.00     0.046 A 
HETATM   17  C16 UNL     1      28.192  -0.719  53.188  1.00  0.00     0.138 A 
HETATM   18  F1  UNL     1      29.463  -1.176  52.955  1.00  0.00    -0.204 F 
HETATM   19  C17 UNL     1      28.043   0.481  53.854  1.00  0.00     0.074 A 
HETATM   20 CL1  UNL     1      29.393   1.455  54.419  1.00  0.00    -0.081 Cl
HETATM   21  C18 UNL     1      26.745   0.948  54.092  1.00  0.00     0.056 A 
ENDBRANCH  12  14
ENDBRANCH  10  12
BRANCH   1  22
HETATM   22  C4  UNL     1      24.890   3.997  49.315  1.00  0.00     0.156 C 
BRANCH  22  23
HETATM   23  N1  UNL     1      24.782   5.338  49.911  1.00  0.00    -0.391 N 
HETATM   24  C3  UNL     1      23.650   5.847  50.700  1.00  0.00     0.149 C 
BRANCH  23  25
HETATM   25  C2  UNL     1      25.914   6.163  49.657  1.00  0.00     0.075 C 
HETATM   26  C1  UNL     1      26.656   5.388  48.876  1.00  0.00     0.029 C 
ENDBRANCH  23  25
ENDBRANCH  22  23
ENDBRANCH   1  22
TORSDOF 5
ENDMDL
MODEL 2
REMARK VINA RESULT:      -7.9      2.866      5.714
REMARK  5 active torsions:
REMARK  status: ('A' for Active; 'I' for Inactive)
REMARK    1  A    between atoms: C2_2  and  N1_3 
REMARK    2  A    between atoms: N1_3  and  C4_5 
REMARK    3  A    between atoms: C4_5  and  C5_6 
REMARK    4  A    between atoms: C12_15  and  N4_16 
REMARK    5  A    between atoms: N4_16  and  C13_17 
ROOT
HETATM    1  C5  UNL     1      26.028   0.070  52.705  1.00  0.00    -0.056 A 
HETATM    2  C6  UNL     1      25.264   0.804  51.912  1.00  0.00     0.020 A 
HETATM    3  C7  UNL     1      23.920   0.712  52.470  1.00  0.00     0.017 A 
HETATM    4  C8  UNL     1      23.865  -0.074  53.601  1.00  0.00     0.050 A 
HETATM    5  N2  UNL     1      22.687  -0.249  54.224  1.00  0.00    -0.263 NA
HETATM    6  C9  UNL     1      21.546   0.331  53.771  1.00  0.00     0.142 A 
HETATM    7  C10 UNL     1      21.585   1.125  52.635  1.00  0.00     0.089 A 
HETATM    8  C11 UNL     1      20.340   1.704  52.217  1.00  0.00     0.103 C 
HETATM    9  N3  UNL     1      19.334   2.162  51.890  1.00  0.00    -0.191 NA
HETATM   10  C12 UNL     1      22.795   1.325  51.964  1.00  0.00     0.067 A 
HETATM   11  C19 UNL     1      25.262  -0.545  53.823  1.00  0.00     0.096 A 
ENDROOT
BRANCH  10  12
HETATM   12  N4  UNL     1      22.654   2.148  50.831  1.00  0.00    -0.354 N 
HETATM   13  H11 UNL     1      22.081   1.914  49.977  1.00  0.00     0.166 HD
BRANCH  12  14
HETATM   14  C13 UNL     1      23.340   3.399  50.833  1.00  0.00     0.034 A 
HETATM   15  C14 UNL     1      22.955   4.412  51.695  1.00  0.00     0.032 A 
HETATM   16  C15 UNL     1      23.602   5.643  51.732  1.00  0.00     0.046 A 
HETATM   17  C16 UNL     1      24.657   5.853  50.884  1.00  0.00     0.138 A 
HETATM   18  F1  UNL     1      25.317   7.054  50.893  1.00  0.00    -0.204 F 
HETATM   19  C17 UNL     1      25.087   4.880  50.003  1.00  0.00     0.074 A 
HETATM   20 CL1  UNL     1      26.435   5.098  48.894  1.00  0.00    -0.081 Cl
HETATM   21  C18 UNL     1      24.414   3.653  49.992  1.00  0.00     0.056 A 
ENDBRANCH  12  14
ENDBRANCH  10  12
BRANCH   1  22
HETATM   22  C4  UNL     1      27.477  -0.228  52.665  1.00  0.00     0.156 C 
BRANCH  22  23
HETATM   23  N1  UNL     1      28.221   0.685  53.546  1.00  0.00    -0.391 N 
HETATM   24  C3  UNL     1      28.206   2.155  53.481  1.00  0.00     0.149 C 
BRANCH  23  25
HETATM   25  C2  UNL     1      29.007   0.013  54.523  1.00  0.00     0.075 C 
HETATM   26  C1  UNL     1      29.709  -0.836  53.783  1.00  0.00     0.029 C 
ENDBRANCH  23  25
ENDBRANCH  22  23
ENDBRANCH   1  22
TORSDOF 5
ENDMDL
MODEL 3
REMARK VINA RESULT:      -7.9      2.968      5.897
REMARK  5 active torsions:
REMARK  status: ('A' for Active; 'I' for Inactive)
REMARK    1  A    between atoms: C2_2  and  N1_3 
REMARK    2  A    between atoms: N1_3  and  C4_5 
REMARK    3  A    between atoms: C4_5  and  C5_6 
REMARK    4  A    between atoms: C12_15  and  N4_16 
REMARK    5  A    between atoms: N4_16  and  C13_17 
ROOT
HETATM    1  C5  UNL     1      25.669  -0.268  53.953  1.00  0.00    -0.056 A 
HETATM    2  C6  UNL     1      24.860   0.194  53.013  1.00  0.00     0.020 A 
HETATM    3  C7  UNL     1      23.518  -0.195  53.427  1.00  0.00     0.017 A 
HETATM    4  C8  UNL     1      23.508  -0.892  54.616  1.00  0.00     0.050 A 
HETATM    5  N2  UNL     1      22.336  -1.315  55.121  1.00  0.00    -0.263 NA
HETATM    6  C9  UNL     1      21.157  -1.074  54.492  1.00  0.00     0.142 A 
HETATM    7  C10 UNL     1      21.151  -0.374  53.295  1.00  0.00     0.089 A 
HETATM    8  C11 UNL     1      19.869  -0.157  52.688  1.00  0.00     0.103 C 
HETATM    9  N3  UNL     1      18.833   0.009  52.210  1.00  0.00    -0.191 NA
HETATM   10  C12 UNL     1      22.354   0.078  52.743  1.00  0.00     0.067 A 
HETATM   11  C19 UNL     1      24.936  -0.980  55.035  1.00  0.00     0.096 A 
ENDROOT
BRANCH  10  12
HETATM   12  N4  UNL     1      22.167   0.760  51.527  1.00  0.00    -0.354 N 
HETATM   13  H11 UNL     1      21.728   0.349  50.660  1.00  0.00     0.166 HD
BRANCH  12  14
HETATM   14  C13 UNL     1      22.605   2.117  51.455  1.00  0.00     0.034 A 
HETATM   15  C14 UNL     1      22.054   3.078  52.284  1.00  0.00     0.032 A 
HETATM   16  C15 UNL     1      22.457   4.409  52.250  1.00  0.00     0.046 A 
HETATM   17  C16 UNL     1      23.435   4.773  51.361  1.00  0.00     0.138 A 
HETATM   18  F1  UNL     1      23.857   6.076  51.300  1.00  0.00    -0.204 F 
HETATM   19  C17 UNL     1      24.022   3.858  50.510  1.00  0.00     0.074 A 
HETATM   20 CL1  UNL     1      25.280   4.272  49.352  1.00  0.00    -0.081 Cl
HETATM   21  C18 UNL     1      23.592   2.527  50.571  1.00  0.00     0.056 A 
ENDBRANCH  12  14
ENDBRANCH  10  12
BRANCH   1  22
HETATM   22  C4  UNL     1      27.140  -0.194  54.100  1.00  0.00     0.156 C 
BRANCH  22  23
HETATM   23  N1  UNL     1      27.797  -1.238  53.299  1.00  0.00    -0.391 N 
HETATM   24  C3  UNL     1      27.120  -2.266  52.494  1.00  0.00     0.149 C 
BRANCH  23  25
HETATM   25  C2  UNL     1      29.218  -1.187  53.359  1.00  0.00     0.075 C 
HETATM   26  C1  UNL     1      29.439   0.075  53.706  1.00  0.00     0.029 C 
ENDBRANCH  23  25
ENDBRANCH  22  23
ENDBRANCH   1  22
TORSDOF 5
ENDMDL
MODEL 4
REMARK VINA RESULT:      -7.8      1.939      5.365
REMARK  5 active torsions:
REMARK  status: ('A' for Active; 'I' for Inactive)
REMARK    1  A    between atoms: C2_2  and  N1_3 
REMARK    2  A    between atoms: N1_3  and  C4_5 
REMARK    3  A    between atoms: C4_5  and  C5_6 
REMARK    4  A    between atoms: C12_15  and  N4_16 
REMARK    5  A    between atoms: N4_16  and  C13_17 
ROOT
HETATM    1  C5  UNL     1      21.854   1.292  52.838  1.00  0.00    -0.056 A 
HETATM    2  C6  UNL     1      23.082   1.752  53.020  1.00  0.00     0.020 A 
HETATM    3  C7  UNL     1      23.541   2.174  51.703  1.00  0.00     0.017 A 
HETATM    4  C8  UNL     1      22.596   1.973  50.719  1.00  0.00     0.050 A 
HETATM    5  N2  UNL     1      22.882   2.317  49.452  1.00  0.00    -0.263 NA
HETATM    6  C9  UNL     1      24.078   2.861  49.111  1.00  0.00     0.142 A 
HETATM    7  C10 UNL     1      25.040   3.069  50.088  1.00  0.00     0.089 A 
HETATM    8  C11 UNL     1      26.279   3.647  49.654  1.00  0.00     0.103 C 
HETATM    9  N3  UNL     1      27.271   4.110  49.292  1.00  0.00    -0.191 NA
HETATM   10  C12 UNL     1      24.772   2.721  51.416  1.00  0.00     0.067 A 
HETATM   11  C19 UNL     1      21.420   1.377  51.416  1.00  0.00     0.096 A 
ENDROOT
BRANCH  10  12
HETATM   12  N4  UNL     1      25.855   2.991  52.273  1.00  0.00    -0.354 N 
HETATM   13  H11 UNL     1      26.069   3.928  52.707  1.00  0.00     0.166 HD
BRANCH  12  14
HETATM   14  C13 UNL     1      26.737   1.912  52.583  1.00  0.00     0.034 A 
HETATM   15  C14 UNL     1      27.964   2.154  53.178  1.00  0.00     0.032 A 
HETATM   16  C15 UNL     1      28.848   1.131  53.501  1.00  0.00     0.046 A 
HETATM   17  C16 UNL     1      28.486  -0.160  53.219  1.00  0.00     0.138 A 
HETATM   18  F1  UNL     1      29.333  -1.194  53.524  1.00  0.00    -0.204 F 
HETATM   19  C17 UNL     1      27.275  -0.464  52.628  1.00  0.00     0.074 A 
HETATM   20 CL1  UNL     1      26.761  -2.102  52.246  1.00  0.00    -0.081 Cl
HETATM   21  C18 UNL     1      26.409   0.591  52.316  1.00  0.00     0.056 A 
ENDBRANCH  12  14
ENDBRANCH  10  12
BRANCH   1  22
HETATM   22  C4  UNL     1      20.871   0.726  53.788  1.00  0.00     0.156 C 
BRANCH  22  23
HETATM   23  N1  UNL     1      21.237  -0.650  54.158  1.00  0.00    -0.391 N 
HETATM   24  C3  UNL     1      22.511  -1.076  54.755  1.00  0.00     0.149 C 
BRANCH  23  25
HETATM   25  C2  UNL     1      20.215  -1.601  53.881  1.00  0.00     0.075 C 
HETATM   26  C1  UNL     1      19.249  -0.839  53.385  1.00  0.00     0.029 C 
ENDBRANCH  23  25
ENDBRANCH  22  23
ENDBRANCH   1  22
TORSDOF 5
ENDMDL
MODEL 5
REMARK VINA RESULT:      -7.7      3.352      5.687
REMARK  5 active torsions:
REMARK  status: ('A' for Active; 'I' for Inactive)
REMARK    1  A    between atoms: C2_2  and  N1_3 
REMARK    2  A    between atoms: N1_3  and  C4_5 
REMARK    3  A    between atoms: C4_5  and  C5_6 
REMARK    4  A    between atoms: C12_15  and  N4_16 
REMARK    5  A    between atoms: N4_16  and  C13_17 
ROOT
HETATM    1  C5  UNL     1      19.686   0.106  51.949  1.00  0.00    -0.056 A 
HETATM    2  C6  UNL     1      20.957   0.393  51.721  1.00  0.00     0.020 A 
HETATM    3  C7  UNL     1      21.691  -0.152  52.856  1.00  0.00     0.017 A 
HETATM    4  C8  UNL     1      20.869  -0.771  53.774  1.00  0.00     0.050 A 
HETATM    5  N2  UNL     1      21.410  -1.322  54.875  1.00  0.00    -0.263 NA
HETATM    6  C9  UNL     1      22.747  -1.288  55.109  1.00  0.00     0.142 A 
HETATM    7  C10 UNL     1      23.586  -0.669  54.195  1.00  0.00     0.089 A 
HETATM    8  C11 UNL     1      24.986  -0.671  54.510  1.00  0.00     0.103 C 
HETATM    9  N3  UNL     1      26.108  -0.678  54.775  1.00  0.00    -0.191 NA
HETATM   10  C12 UNL     1      23.054  -0.085  53.041  1.00  0.00     0.067 A 
HETATM   11  C19 UNL     1      19.490  -0.637  53.224  1.00  0.00     0.096 A 
ENDROOT
BRANCH  10  12
HETATM   12  N4  UNL     1      24.041   0.505  52.230  1.00  0.00    -0.354 N 
HETATM   13  H11 UNL     1      24.847  -0.007  51.784  1.00  0.00     0.166 HD
BRANCH  12  14
HETATM   14  C13 UNL     1      23.947   1.909  51.990  1.00  0.00     0.034 A 
HETATM   15  C14 UNL     1      23.904   2.802  53.046  1.00  0.00     0.032 A 
HETATM   16  C15 UNL     1      23.818   4.177  52.853  1.00  0.00     0.046 A 
HETATM   17  C16 UNL     1      23.776   4.657  51.571  1.00  0.00     0.138 A 
HETATM   18  F1  UNL     1      23.692   6.006  51.344  1.00  0.00    -0.204 F 
HETATM   19  C17 UNL     1      23.817   3.814  50.477  1.00  0.00     0.074 A 
HETATM   20 CL1  UNL     1      23.767   4.376  48.812  1.00  0.00    -0.081 Cl
HETATM   21  C18 UNL     1      23.903   2.436  50.707  1.00  0.00     0.056 A 
ENDBRANCH  12  14
ENDBRANCH  10  12
BRANCH   1  22
HETATM   22  C4  UNL     1      18.463   0.392  51.166  1.00  0.00     0.156 C 
BRANCH  22  23
HETATM   23  N1  UNL     1      18.484   1.771  50.653  1.00  0.00    -0.391 N 
HETATM   24  C3  UNL     1      18.805   2.177  49.276  1.00  0.00     0.149 C 
BRANCH  23  25
HETATM   25  C2  UNL     1      18.156   2.746  51.635  1.00  0.00     0.075 C 
HETATM   26  C1  UNL     1      19.050   3.697  51.396  1.00  0.00     0.029 C 
ENDBRANCH  23  25
ENDBRANCH  22  23
ENDBRANCH   1  22
TORSDOF 5
ENDMDL
MODEL 6
REMARK VINA RESULT:      -7.7      1.446      2.037
REMARK  5 active torsions:
REMARK  status: ('A' for Active; 'I' for Inactive)
REMARK    1  A    between atoms: C2_2  and  N1_3 
REMARK    2  A    between atoms: N1_3  and  C4_5 
REMARK    3  A    between atoms: C4_5  and  C5_6 
REMARK    4  A    between atoms: C12_15  and  N4_16 
REMARK    5  A    between atoms: N4_16  and  C13_17 
ROOT
HETATM    1  C5  UNL     1      25.113   4.107  49.805  1.00  0.00    -0.056 A 
HETATM    2  C6  UNL     1      25.261   3.538  50.991  1.00  0.00     0.020 A 
HETATM    3  C7  UNL     1      24.160   2.591  51.110  1.00  0.00     0.017 A 
HETATM    4  C8  UNL     1      23.343   2.581  49.999  1.00  0.00     0.050 A 
HETATM    5  N2  UNL     1      22.284   1.753  49.969  1.00  0.00    -0.263 NA
HETATM    6  C9  UNL     1      21.996   0.922  51.003  1.00  0.00     0.142 A 
HETATM    7  C10 UNL     1      22.808   0.920  52.127  1.00  0.00     0.089 A 
HETATM    8  C11 UNL     1      22.442   0.016  53.179  1.00  0.00     0.103 C 
HETATM    9  N3  UNL     1      22.136  -0.714  54.017  1.00  0.00    -0.191 NA
HETATM   10  C12 UNL     1      23.917   1.770  52.189  1.00  0.00     0.067 A 
HETATM   11  C19 UNL     1      23.929   3.586  49.068  1.00  0.00     0.096 A 
ENDROOT
BRANCH  10  12
HETATM   12  N4  UNL     1      24.624   1.647  53.399  1.00  0.00    -0.354 N 
HETATM   13  H11 UNL     1      24.277   1.966  54.342  1.00  0.00     0.166 HD
BRANCH  12  14
HETATM   14  C13 UNL     1      25.915   1.040  53.351  1.00  0.00     0.034 A 
HETATM   15  C14 UNL     1      27.052   1.779  53.630  1.00  0.00     0.032 A 
HETATM   16  C15 UNL     1      28.327   1.223  53.600  1.00  0.00     0.046 A 
HETATM   17  C16 UNL     1      28.454  -0.103  53.282  1.00  0.00     0.138 A 
HETATM   18  F1  UNL     1      29.695  -0.685  53.242  1.00  0.00    -0.204 F 
HETATM   19  C17 UNL     1      27.357  -0.892  52.994  1.00  0.00     0.074 A 
HETATM   20 CL1  UNL     1      27.465  -2.598  52.581  1.00  0.00    -0.081 Cl
HETATM   21  C18 UNL     1      26.089  -0.300  53.034  1.00  0.00     0.056 A 
ENDBRANCH  12  14
ENDBRANCH  10  12
BRANCH   1  22
HETATM   22  C4  UNL     1      25.910   5.144  49.112  1.00  0.00     0.156 C 
BRANCH  22  23
HETATM   23  N1  UNL     1      25.237   6.450  49.181  1.00  0.00    -0.391 N 
HETATM   24  C3  UNL     1      24.463   7.083  48.101  1.00  0.00     0.149 C 
BRANCH  23  25
HETATM   25  C2  UNL     1      25.394   7.103  50.435  1.00  0.00     0.075 C 
HETATM   26  C1  UNL     1      24.162   7.528  50.685  1.00  0.00     0.029 C 
ENDBRANCH  23  25
ENDBRANCH  22  23
ENDBRANCH   1  22
TORSDOF 5
ENDMDL
MODEL 7
REMARK VINA RESULT:      -7.3      3.645      6.724
REMARK  5 active torsions:
REMARK  status: ('A' for Active; 'I' for Inactive)
REMARK    1  A    between atoms: C2_2  and  N1_3 
REMARK    2  A    between atoms: N1_3  and  C4_5 
REMARK    3  A    between atoms: C4_5  and  C5_6 
REMARK    4  A    between atoms: C12_15  and  N4_16 
REMARK    5  A    between atoms: N4_16  and  C13_17 
ROOT
HETATM    1  C5  UNL     1      25.832   0.616  52.275  1.00  0.00    -0.056 A 
HETATM    2  C6  UNL     1      24.677   1.198  52.557  1.00  0.00     0.020 A 
HETATM    3  C7  UNL     1      24.693   2.466  51.839  1.00  0.00     0.017 A 
HETATM    4  C8  UNL     1      25.854   2.657  51.120  1.00  0.00     0.050 A 
HETATM    5  N2  UNL     1      26.007   3.786  50.406  1.00  0.00    -0.263 NA
HETATM    6  C9  UNL     1      25.048   4.746  50.371  1.00  0.00     0.142 A 
HETATM    7  C10 UNL     1      23.875   4.569  51.089  1.00  0.00     0.089 A 
HETATM    8  C11 UNL     1      22.908   5.625  51.004  1.00  0.00     0.103 C 
HETATM    9  N3  UNL     1      22.140   6.482  50.930  1.00  0.00    -0.191 NA
HETATM   10  C12 UNL     1      23.686   3.406  51.842  1.00  0.00     0.067 A 
HETATM   11  C19 UNL     1      26.677   1.439  51.367  1.00  0.00     0.096 A 
ENDROOT
BRANCH  10  12
HETATM   12  N4  UNL     1      22.449   3.392  52.512  1.00  0.00    -0.354 N 
HETATM   13  H11 UNL     1      22.183   4.027  53.311  1.00  0.00     0.166 HD
BRANCH  12  14
HETATM   14  C13 UNL     1      21.472   2.446  52.078  1.00  0.00     0.034 A 
HETATM   15  C14 UNL     1      20.910   2.543  50.817  1.00  0.00     0.032 A 
HETATM   16  C15 UNL     1      19.960   1.638  50.355  1.00  0.00     0.046 A 
HETATM   17  C16 UNL     1      19.573   0.617  51.182  1.00  0.00     0.138 A 
HETATM   18  F1  UNL     1      18.639  -0.294  50.759  1.00  0.00    -0.204 F 
HETATM   19  C17 UNL     1      20.099   0.468  52.450  1.00  0.00     0.074 A 
HETATM   20 CL1  UNL     1      19.637  -0.823  53.551  1.00  0.00    -0.081 Cl
HETATM   21  C18 UNL     1      21.053   1.397  52.883  1.00  0.00     0.056 A 
ENDBRANCH  12  14
ENDBRANCH  10  12
BRANCH   1  22
HETATM   22  C4  UNL     1      26.403  -0.681  52.701  1.00  0.00     0.156 C 
BRANCH  22  23
HETATM   23  N1  UNL     1      27.519  -0.477  53.636  1.00  0.00    -0.391 N 
HETATM   24  C3  UNL     1      27.493   0.357  54.848  1.00  0.00     0.149 C 
BRANCH  23  25
HETATM   25  C2  UNL     1      28.701  -1.181  53.271  1.00  0.00     0.075 C 
HETATM   26  C1  UNL     1      29.653  -0.310  53.581  1.00  0.00     0.029 C 
ENDBRANCH  23  25
ENDBRANCH  22  23
ENDBRANCH   1  22
TORSDOF 5
ENDMDL
MODEL 8
REMARK VINA RESULT:      -7.3      6.113      9.710
REMARK  5 active torsions:
REMARK  status: ('A' for Active; 'I' for Inactive)
REMARK    1  A    between atoms: C2_2  and  N1_3 
REMARK    2  A    between atoms: N1_3  and  C4_5 
REMARK    3  A    between atoms: C4_5  and  C5_6 
REMARK    4  A    between atoms: C12_15  and  N4_16 
REMARK    5  A    between atoms: N4_16  and  C13_17 
ROOT
HETATM    1  C5  UNL     1      31.798   5.128  47.970  1.00  0.00    -0.056 A 
HETATM    2  C6  UNL     1      30.534   5.466  47.772  1.00  0.00     0.020 A 
HETATM    3  C7  UNL     1      30.388   6.793  48.358  1.00  0.00     0.017 A 
HETATM    4  C8  UNL     1      31.561   7.263  48.911  1.00  0.00     0.050 A 
HETATM    5  N2  UNL     1      31.575   8.477  49.488  1.00  0.00    -0.263 NA
HETATM    6  C9  UNL     1      30.465   9.257  49.541  1.00  0.00     0.142 A 
HETATM    7  C10 UNL     1      29.279   8.799  48.990  1.00  0.00     0.089 A 
HETATM    8  C11 UNL     1      28.148   9.677  49.084  1.00  0.00     0.103 C 
HETATM    9  N3  UNL     1      27.247  10.391  49.168  1.00  0.00    -0.191 NA
HETATM   10  C12 UNL     1      29.231   7.539  48.384  1.00  0.00     0.067 A 
HETATM   11  C19 UNL     1      32.565   6.185  48.684  1.00  0.00     0.096 A 
ENDROOT
BRANCH  10  12
HETATM   12  N4  UNL     1      27.952   7.228  47.886  1.00  0.00    -0.354 N 
HETATM   13  H11 UNL     1      27.542   7.599  46.988  1.00  0.00     0.166 HD
BRANCH  12  14
HETATM   14  C13 UNL     1      27.142   6.339  48.655  1.00  0.00     0.034 A 
HETATM   15  C14 UNL     1      27.390   4.978  48.648  1.00  0.00     0.032 A 
HETATM   16  C15 UNL     1      26.627   4.080  49.389  1.00  0.00     0.046 A 
HETATM   17  C16 UNL     1      25.597   4.568  50.148  1.00  0.00     0.138 A 
HETATM   18  F1  UNL     1      24.825   3.712  50.891  1.00  0.00    -0.204 F 
HETATM   19  C17 UNL     1      25.303   5.917  50.196  1.00  0.00     0.074 A 
HETATM   20 CL1  UNL     1      23.993   6.595  51.154  1.00  0.00    -0.081 Cl
HETATM   21  C18 UNL     1      26.090   6.792  49.438  1.00  0.00     0.056 A 
ENDBRANCH  12  14
ENDBRANCH  10  12
BRANCH   1  22
HETATM   22  C4  UNL     1      32.552   3.907  47.606  1.00  0.00     0.156 C 
BRANCH  22  23
HETATM   23  N1  UNL     1      33.409   4.154  46.437  1.00  0.00    -0.391 N 
HETATM   24  C3  UNL     1      33.002   4.818  45.189  1.00  0.00     0.149 C 
BRANCH  23  25
HETATM   25  C2  UNL     1      34.740   3.679  46.600  1.00  0.00     0.075 C 
HETATM   26  C1  UNL     1      34.729   3.239  47.852  1.00  0.00     0.029 C 
ENDBRANCH  23  25
ENDBRANCH  22  23
ENDBRANCH   1  22
TORSDOF 5
ENDMDL
MODEL 9
REMARK VINA RESULT:      -7.2      3.076      6.221
REMARK  5 active torsions:
REMARK  status: ('A' for Active; 'I' for Inactive)
REMARK    1  A    between atoms: C2_2  and  N1_3 
REMARK    2  A    between atoms: N1_3  and  C4_5 
REMARK    3  A    between atoms: C4_5  and  C5_6 
REMARK    4  A    between atoms: C12_15  and  N4_16 
REMARK    5  A    between atoms: N4_16  and  C13_17 
ROOT
HETATM    1  C5  UNL     1      25.002   0.809  53.199  1.00  0.00    -0.056 A 
HETATM    2  C6  UNL     1      24.837   1.540  52.108  1.00  0.00     0.020 A 
HETATM    3  C7  UNL     1      23.487   1.247  51.642  1.00  0.00     0.017 A 
HETATM    4  C8  UNL     1      22.830   0.341  52.447  1.00  0.00     0.050 A 
HETATM    5  N2  UNL     1      21.574  -0.024  52.138  1.00  0.00    -0.263 NA
HETATM    6  C9  UNL     1      20.929   0.479  51.053  1.00  0.00     0.142 A 
HETATM    7  C10 UNL     1      21.577   1.391  50.234  1.00  0.00     0.089 A 
HETATM    8  C11 UNL     1      20.834   1.878  49.107  1.00  0.00     0.103 C 
HETATM    9  N3  UNL     1      20.227   2.259  48.204  1.00  0.00    -0.191 NA
HETATM   10  C12 UNL     1      22.884   1.789  50.528  1.00  0.00     0.067 A 
HETATM   11  C19 UNL     1      23.797  -0.002  53.528  1.00  0.00     0.096 A 
ENDROOT
BRANCH  10  12
HETATM   12  N4  UNL     1      23.391   2.710  49.593  1.00  0.00    -0.354 N 
HETATM   13  H11 UNL     1      23.666   2.481  48.601  1.00  0.00     0.166 HD
BRANCH  12  14
HETATM   14  C13 UNL     1      23.547   4.064  50.017  1.00  0.00     0.034 A 
HETATM   15  C14 UNL     1      22.576   4.676  50.790  1.00  0.00     0.032 A 
HETATM   16  C15 UNL     1      22.694   5.992  51.228  1.00  0.00     0.046 A 
HETATM   17  C16 UNL     1      23.813   6.700  50.878  1.00  0.00     0.138 A 
HETATM   18  F1  UNL     1      23.962   7.998  51.292  1.00  0.00    -0.204 F 
HETATM   19  C17 UNL     1      24.816   6.142  50.110  1.00  0.00     0.074 A 
HETATM   20 CL1  UNL     1      26.273   7.006  49.633  1.00  0.00    -0.081 Cl
HETATM   21  C18 UNL     1      24.665   4.816  49.686  1.00  0.00     0.056 A 
ENDBRANCH  12  14
ENDBRANCH  10  12
BRANCH   1  22
HETATM   22  C4  UNL     1      26.153   0.672  54.119  1.00  0.00     0.156 C 
BRANCH  22  23
HETATM   23  N1  UNL     1      27.244  -0.079  53.478  1.00  0.00    -0.391 N 
HETATM   24  C3  UNL     1      27.122  -1.384  52.811  1.00  0.00     0.149 C 
BRANCH  23  25
HETATM   25  C2  UNL     1      28.504   0.579  53.553  1.00  0.00     0.075 C 
HETATM   26  C1  UNL     1      29.341  -0.437  53.718  1.00  0.00     0.029 C 
ENDBRANCH  23  25
ENDBRANCH  22  23
ENDBRANCH   1  22
TORSDOF 5
ENDMDL
