MODEL 1
REMARK VINA RESULT:      -7.8      0.000      0.000
REMARK  3 active torsions:
REMARK  status: ('A' for Active; 'I' for Inactive)
REMARK    1  A    between atoms: C2_2  and  N1_3 
REMARK    2  A    between atoms: N1_3  and  C3_4 
REMARK    3  A    between atoms: C10_13  and  N4_14 
ROOT
HETATM    1  C3  UNL     1      27.099   0.032  54.125  1.00  0.00     0.138 A 
HETATM    2  N2  UNL     1      26.397  -0.295  55.218  1.00  0.00    -0.241 NA
HETATM    3  C4  UNL     1      25.065  -0.595  55.122  1.00  0.00     0.132 A 
HETATM    4  C5  UNL     1      24.641  -0.508  53.827  1.00  0.00     0.011 A 
HETATM    5  C6  UNL     1      25.096  -0.225  52.572  1.00  0.00     0.032 A 
HETATM    6  C7  UNL     1      26.361   0.022  52.990  1.00  0.00     0.028 A 
HETATM    7  C8  UNL     1      26.861   0.546  51.725  1.00  0.00     0.126 C 
HETATM    8  N3  UNL     1      26.425   1.654  51.328  1.00  0.00    -0.293 NA
HETATM    9  C9  UNL     1      25.551   2.640  51.725  1.00  0.00     0.229 C 
HETATM   10  C10 UNL     1      24.313   2.333  52.491  1.00  0.00     0.150 C 
HETATM   11  N5  UNL     1      23.371   1.816  53.081  1.00  0.00    -0.152 NA
HETATM   12  N6  UNL     1      22.843   0.645  53.434  1.00  0.00    -0.243 N 
HETATM   13  C11 UNL     1      21.499   0.633  53.422  1.00  0.00     0.119 A 
HETATM   14  C12 UNL     1      21.024  -0.625  53.825  1.00  0.00     0.022 A 
HETATM   15  C13 UNL     1      22.140  -1.434  54.104  1.00  0.00     0.034 A 
HETATM   16  C14 UNL     1      23.191  -0.623  53.850  1.00  0.00     0.069 A 
ENDROOT
BRANCH   1  17
HETATM   17  N1  UNL     1      28.454   0.375  53.923  1.00  0.00    -0.354 N 
HETATM   18  H4  UNL     1      28.809   1.287  53.600  1.00  0.00     0.166 HD
BRANCH  17  19
HETATM   19  C2  UNL     1      29.483  -0.551  54.160  1.00  0.00     0.063 C 
HETATM   20  C1  UNL     1      29.475  -1.622  53.368  1.00  0.00     0.049 C 
ENDBRANCH  17  19
ENDBRANCH   1  17
BRANCH  10  21
HETATM   21  N4  UNL     1      23.722   3.637  52.778  1.00  0.00    -0.308 N 
HETATM   22 BR1  UNL     1      22.305   4.775  52.237  1.00  0.00     0.048 Br
HETATM   23  H10 UNL     1      23.935   4.445  53.463  1.00  0.00     0.175 HD
ENDBRANCH  10  21
TORSDOF 3
ENDMDL
MODEL 2
REMARK VINA RESULT:      -7.1      1.876      3.628
REMARK  3 active torsions:
REMARK  status: ('A' for Active; 'I' for Inactive)
REMARK    1  A    between atoms: C2_2  and  N1_3 
REMARK    2  A    between atoms: N1_3  and  C3_4 
REMARK    3  A    between atoms: C10_13  and  N4_14 
ROOT
HETATM    1  C3  UNL     1      27.029  -0.517  52.938  1.00  0.00     0.138 A 
HETATM    2  N2  UNL     1      26.884   0.007  51.713  1.00  0.00    -0.241 NA
HETATM    3  C4  UNL     1      26.055   1.077  51.511  1.00  0.00     0.132 A 
HETATM    4  C5  UNL     1      25.471   1.465  52.683  1.00  0.00     0.011 A 
HETATM    5  C6  UNL     1      25.432   1.152  54.011  1.00  0.00     0.032 A 
HETATM    6  C7  UNL     1      26.296   0.116  53.883  1.00  0.00     0.028 A 
HETATM    7  C8  UNL     1      26.135  -0.408  55.233  1.00  0.00     0.126 C 
HETATM    8  N3  UNL     1      25.038  -0.934  55.539  1.00  0.00    -0.293 NA
HETATM    9  C9  UNL     1      23.815  -1.213  54.973  1.00  0.00     0.229 C 
HETATM   10  C10 UNL     1      23.200  -0.323  53.951  1.00  0.00     0.150 C 
HETATM   11  N5  UNL     1      22.913   0.571  53.162  1.00  0.00    -0.152 NA
HETATM   12  N6  UNL     1      23.318   1.748  52.687  1.00  0.00    -0.243 N 
HETATM   13  C11 UNL     1      22.309   2.591  52.404  1.00  0.00     0.119 A 
HETATM   14  C12 UNL     1      22.817   3.795  51.891  1.00  0.00     0.022 A 
HETATM   15  C13 UNL     1      24.219   3.686  51.853  1.00  0.00     0.034 A 
HETATM   16  C14 UNL     1      24.454   2.448  52.341  1.00  0.00     0.069 A 
ENDROOT
BRANCH   1  17
HETATM   17  N1  UNL     1      27.800  -1.590  53.436  1.00  0.00    -0.354 N 
HETATM   18  H4  UNL     1      27.451  -2.382  53.995  1.00  0.00     0.166 HD
BRANCH  17  19
HETATM   19  C2  UNL     1      29.182  -1.669  53.195  1.00  0.00     0.063 C 
HETATM   20  C1  UNL     1      29.893  -0.634  53.638  1.00  0.00     0.049 C 
ENDBRANCH  17  19
ENDBRANCH   1  17
BRANCH  10  21
HETATM   21  N4  UNL     1      21.970  -1.006  53.558  1.00  0.00    -0.308 N 
HETATM   22 BR1  UNL     1      20.087  -0.783  53.551  1.00  0.00     0.048 Br
HETATM   23  H10 UNL     1      21.729  -1.954  53.100  1.00  0.00     0.175 HD
ENDBRANCH  10  21
TORSDOF 3
ENDMDL
MODEL 3
REMARK VINA RESULT:      -6.9      2.795      4.621
REMARK  3 active torsions:
REMARK  status: ('A' for Active; 'I' for Inactive)
REMARK    1  A    between atoms: C2_2  and  N1_3 
REMARK    2  A    between atoms: N1_3  and  C3_4 
REMARK    3  A    between atoms: C10_13  and  N4_14 
ROOT
HETATM    1  C3  UNL     1      23.399   2.645  50.680  1.00  0.00     0.138 A 
HETATM    2  N2  UNL     1      22.572   1.765  50.102  1.00  0.00    -0.241 NA
HETATM    3  C4  UNL     1      21.804   0.929  50.867  1.00  0.00     0.132 A 
HETATM    4  C5  UNL     1      22.024   1.153  52.197  1.00  0.00     0.011 A 
HETATM    5  C6  UNL     1      22.754   1.938  53.040  1.00  0.00     0.032 A 
HETATM    6  C7  UNL     1      23.371   2.601  52.033  1.00  0.00     0.028 A 
HETATM    7  C8  UNL     1      24.335   3.314  52.862  1.00  0.00     0.126 C 
HETATM    8  N3  UNL     1      25.242   2.651  53.420  1.00  0.00    -0.293 NA
HETATM    9  C9  UNL     1      25.679   1.350  53.523  1.00  0.00     0.229 C 
HETATM   10  C10 UNL     1      24.736   0.199  53.501  1.00  0.00     0.150 C 
HETATM   11  N5  UNL     1      23.765  -0.550  53.478  1.00  0.00    -0.152 NA
HETATM   12  N6  UNL     1      22.434  -0.573  53.450  1.00  0.00    -0.243 N 
HETATM   13  C11 UNL     1      21.897  -1.589  54.149  1.00  0.00     0.119 A 
HETATM   14  C12 UNL     1      20.497  -1.556  54.051  1.00  0.00     0.022 A 
HETATM   15  C13 UNL     1      20.151  -0.457  53.243  1.00  0.00     0.034 A 
HETATM   16  C14 UNL     1      21.346   0.087  52.919  1.00  0.00     0.069 A 
ENDROOT
BRANCH   1  17
HETATM   17  N1  UNL     1      24.285   3.614  50.159  1.00  0.00    -0.354 N 
HETATM   18  H4  UNL     1      24.163   4.636  50.200  1.00  0.00     0.166 HD
BRANCH  17  19
HETATM   19  C2  UNL     1      25.472   3.239  49.506  1.00  0.00     0.063 C 
HETATM   20  C1  UNL     1      26.429   4.166  49.495  1.00  0.00     0.049 C 
ENDBRANCH  17  19
ENDBRANCH   1  17
BRANCH  10  21
HETATM   21  N4  UNL     1      25.593  -0.982  53.552  1.00  0.00    -0.308 N 
HETATM   22 BR1  UNL     1      27.030  -1.813  52.636  1.00  0.00     0.048 Br
HETATM   23  H10 UNL     1      25.680  -1.842  54.200  1.00  0.00     0.175 HD
ENDBRANCH  10  21
TORSDOF 3
ENDMDL
MODEL 4
REMARK VINA RESULT:      -6.6      3.149      5.354
REMARK  3 active torsions:
REMARK  status: ('A' for Active; 'I' for Inactive)
REMARK    1  A    between atoms: C2_2  and  N1_3 
REMARK    2  A    between atoms: N1_3  and  C3_4 
REMARK    3  A    between atoms: C10_13  and  N4_14 
ROOT
HETATM    1  C3  UNL     1      22.166   0.713  52.605  1.00  0.00     0.138 A 
HETATM    2  N2  UNL     1      21.180   0.493  51.725  1.00  0.00    -0.241 NA
HETATM    3  C4  UNL     1      21.275   0.966  50.444  1.00  0.00     0.132 A 
HETATM    4  C5  UNL     1      22.454   1.632  50.261  1.00  0.00     0.011 A 
HETATM    5  C6  UNL     1      23.591   1.990  50.924  1.00  0.00     0.032 A 
HETATM    6  C7  UNL     1      23.201   1.415  52.087  1.00  0.00     0.028 A 
HETATM    7  C8  UNL     1      24.278   1.948  52.912  1.00  0.00     0.126 C 
HETATM    8  N3  UNL     1      24.292   3.180  53.146  1.00  0.00    -0.293 NA
HETATM    9  C9  UNL     1      23.560   4.310  52.861  1.00  0.00     0.229 C 
HETATM   10  C10 UNL     1      22.845   4.479  51.567  1.00  0.00     0.150 C 
HETATM   11  N5  UNL     1      22.379   4.377  50.437  1.00  0.00    -0.152 NA
HETATM   12  N6  UNL     1      22.363   3.603  49.353  1.00  0.00    -0.243 N 
HETATM   13  C11 UNL     1      22.291   4.291  48.200  1.00  0.00     0.119 A 
HETATM   14  C12 UNL     1      22.256   3.405  47.112  1.00  0.00     0.022 A 
HETATM   15  C13 UNL     1      22.308   2.095  47.624  1.00  0.00     0.034 A 
HETATM   16  C14 UNL     1      22.372   2.281  48.961  1.00  0.00     0.069 A 
ENDROOT
BRANCH   1  17
HETATM   17  N1  UNL     1      22.342   0.349  53.958  1.00  0.00    -0.354 N 
HETATM   18  H4  UNL     1      23.136   0.611  54.560  1.00  0.00     0.166 HD
BRANCH  17  19
HETATM   19  C2  UNL     1      21.396  -0.444  54.629  1.00  0.00     0.063 C 
HETATM   20  C1  UNL     1      21.595  -1.758  54.544  1.00  0.00     0.049 C 
ENDBRANCH  17  19
ENDBRANCH   1  17
BRANCH  10  21
HETATM   21  N4  UNL     1      22.140   5.751  51.697  1.00  0.00    -0.308 N 
HETATM   22 BR1  UNL     1      21.582   7.249  50.677  1.00  0.00     0.048 Br
HETATM   23  H10 UNL     1      21.667   6.290  52.505  1.00  0.00     0.175 HD
ENDBRANCH  10  21
TORSDOF 3
ENDMDL
MODEL 5
REMARK VINA RESULT:      -6.6      2.868      5.775
REMARK  3 active torsions:
REMARK  status: ('A' for Active; 'I' for Inactive)
REMARK    1  A    between atoms: C2_2  and  N1_3 
REMARK    2  A    between atoms: N1_3  and  C3_4 
REMARK    3  A    between atoms: C10_13  and  N4_14 
ROOT
HETATM    1  C3  UNL     1      22.907   4.266  51.455  1.00  0.00     0.138 A 
HETATM    2  N2  UNL     1      23.380   4.520  52.683  1.00  0.00    -0.241 NA
HETATM    3  C4  UNL     1      24.244   3.647  53.287  1.00  0.00     0.132 A 
HETATM    4  C5  UNL     1      24.504   2.582  52.472  1.00  0.00     0.011 A 
HETATM    5  C6  UNL     1      24.198   2.081  51.241  1.00  0.00     0.032 A 
HETATM    6  C7  UNL     1      23.373   3.110  50.929  1.00  0.00     0.028 A 
HETATM    7  C8  UNL     1      22.834   2.532  49.704  1.00  0.00     0.126 C 
HETATM    8  N3  UNL     1      22.085   1.530  49.800  1.00  0.00    -0.293 NA
HETATM    9  C9  UNL     1      21.545   0.713  50.767  1.00  0.00     0.229 C 
HETATM   10  C10 UNL     1      22.274   0.393  52.024  1.00  0.00     0.150 C 
HETATM   11  N5  UNL     1      23.080   0.274  52.940  1.00  0.00    -0.152 NA
HETATM   12  N6  UNL     1      24.313   0.594  53.327  1.00  0.00    -0.243 N 
HETATM   13  C11 UNL     1      24.917  -0.363  54.054  1.00  0.00     0.119 A 
HETATM   14  C12 UNL     1      26.199   0.060  54.439  1.00  0.00     0.022 A 
HETATM   15  C13 UNL     1      26.396   1.353  53.922  1.00  0.00     0.034 A 
HETATM   16  C14 UNL     1      25.241   1.613  53.270  1.00  0.00     0.069 A 
ENDROOT
BRANCH   1  17
HETATM   17  N1  UNL     1      22.030   4.970  50.602  1.00  0.00    -0.354 N 
HETATM   18  H4  UNL     1      21.119   4.636  50.256  1.00  0.00     0.166 HD
BRANCH  17  19
HETATM   19  C2  UNL     1      22.346   6.256  50.131  1.00  0.00     0.063 C 
HETATM   20  C1  UNL     1      21.714   7.255  50.745  1.00  0.00     0.049 C 
ENDBRANCH  17  19
ENDBRANCH   1  17
BRANCH  10  21
HETATM   21  N4  UNL     1      21.339  -0.419  52.797  1.00  0.00    -0.308 N 
HETATM   22 BR1  UNL     1      21.246  -1.495  54.355  1.00  0.00     0.048 Br
HETATM   23  H10 UNL     1      20.296  -0.687  52.709  1.00  0.00     0.175 HD
ENDBRANCH  10  21
TORSDOF 3
ENDMDL
MODEL 6
REMARK VINA RESULT:      -6.5      2.535      5.634
REMARK  3 active torsions:
REMARK  status: ('A' for Active; 'I' for Inactive)
REMARK    1  A    between atoms: C2_2  and  N1_3 
REMARK    2  A    between atoms: N1_3  and  C3_4 
REMARK    3  A    between atoms: C10_13  and  N4_14 
ROOT
HETATM    1  C3  UNL     1      22.177   1.825  52.001  1.00  0.00     0.138 A 
HETATM    2  N2  UNL     1      22.727   0.611  52.134  1.00  0.00    -0.241 NA
HETATM    3  C4  UNL     1      23.962   0.469  52.708  1.00  0.00     0.132 A 
HETATM    4  C5  UNL     1      24.464   1.683  53.082  1.00  0.00     0.011 A 
HETATM    5  C6  UNL     1      24.153   3.011  53.085  1.00  0.00     0.032 A 
HETATM    6  C7  UNL     1      22.954   2.823  52.482  1.00  0.00     0.028 A 
HETATM    7  C8  UNL     1      22.654   4.231  52.254  1.00  0.00     0.126 C 
HETATM    8  N3  UNL     1      23.346   4.857  51.416  1.00  0.00    -0.293 NA
HETATM    9  C9  UNL     1      24.395   4.642  50.552  1.00  0.00     0.229 C 
HETATM   10  C10 UNL     1      25.490   3.685  50.867  1.00  0.00     0.150 C 
HETATM   11  N5  UNL     1      26.260   2.873  51.370  1.00  0.00    -0.152 NA
HETATM   12  N6  UNL     1      26.493   2.161  52.471  1.00  0.00    -0.243 N 
HETATM   13  C11 UNL     1      27.799   2.015  52.753  1.00  0.00     0.119 A 
HETATM   14  C12 UNL     1      27.959   1.237  53.911  1.00  0.00     0.022 A 
HETATM   15  C13 UNL     1      26.677   0.882  54.367  1.00  0.00     0.034 A 
HETATM   16  C14 UNL     1      25.849   1.463  53.471  1.00  0.00     0.069 A 
ENDROOT
BRANCH   1  17
HETATM   17  N1  UNL     1      20.945   2.266  51.468  1.00  0.00    -0.354 N 
HETATM   18  H4  UNL     1      20.822   2.937  50.696  1.00  0.00     0.166 HD
BRANCH  17  19
HETATM   19  C2  UNL     1      19.722   1.798  51.976  1.00  0.00     0.063 C 
HETATM   20  C1  UNL     1      19.240   0.710  51.377  1.00  0.00     0.049 C 
ENDBRANCH  17  19
ENDBRANCH   1  17
BRANCH  10  21
HETATM   21  N4  UNL     1      26.341   3.692  49.680  1.00  0.00    -0.308 N 
HETATM   22 BR1  UNL     1      27.543   4.803  48.723  1.00  0.00     0.048 Br
HETATM   23  H10 UNL     1      26.572   2.987  48.894  1.00  0.00     0.175 HD
ENDBRANCH  10  21
TORSDOF 3
ENDMDL
MODEL 7
REMARK VINA RESULT:      -6.5      2.326      2.980
REMARK  3 active torsions:
REMARK  status: ('A' for Active; 'I' for Inactive)
REMARK    1  A    between atoms: C2_2  and  N1_3 
REMARK    2  A    between atoms: N1_3  and  C3_4 
REMARK    3  A    between atoms: C10_13  and  N4_14 
ROOT
HETATM    1  C3  UNL     1      26.301   2.243  52.559  1.00  0.00     0.138 A 
HETATM    2  N2  UNL     1      25.488   1.639  53.436  1.00  0.00    -0.241 NA
HETATM    3  C4  UNL     1      24.220   1.275  53.068  1.00  0.00     0.132 A 
HETATM    4  C5  UNL     1      23.979   1.611  51.767  1.00  0.00     0.011 A 
HETATM    5  C6  UNL     1      24.577   2.191  50.686  1.00  0.00     0.032 A 
HETATM    6  C7  UNL     1      25.738   2.428  51.343  1.00  0.00     0.028 A 
HETATM    7  C8  UNL     1      26.356   3.247  50.308  1.00  0.00     0.126 C 
HETATM    8  N3  UNL     1      25.871   4.381  50.080  1.00  0.00    -0.293 NA
HETATM    9  C9  UNL     1      24.854   5.196  50.524  1.00  0.00     0.229 C 
HETATM   10  C10 UNL     1      23.557   4.645  51.002  1.00  0.00     0.150 C 
HETATM   11  N5  UNL     1      22.598   3.949  51.316  1.00  0.00    -0.152 NA
HETATM   12  N6  UNL     1      22.147   2.695  51.334  1.00  0.00    -0.243 N 
HETATM   13  C11 UNL     1      20.826   2.593  51.104  1.00  0.00     0.119 A 
HETATM   14  C12 UNL     1      20.429   1.248  51.161  1.00  0.00     0.022 A 
HETATM   15  C13 UNL     1      21.571   0.477  51.445  1.00  0.00     0.034 A 
HETATM   16  C14 UNL     1      22.559   1.395  51.533  1.00  0.00     0.069 A 
ENDROOT
BRANCH   1  17
HETATM   17  N1  UNL     1      27.629   2.714  52.651  1.00  0.00    -0.354 N 
HETATM   18  H4  UNL     1      28.086   3.375  52.007  1.00  0.00     0.166 HD
BRANCH  17  19
HETATM   19  C2  UNL     1      28.481   2.296  53.688  1.00  0.00     0.063 C 
HETATM   20  C1  UNL     1      29.006   1.082  53.535  1.00  0.00     0.049 C 
ENDBRANCH  17  19
ENDBRANCH   1  17
BRANCH  10  21
HETATM   21  N4  UNL     1      22.802   5.812  51.450  1.00  0.00    -0.308 N 
HETATM   22 BR1  UNL     1      21.680   7.193  50.796  1.00  0.00     0.048 Br
HETATM   23  H10 UNL     1      22.632   6.302  52.398  1.00  0.00     0.175 HD
ENDBRANCH  10  21
TORSDOF 3
ENDMDL
MODEL 8
REMARK VINA RESULT:      -6.3      9.709     12.251
REMARK  3 active torsions:
REMARK  status: ('A' for Active; 'I' for Inactive)
REMARK    1  A    between atoms: C2_2  and  N1_3 
REMARK    2  A    between atoms: N1_3  and  C3_4 
REMARK    3  A    between atoms: C10_13  and  N4_14 
ROOT
HETATM    1  C3  UNL     1      33.769   7.149  45.906  1.00  0.00     0.138 A 
HETATM    2  N2  UNL     1      33.102   8.085  45.217  1.00  0.00    -0.241 NA
HETATM    3  C4  UNL     1      32.498   9.126  45.868  1.00  0.00     0.132 A 
HETATM    4  C5  UNL     1      32.693   9.032  47.217  1.00  0.00     0.011 A 
HETATM    5  C6  UNL     1      33.297   8.247  48.155  1.00  0.00     0.032 A 
HETATM    6  C7  UNL     1      33.765   7.362  47.242  1.00  0.00     0.028 A 
HETATM    7  C8  UNL     1      34.242   6.368  48.197  1.00  0.00     0.126 C 
HETATM    8  N3  UNL     1      33.393   5.731  48.864  1.00  0.00    -0.293 NA
HETATM    9  C9  UNL     1      32.027   5.642  49.013  1.00  0.00     0.229 C 
HETATM   10  C10 UNL     1      31.140   6.827  48.857  1.00  0.00     0.150 C 
HETATM   11  N5  UNL     1      30.650   7.940  48.702  1.00  0.00    -0.152 NA
HETATM   12  N6  UNL     1      30.950   9.221  48.499  1.00  0.00    -0.243 N 
HETATM   13  C11 UNL     1      30.113  10.076  49.113  1.00  0.00     0.119 A 
HETATM   14  C12 UNL     1      30.484  11.400  48.833  1.00  0.00     0.022 A 
HETATM   15  C13 UNL     1      31.614  11.360  47.995  1.00  0.00     0.034 A 
HETATM   16  C14 UNL     1      31.842  10.037  47.836  1.00  0.00     0.069 A 
ENDROOT
BRANCH   1  17
HETATM   17  N1  UNL     1      34.479   5.994  45.513  1.00  0.00    -0.354 N 
HETATM   18  H4  UNL     1      35.451   5.763  45.763  1.00  0.00     0.166 HD
BRANCH  17  19
HETATM   19  C2  UNL     1      33.882   5.011  44.705  1.00  0.00     0.063 C 
HETATM   20  C1  UNL     1      33.010   4.219  45.328  1.00  0.00     0.049 C 
ENDBRANCH  17  19
ENDBRANCH   1  17
BRANCH  10  21
HETATM   21  N4  UNL     1      29.787   6.299  49.011  1.00  0.00    -0.308 N 
HETATM   22 BR1  UNL     1      28.047   6.441  48.273  1.00  0.00     0.048 Br
HETATM   23  H10 UNL     1      29.309   5.585  49.666  1.00  0.00     0.175 HD
ENDBRANCH  10  21
TORSDOF 3
ENDMDL
MODEL 9
REMARK VINA RESULT:      -6.2      3.191      5.656
REMARK  3 active torsions:
REMARK  status: ('A' for Active; 'I' for Inactive)
REMARK    1  A    between atoms: C2_2  and  N1_3 
REMARK    2  A    between atoms: N1_3  and  C3_4 
REMARK    3  A    between atoms: C10_13  and  N4_14 
ROOT
HETATM    1  C3  UNL     1      20.680   2.578  50.228  1.00  0.00     0.138 A 
HETATM    2  N2  UNL     1      20.441   1.280  49.997  1.00  0.00    -0.241 NA
HETATM    3  C4  UNL     1      20.493   0.373  51.020  1.00  0.00     0.132 A 
HETATM    4  C5  UNL     1      20.800   0.990  52.199  1.00  0.00     0.011 A 
HETATM    5  C6  UNL     1      21.073   2.222  52.719  1.00  0.00     0.032 A 
HETATM    6  C7  UNL     1      20.958   2.850  51.524  1.00  0.00     0.028 A 
HETATM    7  C8  UNL     1      21.453   4.148  51.965  1.00  0.00     0.126 C 
HETATM    8  N3  UNL     1      22.665   4.248  52.271  1.00  0.00    -0.293 NA
HETATM    9  C9  UNL     1      23.798   3.470  52.334  1.00  0.00     0.229 C 
HETATM   10  C10 UNL     1      23.742   2.025  52.686  1.00  0.00     0.150 C 
HETATM   11  N5  UNL     1      23.426   0.887  53.017  1.00  0.00    -0.152 NA
HETATM   12  N6  UNL     1      22.397   0.132  53.395  1.00  0.00    -0.243 N 
HETATM   13  C11 UNL     1      22.722  -0.810  54.299  1.00  0.00     0.119 A 
HETATM   14  C12 UNL     1      21.592  -1.574  54.628  1.00  0.00     0.022 A 
HETATM   15  C13 UNL     1      20.507  -1.076  53.883  1.00  0.00     0.034 A 
HETATM   16  C14 UNL     1      21.050  -0.063  53.172  1.00  0.00     0.069 A 
ENDROOT
BRANCH   1  17
HETATM   17  N1  UNL     1      20.691   3.715  49.390  1.00  0.00    -0.354 N 
HETATM   18  H4  UNL     1      20.140   4.575  49.525  1.00  0.00     0.166 HD
BRANCH  17  19
HETATM   19  C2  UNL     1      21.499   3.767  48.242  1.00  0.00     0.063 C 
HETATM   20  C1  UNL     1      22.805   3.627  48.462  1.00  0.00     0.049 C 
ENDBRANCH  17  19
ENDBRANCH   1  17
BRANCH  10  21
HETATM   21  N4  UNL     1      25.121   1.561  52.564  1.00  0.00    -0.308 N 
HETATM   22 BR1  UNL     1      26.811   2.091  51.887  1.00  0.00     0.048 Br
HETATM   23  H10 UNL     1      25.663   0.672  52.854  1.00  0.00     0.175 HD
ENDBRANCH  10  21
TORSDOF 3
ENDMDL
