MODEL 1
REMARK VINA RESULT:      -8.2      0.000      0.000
REMARK  9 active torsions:
REMARK  status: ('A' for Active; 'I' for Inactive)
REMARK    1  A    between atoms: C2_2  and  N1_3 
REMARK    2  A    between atoms: N1_3  and  C4_5 
REMARK    3  A    between atoms: C4_5  and  C5_6 
REMARK    4  A    between atoms: C5_6  and  C6_7 
REMARK    5  A    between atoms: C6_7  and  O1_8 
REMARK    6  A    between atoms: O1_8  and  C7_9 
REMARK    7  A    between atoms: C13_17  and  N4_18 
REMARK    8  A    between atoms: N4_18  and  C14_19 
REMARK    9  A    between atoms: C21_28  and  O2_29 
ROOT
HETATM    1  C7  UNL     1      24.003   0.107  53.114  1.00  0.00     0.201 C 
HETATM    2  C8  UNL     1      24.029   1.591  53.170  1.00  0.00     0.012 C 
HETATM    3  C9  UNL     1      23.466   2.492  52.351  1.00  0.00     0.016 C 
HETATM    4  C10 UNL     1      22.668   2.184  51.170  1.00  0.00     0.039 A 
HETATM    5  C11 UNL     1      21.890   1.034  51.007  1.00  0.00     0.074 A 
HETATM    6  N2  UNL     1      21.156   0.824  49.874  1.00  0.00    -0.241 NA
HETATM    7  C12 UNL     1      21.239   1.802  48.933  1.00  0.00     0.236 A 
HETATM    8  N3  UNL     1      21.990   2.897  49.107  1.00  0.00    -0.224 NA
HETATM    9  C13 UNL     1      22.725   3.149  50.194  1.00  0.00     0.142 A 
HETATM   10  C20 UNL     1      21.706  -0.108  51.931  1.00  0.00     0.068 C 
HETATM   11  C21 UNL     1      22.662  -0.450  52.816  1.00  0.00     0.080 C 
ENDROOT
BRANCH   9  12
HETATM   12  N4  UNL     1      23.509   4.316  50.347  1.00  0.00    -0.340 N 
HETATM   13  H19 UNL     1      23.343   5.195  50.862  1.00  0.00     0.167 HD
BRANCH  12  14
HETATM   14  C14 UNL     1      24.801   4.541  49.802  1.00  0.00     0.035 A 
HETATM   15  C15 UNL     1      25.893   3.692  49.775  1.00  0.00     0.032 A 
HETATM   16  C16 UNL     1      27.104   3.981  49.211  1.00  0.00     0.046 A 
HETATM   17  C17 UNL     1      27.292   5.191  48.617  1.00  0.00     0.138 A 
HETATM   18  F1  UNL     1      28.496   5.463  48.061  1.00  0.00    -0.204 F 
HETATM   19  C18 UNL     1      26.222   6.077  48.619  1.00  0.00     0.074 A 
HETATM   20 CL1  UNL     1      26.581   7.614  47.820  1.00  0.00    -0.081 Cl
HETATM   21  C19 UNL     1      25.010   5.761  49.195  1.00  0.00     0.056 A 
ENDBRANCH  12  14
ENDBRANCH   9  12
BRANCH   1  22
HETATM   22  O1  UNL     1      24.429  -0.410  54.329  1.00  0.00    -0.375 OA
BRANCH  22  23
HETATM   23  C6  UNL     1      25.804  -0.284  54.503  1.00  0.00     0.170 C 
BRANCH  23  24
HETATM   24  C5  UNL     1      26.466  -0.836  53.267  1.00  0.00     0.056 C 
BRANCH  24  25
HETATM   25  C4  UNL     1      27.648   0.003  52.864  1.00  0.00     0.274 C 
BRANCH  25  26
HETATM   26  N1  UNL     1      28.635  -0.045  53.905  1.00  0.00     0.083 N 
HETATM   27  C3  UNL     1      29.652  -1.032  53.685  1.00  0.00     0.309 C 
BRANCH  26  28
HETATM   28  C2  UNL     1      29.183   1.251  54.258  1.00  0.00     0.267 C 
HETATM   29  C1  UNL     1      28.445   2.343  53.510  1.00  0.00     0.037 C 
ENDBRANCH  26  28
ENDBRANCH  25  26
ENDBRANCH  24  25
ENDBRANCH  23  24
ENDBRANCH  22  23
ENDBRANCH   1  22
BRANCH  11  30
HETATM   30  O2  UNL     1      22.194  -1.562  53.544  1.00  0.00    -0.357 OA
HETATM   31  C22 UNL     1      20.985  -1.329  54.288  1.00  0.00     0.209 C 
ENDBRANCH  11  30
TORSDOF 9
ENDMDL
MODEL 2
REMARK VINA RESULT:      -8.0      1.778      2.166
REMARK  9 active torsions:
REMARK  status: ('A' for Active; 'I' for Inactive)
REMARK    1  A    between atoms: C2_2  and  N1_3 
REMARK    2  A    between atoms: N1_3  and  C4_5 
REMARK    3  A    between atoms: C4_5  and  C5_6 
REMARK    4  A    between atoms: C5_6  and  C6_7 
REMARK    5  A    between atoms: C6_7  and  O1_8 
REMARK    6  A    between atoms: O1_8  and  C7_9 
REMARK    7  A    between atoms: C13_17  and  N4_18 
REMARK    8  A    between atoms: N4_18  and  C14_19 
REMARK    9  A    between atoms: C21_28  and  O2_29 
ROOT
HETATM    1  C7  UNL     1      24.381   0.927  52.569  1.00  0.00     0.201 C 
HETATM    2  C8  UNL     1      24.783   2.265  53.071  1.00  0.00     0.012 C 
HETATM    3  C9  UNL     1      24.135   3.438  53.007  1.00  0.00     0.016 C 
HETATM    4  C10 UNL     1      22.829   3.654  52.396  1.00  0.00     0.039 A 
HETATM    5  C11 UNL     1      21.816   2.694  52.311  1.00  0.00     0.074 A 
HETATM    6  N2  UNL     1      20.610   2.978  51.736  1.00  0.00    -0.241 NA
HETATM    7  C12 UNL     1      20.472   4.245  51.260  1.00  0.00     0.236 A 
HETATM    8  N3  UNL     1      21.454   5.151  51.351  1.00  0.00    -0.224 NA
HETATM    9  C13 UNL     1      22.649   4.923  51.903  1.00  0.00     0.142 A 
HETATM   10  C20 UNL     1      21.821   1.288  52.774  1.00  0.00     0.068 C 
HETATM   11  C21 UNL     1      22.967   0.587  52.862  1.00  0.00     0.080 C 
ENDROOT
BRANCH   9  12
HETATM   12  N4  UNL     1      23.666   5.902  51.982  1.00  0.00    -0.340 N 
HETATM   13  H19 UNL     1      24.083   6.399  52.785  1.00  0.00     0.167 HD
BRANCH  12  14
HETATM   14  C14 UNL     1      24.404   6.442  50.895  1.00  0.00     0.035 A 
HETATM   15  C15 UNL     1      24.317   7.698  50.323  1.00  0.00     0.032 A 
HETATM   16  C16 UNL     1      25.081   8.148  49.283  1.00  0.00     0.046 A 
HETATM   17  C17 UNL     1      26.016   7.323  48.736  1.00  0.00     0.138 A 
HETATM   18  F1  UNL     1      26.765   7.782  47.708  1.00  0.00    -0.204 F 
HETATM   19  C18 UNL     1      26.140   6.050  49.279  1.00  0.00     0.074 A 
HETATM   20 CL1  UNL     1      27.384   5.069  48.492  1.00  0.00    -0.081 Cl
HETATM   21  C19 UNL     1      25.357   5.621  50.329  1.00  0.00     0.056 A 
ENDBRANCH  12  14
ENDBRANCH   9  12
BRANCH   1  22
HETATM   22  O1  UNL     1      25.189  -0.045  53.140  1.00  0.00    -0.375 OA
BRANCH  22  23
HETATM   23  C6  UNL     1      26.175  -0.490  52.264  1.00  0.00     0.170 C 
BRANCH  23  24
HETATM   24  C5  UNL     1      27.359  -0.908  53.097  1.00  0.00     0.056 C 
BRANCH  24  25
HETATM   25  C4  UNL     1      27.566   0.032  54.254  1.00  0.00     0.274 C 
BRANCH  25  26
HETATM   26  N1  UNL     1      28.973   0.184  54.492  1.00  0.00     0.083 N 
HETATM   27  C3  UNL     1      29.787  -0.673  53.679  1.00  0.00     0.309 C 
BRANCH  26  28
HETATM   28  C2  UNL     1      29.428   1.561  54.479  1.00  0.00     0.267 C 
HETATM   29  C1  UNL     1      28.535   2.390  53.577  1.00  0.00     0.037 C 
ENDBRANCH  26  28
ENDBRANCH  25  26
ENDBRANCH  24  25
ENDBRANCH  23  24
ENDBRANCH  22  23
ENDBRANCH   1  22
BRANCH  11  30
HETATM   30  O2  UNL     1      22.646  -0.704  53.329  1.00  0.00    -0.357 OA
HETATM   31  C22 UNL     1      21.993  -0.734  54.611  1.00  0.00     0.209 C 
ENDBRANCH  11  30
TORSDOF 9
ENDMDL
MODEL 3
REMARK VINA RESULT:      -7.9      3.440      6.442
REMARK  9 active torsions:
REMARK  status: ('A' for Active; 'I' for Inactive)
REMARK    1  A    between atoms: C2_2  and  N1_3 
REMARK    2  A    between atoms: N1_3  and  C4_5 
REMARK    3  A    between atoms: C4_5  and  C5_6 
REMARK    4  A    between atoms: C5_6  and  C6_7 
REMARK    5  A    between atoms: C6_7  and  O1_8 
REMARK    6  A    between atoms: O1_8  and  C7_9 
REMARK    7  A    between atoms: C13_17  and  N4_18 
REMARK    8  A    between atoms: N4_18  and  C14_19 
REMARK    9  A    between atoms: C21_28  and  O2_29 
ROOT
HETATM    1  C7  UNL     1      20.117   1.015  52.126  1.00  0.00     0.201 C 
HETATM    2  C8  UNL     1      21.401   0.762  51.425  1.00  0.00     0.012 C 
HETATM    3  C9  UNL     1      22.506   0.133  51.853  1.00  0.00     0.016 C 
HETATM    4  C10 UNL     1      22.686  -0.465  53.170  1.00  0.00     0.039 A 
HETATM    5  C11 UNL     1      21.658  -0.997  53.955  1.00  0.00     0.074 A 
HETATM    6  N2  UNL     1      21.909  -1.555  55.176  1.00  0.00    -0.241 NA
HETATM    7  C12 UNL     1      23.213  -1.554  55.564  1.00  0.00     0.236 A 
HETATM    8  N3  UNL     1      24.184  -1.040  54.799  1.00  0.00    -0.224 NA
HETATM    9  C13 UNL     1      23.990  -0.483  53.599  1.00  0.00     0.142 A 
HETATM   10  C20 UNL     1      20.206  -1.065  53.672  1.00  0.00     0.068 C 
HETATM   11  C21 UNL     1      19.609  -0.162  52.871  1.00  0.00     0.080 C 
ENDROOT
BRANCH   9  12
HETATM   12  N4  UNL     1      25.038   0.053  52.815  1.00  0.00    -0.340 N 
HETATM   13  H19 UNL     1      25.032   0.663  51.983  1.00  0.00     0.167 HD
BRANCH  12  14
HETATM   14  C14 UNL     1      26.430  -0.129  53.030  1.00  0.00     0.035 A 
HETATM   15  C15 UNL     1      27.200  -1.262  52.835  1.00  0.00     0.032 A 
HETATM   16  C16 UNL     1      28.546  -1.349  53.051  1.00  0.00     0.046 A 
HETATM   17  C17 UNL     1      29.223  -0.256  53.495  1.00  0.00     0.138 A 
HETATM   18  F1  UNL     1      30.556  -0.356  53.704  1.00  0.00    -0.204 F 
HETATM   19  C18 UNL     1      28.492   0.907  53.705  1.00  0.00     0.074 A 
HETATM   20 CL1  UNL     1      29.474   2.261  54.280  1.00  0.00    -0.081 Cl
HETATM   21  C19 UNL     1      27.133   0.969  53.479  1.00  0.00     0.056 A 
ENDBRANCH  12  14
ENDBRANCH   9  12
BRANCH   1  22
HETATM   22  O1  UNL     1      19.153   1.397  51.206  1.00  0.00    -0.375 OA
BRANCH  22  23
HETATM   23  C6  UNL     1      19.594   2.423  50.376  1.00  0.00     0.170 C 
BRANCH  23  24
HETATM   24  C5  UNL     1      19.534   3.702  51.170  1.00  0.00     0.056 C 
BRANCH  24  25
HETATM   25  C4  UNL     1      20.466   4.737  50.603  1.00  0.00     0.274 C 
BRANCH  25  26
HETATM   26  N1  UNL     1      21.819   4.374  50.914  1.00  0.00     0.083 N 
HETATM   27  C3  UNL     1      22.796   5.128  50.184  1.00  0.00     0.309 C 
BRANCH  26  28
HETATM   28  C2  UNL     1      22.103   4.319  52.335  1.00  0.00     0.267 C 
HETATM   29  C1  UNL     1      23.524   3.839  52.558  1.00  0.00     0.037 C 
ENDBRANCH  26  28
ENDBRANCH  25  26
ENDBRANCH  24  25
ENDBRANCH  23  24
ENDBRANCH  22  23
ENDBRANCH   1  22
BRANCH  11  30
HETATM   30  O2  UNL     1      18.241  -0.492  52.798  1.00  0.00    -0.357 OA
HETATM   31  C22 UNL     1      17.916  -1.817  53.255  1.00  0.00     0.209 C 
ENDBRANCH  11  30
TORSDOF 9
ENDMDL
MODEL 4
REMARK VINA RESULT:      -7.7      3.631      6.333
REMARK  9 active torsions:
REMARK  status: ('A' for Active; 'I' for Inactive)
REMARK    1  A    between atoms: C2_2  and  N1_3 
REMARK    2  A    between atoms: N1_3  and  C4_5 
REMARK    3  A    between atoms: C4_5  and  C5_6 
REMARK    4  A    between atoms: C5_6  and  C6_7 
REMARK    5  A    between atoms: C6_7  and  O1_8 
REMARK    6  A    between atoms: O1_8  and  C7_9 
REMARK    7  A    between atoms: C13_17  and  N4_18 
REMARK    8  A    between atoms: N4_18  and  C14_19 
REMARK    9  A    between atoms: C21_28  and  O2_29 
ROOT
HETATM    1  C7  UNL     1      21.817   3.499  51.950  1.00  0.00     0.201 C 
HETATM    2  C8  UNL     1      22.790   2.594  51.286  1.00  0.00     0.012 C 
HETATM    3  C9  UNL     1      23.205   1.369  51.641  1.00  0.00     0.016 C 
HETATM    4  C10 UNL     1      22.763   0.630  52.817  1.00  0.00     0.039 A 
HETATM    5  C11 UNL     1      21.506   0.757  53.417  1.00  0.00     0.074 A 
HETATM    6  N2  UNL     1      21.160   0.017  54.511  1.00  0.00    -0.241 NA
HETATM    7  C12 UNL     1      22.115  -0.839  54.966  1.00  0.00     0.236 A 
HETATM    8  N3  UNL     1      23.313  -0.947  54.378  1.00  0.00    -0.224 NA
HETATM    9  C13 UNL     1      23.700  -0.246  53.308  1.00  0.00     0.142 A 
HETATM   10  C20 UNL     1      20.378   1.639  53.043  1.00  0.00     0.068 C 
HETATM   11  C21 UNL     1      20.588   2.809  52.410  1.00  0.00     0.080 C 
ENDROOT
BRANCH   9  12
HETATM   12  N4  UNL     1      24.974  -0.383  52.710  1.00  0.00    -0.340 N 
HETATM   13  H19 UNL     1      25.294  -0.912  51.884  1.00  0.00     0.167 HD
BRANCH  12  14
HETATM   14  C14 UNL     1      26.177   0.241  53.138  1.00  0.00     0.035 A 
HETATM   15  C15 UNL     1      26.388   1.555  53.514  1.00  0.00     0.032 A 
HETATM   16  C16 UNL     1      27.581   2.075  53.931  1.00  0.00     0.046 A 
HETATM   17  C17 UNL     1      28.675   1.268  53.997  1.00  0.00     0.138 A 
HETATM   18  F1  UNL     1      29.849   1.796  54.414  1.00  0.00    -0.204 F 
HETATM   19  C18 UNL     1      28.510  -0.062  53.630  1.00  0.00     0.074 A 
HETATM   20 CL1  UNL     1      29.995  -1.015  53.755  1.00  0.00    -0.081 Cl
HETATM   21  C19 UNL     1      27.295  -0.562  53.211  1.00  0.00     0.056 A 
ENDBRANCH  12  14
ENDBRANCH   9  12
BRANCH   1  22
HETATM   22  O1  UNL     1      21.447   4.508  51.073  1.00  0.00    -0.375 OA
BRANCH  22  23
HETATM   23  C6  UNL     1      21.909   5.756  51.481  1.00  0.00     0.170 C 
BRANCH  23  24
HETATM   24  C5  UNL     1      22.888   6.234  50.440  1.00  0.00     0.056 C 
BRANCH  24  25
HETATM   25  C4  UNL     1      24.283   6.307  51.000  1.00  0.00     0.274 C 
BRANCH  25  26
HETATM   26  N1  UNL     1      25.219   5.919  49.984  1.00  0.00     0.083 N 
HETATM   27  C3  UNL     1      25.630   4.548  50.077  1.00  0.00     0.309 C 
BRANCH  26  28
HETATM   28  C2  UNL     1      24.820   6.292  48.641  1.00  0.00     0.267 C 
HETATM   29  C1  UNL     1      25.879   7.176  48.014  1.00  0.00     0.037 C 
ENDBRANCH  26  28
ENDBRANCH  25  26
ENDBRANCH  24  25
ENDBRANCH  23  24
ENDBRANCH  22  23
ENDBRANCH   1  22
BRANCH  11  30
HETATM   30  O2  UNL     1      19.331   3.410  52.193  1.00  0.00    -0.357 OA
HETATM   31  C22 UNL     1      18.389   2.594  51.475  1.00  0.00     0.209 C 
ENDBRANCH  11  30
TORSDOF 9
ENDMDL
MODEL 5
REMARK VINA RESULT:      -7.4      4.386      7.739
REMARK  9 active torsions:
REMARK  status: ('A' for Active; 'I' for Inactive)
REMARK    1  A    between atoms: C2_2  and  N1_3 
REMARK    2  A    between atoms: N1_3  and  C4_5 
REMARK    3  A    between atoms: C4_5  and  C5_6 
REMARK    4  A    between atoms: C5_6  and  C6_7 
REMARK    5  A    between atoms: C6_7  and  O1_8 
REMARK    6  A    between atoms: O1_8  and  C7_9 
REMARK    7  A    between atoms: C13_17  and  N4_18 
REMARK    8  A    between atoms: N4_18  and  C14_19 
REMARK    9  A    between atoms: C21_28  and  O2_29 
ROOT
HETATM    1  C7  UNL     1      26.307   2.370  51.147  1.00  0.00     0.201 C 
HETATM    2  C8  UNL     1      24.931   2.877  51.381  1.00  0.00     0.012 C 
HETATM    3  C9  UNL     1      23.960   2.395  52.171  1.00  0.00     0.016 C 
HETATM    4  C10 UNL     1      24.059   1.208  53.011  1.00  0.00     0.039 A 
HETATM    5  C11 UNL     1      25.242   0.729  53.584  1.00  0.00     0.074 A 
HETATM    6  N2  UNL     1      25.251  -0.385  54.374  1.00  0.00    -0.241 NA
HETATM    7  C12 UNL     1      24.043  -0.984  54.557  1.00  0.00     0.236 A 
HETATM    8  N3  UNL     1      22.922  -0.510  54.000  1.00  0.00    -0.224 NA
HETATM    9  C13 UNL     1      22.860   0.573  53.221  1.00  0.00     0.142 A 
HETATM   10  C20 UNL     1      26.617   1.265  53.472  1.00  0.00     0.068 C 
HETATM   11  C21 UNL     1      27.007   1.966  52.390  1.00  0.00     0.080 C 
ENDROOT
BRANCH   9  12
HETATM   12  N4  UNL     1      21.658   1.047  52.646  1.00  0.00    -0.340 N 
HETATM   13  H19 UNL     1      21.427   1.928  52.160  1.00  0.00     0.167 HD
BRANCH  12  14
HETATM   14  C14 UNL     1      20.419   0.354  52.590  1.00  0.00     0.035 A 
HETATM   15  C15 UNL     1      19.837  -0.465  53.541  1.00  0.00     0.032 A 
HETATM   16  C16 UNL     1      18.626  -1.085  53.415  1.00  0.00     0.046 A 
HETATM   17  C17 UNL     1      17.900  -0.907  52.278  1.00  0.00     0.138 A 
HETATM   18  F1  UNL     1      16.702  -1.526  52.168  1.00  0.00    -0.204 F 
HETATM   19  C18 UNL     1      18.445  -0.091  51.294  1.00  0.00     0.074 A 
HETATM   20 CL1  UNL     1      17.416   0.066  49.863  1.00  0.00    -0.081 Cl
HETATM   21  C19 UNL     1      19.670   0.523  51.445  1.00  0.00     0.056 A 
ENDBRANCH  12  14
ENDBRANCH   9  12
BRANCH   1  22
HETATM   22  O1  UNL     1      27.063   3.351  50.522  1.00  0.00    -0.375 OA
BRANCH  22  23
HETATM   23  C6  UNL     1      26.294   4.158  49.689  1.00  0.00     0.170 C 
BRANCH  23  24
HETATM   24  C5  UNL     1      27.231   4.815  48.710  1.00  0.00     0.056 C 
BRANCH  24  25
HETATM   25  C4  UNL     1      26.923   6.280  48.563  1.00  0.00     0.274 C 
BRANCH  25  26
HETATM   26  N1  UNL     1      28.152   7.016  48.489  1.00  0.00     0.083 N 
HETATM   27  C3  UNL     1      29.282   6.209  48.129  1.00  0.00     0.309 C 
BRANCH  26  28
HETATM   28  C2  UNL     1      28.065   8.234  47.706  1.00  0.00     0.267 C 
HETATM   29  C1  UNL     1      28.584   7.985  46.304  1.00  0.00     0.037 C 
ENDBRANCH  26  28
ENDBRANCH  25  26
ENDBRANCH  24  25
ENDBRANCH  23  24
ENDBRANCH  22  23
ENDBRANCH   1  22
BRANCH  11  30
HETATM   30  O2  UNL     1      28.354   2.335  52.581  1.00  0.00    -0.357 OA
HETATM   31  C22 UNL     1      28.832   2.191  53.930  1.00  0.00     0.209 C 
ENDBRANCH  11  30
TORSDOF 9
ENDMDL
MODEL 6
REMARK VINA RESULT:      -7.4      3.645      6.541
REMARK  9 active torsions:
REMARK  status: ('A' for Active; 'I' for Inactive)
REMARK    1  A    between atoms: C2_2  and  N1_3 
REMARK    2  A    between atoms: N1_3  and  C4_5 
REMARK    3  A    between atoms: C4_5  and  C5_6 
REMARK    4  A    between atoms: C5_6  and  C6_7 
REMARK    5  A    between atoms: C6_7  and  O1_8 
REMARK    6  A    between atoms: O1_8  and  C7_9 
REMARK    7  A    between atoms: C13_17  and  N4_18 
REMARK    8  A    between atoms: N4_18  and  C14_19 
REMARK    9  A    between atoms: C21_28  and  O2_29 
ROOT
HETATM    1  C7  UNL     1      21.756   3.132  50.928  1.00  0.00     0.201 C 
HETATM    2  C8  UNL     1      22.572   3.189  52.168  1.00  0.00     0.012 C 
HETATM    3  C9  UNL     1      23.893   3.365  52.321  1.00  0.00     0.016 C 
HETATM    4  C10 UNL     1      24.856   3.548  51.242  1.00  0.00     0.039 A 
HETATM    5  C11 UNL     1      24.570   4.131  50.004  1.00  0.00     0.074 A 
HETATM    6  N2  UNL     1      25.532   4.280  49.046  1.00  0.00    -0.241 NA
HETATM    7  C12 UNL     1      26.769   3.827  49.384  1.00  0.00     0.236 A 
HETATM    8  N3  UNL     1      27.024   3.271  50.575  1.00  0.00    -0.224 NA
HETATM    9  C13 UNL     1      26.119   3.102  51.543  1.00  0.00     0.142 A 
HETATM   10  C20 UNL     1      23.284   4.661  49.496  1.00  0.00     0.068 C 
HETATM   11  C21 UNL     1      22.107   4.182  49.942  1.00  0.00     0.080 C 
ENDROOT
BRANCH   9  12
HETATM   12  N4  UNL     1      26.420   2.510  52.792  1.00  0.00    -0.340 N 
HETATM   13  H19 UNL     1      26.069   2.695  53.744  1.00  0.00     0.167 HD
BRANCH  12  14
HETATM   14  C14 UNL     1      27.324   1.438  53.020  1.00  0.00     0.035 A 
HETATM   15  C15 UNL     1      28.594   1.473  53.567  1.00  0.00     0.032 A 
HETATM   16  C16 UNL     1      29.397   0.386  53.770  1.00  0.00     0.046 A 
HETATM   17  C17 UNL     1      28.949  -0.850  53.420  1.00  0.00     0.138 A 
HETATM   18  F1  UNL     1      29.754  -1.917  53.628  1.00  0.00    -0.204 F 
HETATM   19  C18 UNL     1      27.677  -0.934  52.867  1.00  0.00     0.074 A 
HETATM   20 CL1  UNL     1      27.200  -2.587  52.452  1.00  0.00    -0.081 Cl
HETATM   21  C19 UNL     1      26.886   0.178  52.672  1.00  0.00     0.056 A 
ENDBRANCH  12  14
ENDBRANCH   9  12
BRANCH   1  22
HETATM   22  O1  UNL     1      20.414   3.268  51.249  1.00  0.00    -0.375 OA
BRANCH  22  23
HETATM   23  C6  UNL     1      19.726   2.061  51.158  1.00  0.00     0.170 C 
BRANCH  23  24
HETATM   24  C5  UNL     1      19.659   1.477  52.545  1.00  0.00     0.056 C 
BRANCH  24  25
HETATM   25  C4  UNL     1      19.915  -0.005  52.522  1.00  0.00     0.274 C 
BRANCH  25  26
HETATM   26  N1  UNL     1      21.026  -0.305  53.379  1.00  0.00     0.083 N 
HETATM   27  C3  UNL     1      20.813  -1.452  54.212  1.00  0.00     0.309 C 
BRANCH  26  28
HETATM   28  C2  UNL     1      22.305  -0.340  52.696  1.00  0.00     0.267 C 
HETATM   29  C1  UNL     1      23.431  -0.345  53.710  1.00  0.00     0.037 C 
ENDBRANCH  26  28
ENDBRANCH  25  26
ENDBRANCH  24  25
ENDBRANCH  23  24
ENDBRANCH  22  23
ENDBRANCH   1  22
BRANCH  11  30
HETATM   30  O2  UNL     1      21.080   4.883  49.277  1.00  0.00    -0.357 OA
HETATM   31  C22 UNL     1      20.978   4.608  47.869  1.00  0.00     0.209 C 
ENDBRANCH  11  30
TORSDOF 9
ENDMDL
MODEL 7
REMARK VINA RESULT:      -7.3      5.121      8.181
REMARK  9 active torsions:
REMARK  status: ('A' for Active; 'I' for Inactive)
REMARK    1  A    between atoms: C2_2  and  N1_3 
REMARK    2  A    between atoms: N1_3  and  C4_5 
REMARK    3  A    between atoms: C4_5  and  C5_6 
REMARK    4  A    between atoms: C5_6  and  C6_7 
REMARK    5  A    between atoms: C6_7  and  O1_8 
REMARK    6  A    between atoms: O1_8  and  C7_9 
REMARK    7  A    between atoms: C13_17  and  N4_18 
REMARK    8  A    between atoms: N4_18  and  C14_19 
REMARK    9  A    between atoms: C21_28  and  O2_29 
ROOT
HETATM    1  C7  UNL     1      28.210   6.583  48.358  1.00  0.00     0.201 C 
HETATM    2  C8  UNL     1      28.164   5.100  48.406  1.00  0.00     0.012 C 
HETATM    3  C9  UNL     1      27.228   4.284  48.913  1.00  0.00     0.016 C 
HETATM    4  C10 UNL     1      25.992   4.709  49.559  1.00  0.00     0.039 A 
HETATM    5  C11 UNL     1      25.302   5.891  49.271  1.00  0.00     0.074 A 
HETATM    6  N2  UNL     1      24.140   6.212  49.912  1.00  0.00    -0.241 NA
HETATM    7  C12 UNL     1      23.711   5.310  50.835  1.00  0.00     0.236 A 
HETATM    8  N3  UNL     1      24.384   4.183  51.097  1.00  0.00    -0.224 NA
HETATM    9  C13 UNL     1      25.524   3.824  50.500  1.00  0.00     0.142 A 
HETATM   10  C20 UNL     1      25.645   6.960  48.306  1.00  0.00     0.068 C 
HETATM   11  C21 UNL     1      26.923   7.201  47.958  1.00  0.00     0.080 C 
ENDROOT
BRANCH   9  12
HETATM   12  N4  UNL     1      26.213   2.626  50.801  1.00  0.00    -0.340 N 
HETATM   13  H19 UNL     1      27.030   2.173  50.362  1.00  0.00     0.167 HD
BRANCH  12  14
HETATM   14  C14 UNL     1      25.922   1.731  51.864  1.00  0.00     0.035 A 
HETATM   15  C15 UNL     1      24.747   1.052  52.132  1.00  0.00     0.032 A 
HETATM   16  C16 UNL     1      24.553   0.189  53.174  1.00  0.00     0.046 A 
HETATM   17  C17 UNL     1      25.574  -0.051  54.041  1.00  0.00     0.138 A 
HETATM   18  F1  UNL     1      25.368  -0.908  55.067  1.00  0.00    -0.204 F 
HETATM   19  C18 UNL     1      26.775   0.609  53.811  1.00  0.00     0.074 A 
HETATM   20 CL1  UNL     1      28.028   0.222  54.999  1.00  0.00    -0.081 Cl
HETATM   21  C19 UNL     1      26.945   1.476  52.753  1.00  0.00     0.056 A 
ENDBRANCH  12  14
ENDBRANCH   9  12
BRANCH   1  22
HETATM   22  O1  UNL     1      29.186   6.989  47.460  1.00  0.00    -0.375 OA
BRANCH  22  23
HETATM   23  C6  UNL     1      30.322   7.475  48.100  1.00  0.00     0.170 C 
BRANCH  23  24
HETATM   24  C5  UNL     1      31.503   6.711  47.560  1.00  0.00     0.056 C 
BRANCH  24  25
HETATM   25  C4  UNL     1      32.318   6.113  48.674  1.00  0.00     0.274 C 
BRANCH  25  26
HETATM   26  N1  UNL     1      32.788   4.818  48.272  1.00  0.00     0.083 N 
HETATM   27  C3  UNL     1      31.997   4.218  47.237  1.00  0.00     0.309 C 
BRANCH  26  28
HETATM   28  C2  UNL     1      34.209   4.769  47.988  1.00  0.00     0.267 C 
HETATM   29  C1  UNL     1      34.609   3.359  47.601  1.00  0.00     0.037 C 
ENDBRANCH  26  28
ENDBRANCH  25  26
ENDBRANCH  24  25
ENDBRANCH  23  24
ENDBRANCH  22  23
ENDBRANCH   1  22
BRANCH  11  30
HETATM   30  O2  UNL     1      26.921   8.265  47.033  1.00  0.00    -0.357 OA
HETATM   31  C22 UNL     1      26.728   9.567  47.613  1.00  0.00     0.209 C 
ENDBRANCH  11  30
TORSDOF 9
ENDMDL
MODEL 8
REMARK VINA RESULT:      -7.3      4.847      7.674
REMARK  9 active torsions:
REMARK  status: ('A' for Active; 'I' for Inactive)
REMARK    1  A    between atoms: C2_2  and  N1_3 
REMARK    2  A    between atoms: N1_3  and  C4_5 
REMARK    3  A    between atoms: C4_5  and  C5_6 
REMARK    4  A    between atoms: C5_6  and  C6_7 
REMARK    5  A    between atoms: C6_7  and  O1_8 
REMARK    6  A    between atoms: O1_8  and  C7_9 
REMARK    7  A    between atoms: C13_17  and  N4_18 
REMARK    8  A    between atoms: N4_18  and  C14_19 
REMARK    9  A    between atoms: C21_28  and  O2_29 
ROOT
HETATM    1  C7  UNL     1      27.391   5.786  48.932  1.00  0.00     0.201 C 
HETATM    2  C8  UNL     1      27.118   4.330  48.835  1.00  0.00     0.012 C 
HETATM    3  C9  UNL     1      26.216   3.579  49.484  1.00  0.00     0.016 C 
HETATM    4  C10 UNL     1      25.262   4.064  50.473  1.00  0.00     0.039 A 
HETATM    5  C11 UNL     1      24.724   5.355  50.502  1.00  0.00     0.074 A 
HETATM    6  N2  UNL     1      23.821   5.730  51.456  1.00  0.00    -0.241 NA
HETATM    7  C12 UNL     1      23.492   4.769  52.361  1.00  0.00     0.236 A 
HETATM    8  N3  UNL     1      24.017   3.539  52.317  1.00  0.00    -0.224 NA
HETATM    9  C13 UNL     1      24.902   3.123  51.407  1.00  0.00     0.142 A 
HETATM   10  C20 UNL     1      24.988   6.497  49.598  1.00  0.00     0.068 C 
HETATM   11  C21 UNL     1      26.164   6.617  48.952  1.00  0.00     0.080 C 
ENDROOT
BRANCH   9  12
HETATM   12  N4  UNL     1      25.440   1.815  51.389  1.00  0.00    -0.340 N 
HETATM   13  H19 UNL     1      25.186   0.973  50.848  1.00  0.00     0.167 HD
BRANCH  12  14
HETATM   14  C14 UNL     1      26.542   1.346  52.152  1.00  0.00     0.035 A 
HETATM   15  C15 UNL     1      27.450   2.070  52.904  1.00  0.00     0.032 A 
HETATM   16  C16 UNL     1      28.479   1.537  53.628  1.00  0.00     0.046 A 
HETATM   17  C17 UNL     1      28.660   0.189  53.638  1.00  0.00     0.138 A 
HETATM   18  F1  UNL     1      29.682  -0.325  54.361  1.00  0.00    -0.204 F 
HETATM   19  C18 UNL     1      27.770  -0.581  52.898  1.00  0.00     0.074 A 
HETATM   20 CL1  UNL     1      28.101  -2.316  52.985  1.00  0.00    -0.081 Cl
HETATM   21  C19 UNL     1      26.740  -0.018  52.175  1.00  0.00     0.056 A 
ENDBRANCH  12  14
ENDBRANCH   9  12
BRANCH   1  22
HETATM   22  O1  UNL     1      28.170   6.186  47.856  1.00  0.00    -0.375 OA
BRANCH  22  23
HETATM   23  C6  UNL     1      29.422   6.646  48.253  1.00  0.00     0.170 C 
BRANCH  23  24
HETATM   24  C5  UNL     1      30.428   5.592  47.873  1.00  0.00     0.056 C 
BRANCH  24  25
HETATM   25  C4  UNL     1      31.814   6.171  47.786  1.00  0.00     0.274 C 
BRANCH  25  26
HETATM   26  N1  UNL     1      32.762   5.199  48.250  1.00  0.00     0.083 N 
HETATM   27  C3  UNL     1      33.040   4.168  47.293  1.00  0.00     0.309 C 
BRANCH  26  28
HETATM   28  C2  UNL     1      33.966   5.773  48.818  1.00  0.00     0.267 C 
HETATM   29  C1  UNL     1      34.167   7.178  48.286  1.00  0.00     0.037 C 
ENDBRANCH  26  28
ENDBRANCH  25  26
ENDBRANCH  24  25
ENDBRANCH  23  24
ENDBRANCH  22  23
ENDBRANCH   1  22
BRANCH  11  30
HETATM   30  O2  UNL     1      26.108   7.793  48.176  1.00  0.00    -0.357 OA
HETATM   31  C22 UNL     1      25.037   7.831  47.217  1.00  0.00     0.209 C 
ENDBRANCH  11  30
TORSDOF 9
ENDMDL
MODEL 9
REMARK VINA RESULT:      -7.0      3.434      6.517
REMARK  9 active torsions:
REMARK  status: ('A' for Active; 'I' for Inactive)
REMARK    1  A    between atoms: C2_2  and  N1_3 
REMARK    2  A    between atoms: N1_3  and  C4_5 
REMARK    3  A    between atoms: C4_5  and  C5_6 
REMARK    4  A    between atoms: C5_6  and  C6_7 
REMARK    5  A    between atoms: C6_7  and  O1_8 
REMARK    6  A    between atoms: O1_8  and  C7_9 
REMARK    7  A    between atoms: C13_17  and  N4_18 
REMARK    8  A    between atoms: N4_18  and  C14_19 
REMARK    9  A    between atoms: C21_28  and  O2_29 
ROOT
HETATM    1  C7  UNL     1      26.268   2.449  51.118  1.00  0.00     0.201 C 
HETATM    2  C8  UNL     1      24.967   3.090  51.436  1.00  0.00     0.012 C 
HETATM    3  C9  UNL     1      23.968   2.666  52.223  1.00  0.00     0.016 C 
HETATM    4  C10 UNL     1      23.952   1.416  52.974  1.00  0.00     0.039 A 
HETATM    5  C11 UNL     1      25.085   0.765  53.471  1.00  0.00     0.074 A 
HETATM    6  N2  UNL     1      24.987  -0.398  54.180  1.00  0.00    -0.241 NA
HETATM    7  C12 UNL     1      23.723  -0.867  54.363  1.00  0.00     0.236 A 
HETATM    8  N3  UNL     1      22.649  -0.230  53.880  1.00  0.00    -0.224 NA
HETATM    9  C13 UNL     1      22.693   0.908  53.181  1.00  0.00     0.142 A 
HETATM   10  C20 UNL     1      26.510   1.147  53.348  1.00  0.00     0.068 C 
HETATM   11  C21 UNL     1      26.949   1.877  52.305  1.00  0.00     0.080 C 
ENDROOT
BRANCH   9  12
HETATM   12  N4  UNL     1      21.539   1.557  52.684  1.00  0.00    -0.340 N 
HETATM   13  H19 UNL     1      20.755   2.031  53.160  1.00  0.00     0.167 HD
BRANCH  12  14
HETATM   14  C14 UNL     1      21.191   1.728  51.317  1.00  0.00     0.035 A 
HETATM   15  C15 UNL     1      21.468   0.906  50.240  1.00  0.00     0.032 A 
HETATM   16  C16 UNL     1      21.080   1.136  48.950  1.00  0.00     0.046 A 
HETATM   17  C17 UNL     1      20.361   2.254  48.658  1.00  0.00     0.138 A 
HETATM   18  F1  UNL     1      19.982   2.468  47.377  1.00  0.00    -0.204 F 
HETATM   19  C18 UNL     1      20.058   3.110  49.710  1.00  0.00     0.074 A 
HETATM   20 CL1  UNL     1      19.121   4.527  49.214  1.00  0.00    -0.081 Cl
HETATM   21  C19 UNL     1      20.461   2.855  51.003  1.00  0.00     0.056 A 
ENDBRANCH  12  14
ENDBRANCH   9  12
BRANCH   1  22
HETATM   22  O1  UNL     1      27.116   3.380  50.537  1.00  0.00    -0.375 OA
BRANCH  22  23
HETATM   23  C6  UNL     1      26.439   4.249  49.686  1.00  0.00     0.170 C 
BRANCH  23  24
HETATM   24  C5  UNL     1      27.448   4.800  48.712  1.00  0.00     0.056 C 
BRANCH  24  25
HETATM   25  C4  UNL     1      27.196   6.258  48.437  1.00  0.00     0.274 C 
BRANCH  25  26
HETATM   26  N1  UNL     1      28.451   6.952  48.389  1.00  0.00     0.083 N 
HETATM   27  C3  UNL     1      29.562   6.106  48.064  1.00  0.00     0.309 C 
BRANCH  26  28
HETATM   28  C2  UNL     1      28.423   8.166  47.596  1.00  0.00     0.267 C 
HETATM   29  C1  UNL     1      28.986   7.893  46.215  1.00  0.00     0.037 C 
ENDBRANCH  26  28
ENDBRANCH  25  26
ENDBRANCH  24  25
ENDBRANCH  23  24
ENDBRANCH  22  23
ENDBRANCH   1  22
BRANCH  11  30
HETATM   30  O2  UNL     1      28.335   2.076  52.473  1.00  0.00    -0.357 OA
HETATM   31  C22 UNL     1      28.735   2.419  53.812  1.00  0.00     0.209 C 
ENDBRANCH  11  30
TORSDOF 9
ENDMDL
