MODEL 1
REMARK VINA RESULT:      -8.6      0.000      0.000
REMARK  8 active torsions:
REMARK  status: ('A' for Active; 'I' for Inactive)
REMARK    1  A    between atoms: C2_2  and  N1_3 
REMARK    2  A    between atoms: C2_2  and  C3_4 
REMARK    3  A    between atoms: C3_4  and  C4_5 
REMARK    4  A    between atoms: C4_5  and  C5_6 
REMARK    5  A    between atoms: C6_7  and  N2_8 
REMARK    6  A    between atoms: N2_8  and  C7_9 
REMARK    7  A    between atoms: C8_11  and  N4_12 
REMARK    8  A    between atoms: C14_19  and  C15_20 
ROOT
HETATM    1  C7  UNL     1      21.956   0.394  52.557  1.00  0.00     0.143 A 
HETATM    2  N3  UNL     1      20.789  -0.128  52.870  1.00  0.00    -0.200 NA
HETATM    3  C8  UNL     1      20.390  -0.892  53.843  1.00  0.00     0.201 A 
HETATM    4  N5  UNL     1      21.436  -1.280  54.824  1.00  0.00    -0.221 NA
HETATM    5  C9  UNL     1      22.609  -0.767  54.505  1.00  0.00     0.068 A 
HETATM    6  C10 UNL     1      22.955   0.037  53.460  1.00  0.00     0.036 A 
HETATM    7  C11 UNL     1      24.162   0.632  53.011  1.00  0.00     0.013 C 
HETATM    8  C12 UNL     1      24.981   1.385  53.780  1.00  0.00    -0.021 C 
HETATM    9  C13 UNL     1      26.249   2.024  53.306  1.00  0.00     0.065 C 
HETATM   10  C14 UNL     1      27.365   1.137  53.824  1.00  0.00    -0.056 C 
HETATM   11  C17 UNL     1      26.908   0.091  54.483  1.00  0.00     0.009 C 
HETATM   12  C18 UNL     1      25.671  -0.527  54.917  1.00  0.00     0.316 C 
HETATM   13  N6  UNL     1      24.850  -1.281  55.426  1.00  0.00    -0.433 NA
HETATM   14  C19 UNL     1      23.441  -1.372  55.529  1.00  0.00     0.164 C 
ENDROOT
BRANCH   1  15
HETATM   15  N2  UNL     1      22.079   1.252  51.392  1.00  0.00    -0.350 N 
HETATM   16  H11 UNL     1      22.627   2.127  51.507  1.00  0.00     0.166 HD
BRANCH  15  17
HETATM   17  C6  UNL     1      21.478   0.936  50.143  1.00  0.00     0.090 C 
HETATM   18  C5  UNL     1      22.312   1.762  49.457  1.00  0.00     0.017 C 
BRANCH  18  19
HETATM   19  C4  UNL     1      23.400   2.721  49.348  1.00  0.00    -0.001 C 
BRANCH  19  20
HETATM   20  C3  UNL     1      24.100   3.826  49.340  1.00  0.00     0.008 C 
BRANCH  20  21
HETATM   21  C2  UNL     1      25.292   3.924  50.278  1.00  0.00     0.236 C 
HETATM   22  C1  UNL     1      26.444   3.186  49.658  1.00  0.00     0.046 C 
BRANCH  21  23
HETATM   23  N1  UNL     1      25.618   5.319  50.395  1.00  0.00     0.086 N 
HETATM   24  H5  UNL     1      25.483   5.800  49.464  1.00  0.00     0.313 HD
HETATM   25  H6  UNL     1      25.020   5.764  51.140  1.00  0.00     0.313 HD
ENDBRANCH  21  23
ENDBRANCH  20  21
ENDBRANCH  19  20
ENDBRANCH  18  19
ENDBRANCH  15  17
ENDBRANCH   1  15
BRANCH   3  26
HETATM   26  N4  UNL     1      19.033  -1.221  53.764  1.00  0.00    -0.271 NA
HETATM   27  H12 UNL     1      18.247  -1.815  53.703  1.00  0.00     0.127 HD
HETATM   28  H13 UNL     1      19.202  -2.297  53.772  1.00  0.00     0.127 HD
ENDBRANCH   3  26
BRANCH  10  29
HETATM   29  C15 UNL     1      28.858   1.163  53.736  1.00  0.00     0.019 C 
HETATM   30  C16 UNL     1      29.792   0.219  53.626  1.00  0.00     0.085 C 
HETATM   31 CL1  UNL     1      29.866  -1.517  53.512  1.00  0.00    -0.097 Cl
ENDBRANCH  10  29
TORSDOF 8
ENDMDL
MODEL 2
REMARK VINA RESULT:      -8.4      3.077      5.805
REMARK  8 active torsions:
REMARK  status: ('A' for Active; 'I' for Inactive)
REMARK    1  A    between atoms: C2_2  and  N1_3 
REMARK    2  A    between atoms: C2_2  and  C3_4 
REMARK    3  A    between atoms: C3_4  and  C4_5 
REMARK    4  A    between atoms: C4_5  and  C5_6 
REMARK    5  A    between atoms: C6_7  and  N2_8 
REMARK    6  A    between atoms: N2_8  and  C7_9 
REMARK    7  A    between atoms: C8_11  and  N4_12 
REMARK    8  A    between atoms: C14_19  and  C15_20 
ROOT
HETATM    1  C7  UNL     1      25.753   1.457  53.242  1.00  0.00     0.143 A 
HETATM    2  N3  UNL     1      26.928   1.284  53.810  1.00  0.00    -0.200 NA
HETATM    3  C8  UNL     1      27.366   0.457  54.712  1.00  0.00     0.201 A 
HETATM    4  N5  UNL     1      26.365  -0.508  55.235  1.00  0.00    -0.221 NA
HETATM    5  C9  UNL     1      25.184  -0.329  54.676  1.00  0.00     0.068 A 
HETATM    6  C10 UNL     1      24.796   0.567  53.724  1.00  0.00     0.036 A 
HETATM    7  C11 UNL     1      23.576   0.860  53.064  1.00  0.00     0.013 C 
HETATM    8  C12 UNL     1      22.806  -0.053  52.429  1.00  0.00    -0.021 C 
HETATM    9  C13 UNL     1      21.523   0.256  51.721  1.00  0.00     0.065 C 
HETATM   10  C14 UNL     1      20.423  -0.181  52.671  1.00  0.00    -0.056 C 
HETATM   11  C17 UNL     1      20.901  -0.654  53.805  1.00  0.00     0.009 C 
HETATM   12  C18 UNL     1      22.150  -0.928  54.486  1.00  0.00     0.316 C 
HETATM   13  N6  UNL     1      22.986  -1.278  55.310  1.00  0.00    -0.433 NA
HETATM   14  C19 UNL     1      24.398  -1.294  55.423  1.00  0.00     0.164 C 
ENDROOT
BRANCH   1  15
HETATM   15  N2  UNL     1      25.583   2.474  52.220  1.00  0.00    -0.350 N 
HETATM   16  H11 UNL     1      24.785   3.130  52.335  1.00  0.00     0.166 HD
BRANCH  15  17
HETATM   17  C6  UNL     1      26.449   2.581  51.097  1.00  0.00     0.090 C 
HETATM   18  C5  UNL     1      25.555   3.327  50.395  1.00  0.00     0.017 C 
BRANCH  18  19
HETATM   19  C4  UNL     1      24.283   4.007  50.210  1.00  0.00    -0.001 C 
BRANCH  19  20
HETATM   20  C3  UNL     1      23.318   4.890  50.239  1.00  0.00     0.008 C 
BRANCH  20  21
HETATM   21  C2  UNL     1      22.819   5.360  51.596  1.00  0.00     0.236 C 
HETATM   22  C1  UNL     1      22.303   4.169  52.349  1.00  0.00     0.046 C 
BRANCH  21  23
HETATM   23  N1  UNL     1      23.950   5.917  52.286  1.00  0.00     0.086 N 
HETATM   24  H5  UNL     1      24.635   5.151  52.535  1.00  0.00     0.313 HD
HETATM   25  H6  UNL     1      24.409   6.652  51.686  1.00  0.00     0.313 HD
ENDBRANCH  21  23
ENDBRANCH  20  21
ENDBRANCH  19  20
ENDBRANCH  18  19
ENDBRANCH  15  17
ENDBRANCH   1  15
BRANCH   3  26
HETATM   26  N4  UNL     1      28.713   0.652  55.032  1.00  0.00    -0.271 NA
HETATM   27  H12 UNL     1      29.624   1.018  54.932  1.00  0.00     0.127 HD
HETATM   28  H13 UNL     1      28.894   1.361  54.225  1.00  0.00     0.127 HD
ENDBRANCH   3  26
BRANCH  10  29
HETATM   29  C15 UNL     1      18.929  -0.174  52.625  1.00  0.00     0.019 C 
HETATM   30  C16 UNL     1      17.991  -1.052  52.979  1.00  0.00     0.085 C 
HETATM   31 CL1  UNL     1      17.912  -2.645  53.678  1.00  0.00    -0.097 Cl
ENDBRANCH  10  29
TORSDOF 8
ENDMDL
MODEL 3
REMARK VINA RESULT:      -8.1      3.165      5.931
REMARK  8 active torsions:
REMARK  status: ('A' for Active; 'I' for Inactive)
REMARK    1  A    between atoms: C2_2  and  N1_3 
REMARK    2  A    between atoms: C2_2  and  C3_4 
REMARK    3  A    between atoms: C3_4  and  C4_5 
REMARK    4  A    between atoms: C4_5  and  C5_6 
REMARK    5  A    between atoms: C6_7  and  N2_8 
REMARK    6  A    between atoms: N2_8  and  C7_9 
REMARK    7  A    between atoms: C8_11  and  N4_12 
REMARK    8  A    between atoms: C14_19  and  C15_20 
ROOT
HETATM    1  C7  UNL     1      25.899   1.703  53.121  1.00  0.00     0.143 A 
HETATM    2  N3  UNL     1      27.106   1.576  53.630  1.00  0.00    -0.200 NA
HETATM    3  C8  UNL     1      27.626   0.752  54.491  1.00  0.00     0.201 A 
HETATM    4  N5  UNL     1      26.698  -0.272  55.037  1.00  0.00    -0.221 NA
HETATM    5  C9  UNL     1      25.485  -0.140  54.536  1.00  0.00     0.068 A 
HETATM    6  C10 UNL     1      25.010   0.756  53.625  1.00  0.00     0.036 A 
HETATM    7  C11 UNL     1      23.747   1.003  53.028  1.00  0.00     0.013 C 
HETATM    8  C12 UNL     1      22.994   0.066  52.407  1.00  0.00    -0.021 C 
HETATM    9  C13 UNL     1      21.666   0.327  51.766  1.00  0.00     0.065 C 
HETATM   10  C14 UNL     1      20.634  -0.184  52.755  1.00  0.00    -0.056 C 
HETATM   11  C17 UNL     1      21.186  -0.657  53.854  1.00  0.00     0.009 C 
HETATM   12  C18 UNL     1      22.478  -0.884  54.471  1.00  0.00     0.316 C 
HETATM   13  N6  UNL     1      23.367  -1.210  55.248  1.00  0.00    -0.433 NA
HETATM   14  C19 UNL     1      24.782  -1.158  55.295  1.00  0.00     0.164 C 
ENDROOT
BRANCH   1  15
HETATM   15  N2  UNL     1      25.632   2.732  52.132  1.00  0.00    -0.350 N 
HETATM   16  H11 UNL     1      24.792   3.324  52.283  1.00  0.00     0.166 HD
BRANCH  15  17
HETATM   17  C6  UNL     1      26.462   2.932  50.995  1.00  0.00     0.090 C 
HETATM   18  C5  UNL     1      25.397   3.080  50.161  1.00  0.00     0.017 C 
BRANCH  18  19
HETATM   19  C4  UNL     1      23.977   3.130  49.855  1.00  0.00    -0.001 C 
BRANCH  19  20
HETATM   20  C3  UNL     1      22.833   3.225  49.229  1.00  0.00     0.008 C 
BRANCH  20  21
HETATM   21  C2  UNL     1      22.594   2.319  48.032  1.00  0.00     0.236 C 
HETATM   22  C1  UNL     1      21.550   1.307  48.405  1.00  0.00     0.046 C 
BRANCH  21  23
HETATM   23  N1  UNL     1      22.103   3.153  46.969  1.00  0.00     0.086 N 
HETATM   24  H5  UNL     1      21.559   3.966  47.370  1.00  0.00     0.313 HD
HETATM   25  H6  UNL     1      22.908   3.492  46.380  1.00  0.00     0.313 HD
ENDBRANCH  21  23
ENDBRANCH  20  21
ENDBRANCH  19  20
ENDBRANCH  18  19
ENDBRANCH  15  17
ENDBRANCH   1  15
BRANCH   3  26
HETATM   26  N4  UNL     1      28.975   1.007  54.754  1.00  0.00    -0.271 NA
HETATM   27  H12 UNL     1      29.773   1.180  55.308  1.00  0.00     0.127 HD
HETATM   28  H13 UNL     1      28.857   1.003  55.836  1.00  0.00     0.127 HD
ENDBRANCH   3  26
BRANCH  10  29
HETATM   29  C15 UNL     1      19.141  -0.251  52.777  1.00  0.00     0.019 C 
HETATM   30  C16 UNL     1      18.194  -0.051  51.861  1.00  0.00     0.085 C 
HETATM   31 CL1  UNL     1      18.099   0.373  50.175  1.00  0.00    -0.097 Cl
ENDBRANCH  10  29
TORSDOF 8
ENDMDL
MODEL 4
REMARK VINA RESULT:      -7.9      3.362      6.310
REMARK  8 active torsions:
REMARK  status: ('A' for Active; 'I' for Inactive)
REMARK    1  A    between atoms: C2_2  and  N1_3 
REMARK    2  A    between atoms: C2_2  and  C3_4 
REMARK    3  A    between atoms: C3_4  and  C4_5 
REMARK    4  A    between atoms: C4_5  and  C5_6 
REMARK    5  A    between atoms: C6_7  and  N2_8 
REMARK    6  A    between atoms: N2_8  and  C7_9 
REMARK    7  A    between atoms: C8_11  and  N4_12 
REMARK    8  A    between atoms: C14_19  and  C15_20 
ROOT
HETATM    1  C7  UNL     1      22.889   2.992  52.015  1.00  0.00     0.143 A 
HETATM    2  N3  UNL     1      21.597   2.995  52.268  1.00  0.00    -0.200 NA
HETATM    3  C8  UNL     1      20.590   3.630  51.745  1.00  0.00     0.201 A 
HETATM    4  N5  UNL     1      20.925   4.551  50.628  1.00  0.00    -0.221 NA
HETATM    5  C9  UNL     1      22.221   4.558  50.380  1.00  0.00     0.068 A 
HETATM    6  C10 UNL     1      23.226   3.855  50.976  1.00  0.00     0.036 A 
HETATM    7  C11 UNL     1      24.634   3.787  50.810  1.00  0.00     0.013 C 
HETATM    8  C12 UNL     1      25.259   3.564  49.632  1.00  0.00    -0.021 C 
HETATM    9  C13 UNL     1      26.744   3.479  49.456  1.00  0.00     0.065 C 
HETATM   10  C14 UNL     1      27.158   4.819  48.877  1.00  0.00    -0.056 C 
HETATM   11  C17 UNL     1      26.137   5.640  48.736  1.00  0.00     0.009 C 
HETATM   12  C18 UNL     1      24.703   5.715  48.931  1.00  0.00     0.316 C 
HETATM   13  N6  UNL     1      23.540   6.099  48.960  1.00  0.00    -0.433 NA
HETATM   14  C19 UNL     1      22.282   5.587  49.359  1.00  0.00     0.164 C 
ENDROOT
BRANCH   1  15
HETATM   15  N2  UNL     1      23.776   2.130  52.776  1.00  0.00    -0.350 N 
HETATM   16  H11 UNL     1      24.599   2.578  53.223  1.00  0.00     0.166 HD
BRANCH  15  17
HETATM   17  C6  UNL     1      23.554   0.732  52.908  1.00  0.00     0.090 C 
HETATM   18  C5  UNL     1      24.864   0.436  52.694  1.00  0.00     0.017 C 
BRANCH  18  19
HETATM   19  C4  UNL     1      26.250   0.778  52.420  1.00  0.00    -0.001 C 
BRANCH  19  20
HETATM   20  C3  UNL     1      27.438   1.323  52.462  1.00  0.00     0.008 C 
BRANCH  20  21
HETATM   21  C2  UNL     1      28.231   1.213  53.754  1.00  0.00     0.236 C 
HETATM   22  C1  UNL     1      29.231   0.103  53.602  1.00  0.00     0.046 C 
BRANCH  21  23
HETATM   23  N1  UNL     1      28.919   2.463  53.931  1.00  0.00     0.086 N 
HETATM   24  H5  UNL     1      28.506   2.990  54.748  1.00  0.00     0.313 HD
HETATM   25  H6  UNL     1      29.948   2.287  54.076  1.00  0.00     0.313 HD
ENDBRANCH  21  23
ENDBRANCH  20  21
ENDBRANCH  19  20
ENDBRANCH  18  19
ENDBRANCH  15  17
ENDBRANCH   1  15
BRANCH   3  26
HETATM   26  N4  UNL     1      19.370   3.330  52.357  1.00  0.00    -0.271 NA
HETATM   27  H12 UNL     1      18.741   3.194  53.106  1.00  0.00     0.127 HD
HETATM   28  H13 UNL     1      19.730   3.514  53.368  1.00  0.00     0.127 HD
ENDBRANCH   3  26
BRANCH  10  29
HETATM   29  C15 UNL     1      28.458   5.427  48.456  1.00  0.00     0.019 C 
HETATM   30  C16 UNL     1      28.785   6.520  47.768  1.00  0.00     0.085 C 
HETATM   31 CL1  UNL     1      27.969   7.845  46.987  1.00  0.00    -0.097 Cl
ENDBRANCH  10  29
TORSDOF 8
ENDMDL
MODEL 5
REMARK VINA RESULT:      -7.7      2.863      4.177
REMARK  8 active torsions:
REMARK  status: ('A' for Active; 'I' for Inactive)
REMARK    1  A    between atoms: C2_2  and  N1_3 
REMARK    2  A    between atoms: C2_2  and  C3_4 
REMARK    3  A    between atoms: C3_4  and  C4_5 
REMARK    4  A    between atoms: C4_5  and  C5_6 
REMARK    5  A    between atoms: C6_7  and  N2_8 
REMARK    6  A    between atoms: N2_8  and  C7_9 
REMARK    7  A    between atoms: C8_11  and  N4_12 
REMARK    8  A    between atoms: C14_19  and  C15_20 
ROOT
HETATM    1  C7  UNL     1      21.863   0.645  52.459  1.00  0.00     0.143 A 
HETATM    2  N3  UNL     1      21.452  -0.239  53.343  1.00  0.00    -0.200 NA
HETATM    3  C8  UNL     1      22.071  -0.974  54.219  1.00  0.00     0.201 A 
HETATM    4  N5  UNL     1      23.548  -0.812  54.262  1.00  0.00    -0.221 NA
HETATM    5  C9  UNL     1      23.963   0.064  53.368  1.00  0.00     0.068 A 
HETATM    6  C10 UNL     1      23.247   0.807  52.476  1.00  0.00     0.036 A 
HETATM    7  C11 UNL     1      23.573   1.757  51.474  1.00  0.00     0.013 C 
HETATM    8  C12 UNL     1      24.341   2.852  51.674  1.00  0.00    -0.021 C 
HETATM    9  C13 UNL     1      24.678   3.862  50.621  1.00  0.00     0.065 C 
HETATM   10  C14 UNL     1      26.094   3.535  50.186  1.00  0.00    -0.056 C 
HETATM   11  C17 UNL     1      26.579   2.482  50.813  1.00  0.00     0.009 C 
HETATM   12  C18 UNL     1      26.232   1.497  51.819  1.00  0.00     0.316 C 
HETATM   13  N6  UNL     1      26.266   0.556  52.602  1.00  0.00    -0.433 NA
HETATM   14  C19 UNL     1      25.399  -0.050  53.543  1.00  0.00     0.164 C 
ENDROOT
BRANCH   1  15
HETATM   15  N2  UNL     1      20.900   1.338  51.622  1.00  0.00    -0.350 N 
HETATM   16  H11 UNL     1      20.945   1.156  50.601  1.00  0.00     0.166 HD
BRANCH  15  17
HETATM   17  C6  UNL     1      19.934   2.237  52.153  1.00  0.00     0.090 C 
HETATM   18  C5  UNL     1      20.171   3.166  51.188  1.00  0.00     0.017 C 
BRANCH  18  19
HETATM   19  C4  UNL     1      20.844   3.674  50.004  1.00  0.00    -0.001 C 
BRANCH  19  20
HETATM   20  C3  UNL     1      21.115   4.047  48.780  1.00  0.00     0.008 C 
BRANCH  20  21
HETATM   21  C2  UNL     1      21.072   2.994  47.685  1.00  0.00     0.236 C 
HETATM   22  C1  UNL     1      21.998   1.876  48.067  1.00  0.00     0.046 C 
BRANCH  21  23
HETATM   23  N1  UNL     1      19.721   2.505  47.628  1.00  0.00     0.086 N 
HETATM   24  H5  UNL     1      19.046   3.279  47.879  1.00  0.00     0.313 HD
HETATM   25  H6  UNL     1      19.519   2.126  46.666  1.00  0.00     0.313 HD
ENDBRANCH  21  23
ENDBRANCH  20  21
ENDBRANCH  19  20
ENDBRANCH  18  19
ENDBRANCH  15  17
ENDBRANCH   1  15
BRANCH   3  26
HETATM   26  N4  UNL     1      21.213  -1.800  54.951  1.00  0.00    -0.271 NA
HETATM   27  H12 UNL     1      20.574  -2.038  55.664  1.00  0.00     0.127 HD
HETATM   28  H13 UNL     1      20.896  -1.015  55.635  1.00  0.00     0.127 HD
ENDBRANCH   3  26
BRANCH  10  29
HETATM   29  C15 UNL     1      27.052   4.115  49.195  1.00  0.00     0.019 C 
HETATM   30  C16 UNL     1      27.178   5.314  48.627  1.00  0.00     0.085 C 
HETATM   31 CL1  UNL     1      26.376   6.858  48.681  1.00  0.00    -0.097 Cl
ENDBRANCH  10  29
TORSDOF 8
ENDMDL
MODEL 6
REMARK VINA RESULT:      -7.4      3.312      6.019
REMARK  8 active torsions:
REMARK  status: ('A' for Active; 'I' for Inactive)
REMARK    1  A    between atoms: C2_2  and  N1_3 
REMARK    2  A    between atoms: C2_2  and  C3_4 
REMARK    3  A    between atoms: C3_4  and  C4_5 
REMARK    4  A    between atoms: C4_5  and  C5_6 
REMARK    5  A    between atoms: C6_7  and  N2_8 
REMARK    6  A    between atoms: N2_8  and  C7_9 
REMARK    7  A    between atoms: C8_11  and  N4_12 
REMARK    8  A    between atoms: C14_19  and  C15_20 
ROOT
HETATM    1  C7  UNL     1      24.536   2.387  51.608  1.00  0.00     0.143 A 
HETATM    2  N3  UNL     1      25.828   2.435  51.855  1.00  0.00    -0.200 NA
HETATM    3  C8  UNL     1      26.617   1.720  52.602  1.00  0.00     0.201 A 
HETATM    4  N5  UNL     1      25.964   0.612  53.346  1.00  0.00    -0.221 NA
HETATM    5  C9  UNL     1      24.667   0.570  53.109  1.00  0.00     0.068 A 
HETATM    6  C10 UNL     1      23.902   1.360  52.302  1.00  0.00     0.036 A 
HETATM    7  C11 UNL     1      22.522   1.422  51.979  1.00  0.00     0.013 C 
HETATM    8  C12 UNL     1      21.786   0.373  51.546  1.00  0.00    -0.021 C 
HETATM    9  C13 UNL     1      20.332   0.437  51.193  1.00  0.00     0.065 C 
HETATM   10  C14 UNL     1      19.602  -0.155  52.383  1.00  0.00    -0.056 C 
HETATM   11  C17 UNL     1      20.425  -0.508  53.350  1.00  0.00     0.009 C 
HETATM   12  C18 UNL     1      21.835  -0.545  53.687  1.00  0.00     0.316 C 
HETATM   13  N6  UNL     1      22.899  -0.723  54.265  1.00  0.00    -0.433 NA
HETATM   14  C19 UNL     1      24.274  -0.494  54.014  1.00  0.00     0.164 C 
ENDROOT
BRANCH   1  15
HETATM   15  N2  UNL     1      23.939   3.331  50.681  1.00  0.00    -0.350 N 
HETATM   16  H11 UNL     1      23.524   4.193  51.086  1.00  0.00     0.166 HD
BRANCH  15  17
HETATM   17  C6  UNL     1      23.904   3.105  49.277  1.00  0.00     0.090 C 
HETATM   18  C5  UNL     1      24.421   4.332  48.999  1.00  0.00     0.017 C 
BRANCH  18  19
HETATM   19  C4  UNL     1      24.941   5.641  49.360  1.00  0.00    -0.001 C 
BRANCH  19  20
HETATM   20  C3  UNL     1      25.726   6.617  49.734  1.00  0.00     0.008 C 
BRANCH  20  21
HETATM   21  C2  UNL     1      25.141   7.706  50.620  1.00  0.00     0.236 C 
HETATM   22  C1  UNL     1      24.058   8.408  49.854  1.00  0.00     0.046 C 
BRANCH  21  23
HETATM   23  N1  UNL     1      24.576   7.051  51.768  1.00  0.00     0.086 N 
HETATM   24  H5  UNL     1      25.345   6.634  52.360  1.00  0.00     0.313 HD
HETATM   25  H6  UNL     1      24.002   7.738  52.323  1.00  0.00     0.313 HD
ENDBRANCH  21  23
ENDBRANCH  20  21
ENDBRANCH  19  20
ENDBRANCH  18  19
ENDBRANCH  15  17
ENDBRANCH   1  15
BRANCH   3  26
HETATM   26  N4  UNL     1      27.946   2.152  52.572  1.00  0.00    -0.271 NA
HETATM   27  H12 UNL     1      28.743   2.607  52.209  1.00  0.00     0.127 HD
HETATM   28  H13 UNL     1      27.841   2.699  51.637  1.00  0.00     0.127 HD
ENDBRANCH   3  26
BRANCH  10  29
HETATM   29  C15 UNL     1      18.167  -0.406  52.719  1.00  0.00     0.019 C 
HETATM   30  C16 UNL     1      17.505  -1.449  53.220  1.00  0.00     0.085 C 
HETATM   31 CL1  UNL     1      17.864  -3.061  53.771  1.00  0.00    -0.097 Cl
ENDBRANCH  10  29
TORSDOF 8
ENDMDL
MODEL 7
REMARK VINA RESULT:      -7.3      6.203     10.701
REMARK  8 active torsions:
REMARK  status: ('A' for Active; 'I' for Inactive)
REMARK    1  A    between atoms: C2_2  and  N1_3 
REMARK    2  A    between atoms: C2_2  and  C3_4 
REMARK    3  A    between atoms: C3_4  and  C4_5 
REMARK    4  A    between atoms: C4_5  and  C5_6 
REMARK    5  A    between atoms: C6_7  and  N2_8 
REMARK    6  A    between atoms: N2_8  and  C7_9 
REMARK    7  A    between atoms: C8_11  and  N4_12 
REMARK    8  A    between atoms: C14_19  and  C15_20 
ROOT
HETATM    1  C7  UNL     1      28.620   8.816  49.169  1.00  0.00     0.143 A 
HETATM    2  N3  UNL     1      28.400  10.110  49.271  1.00  0.00    -0.200 NA
HETATM    3  C8  UNL     1      29.124  11.158  49.013  1.00  0.00     0.201 A 
HETATM    4  N5  UNL     1      30.490  10.881  48.496  1.00  0.00    -0.221 NA
HETATM    5  C9  UNL     1      30.717   9.585  48.404  1.00  0.00     0.068 A 
HETATM    6  C10 UNL     1      29.898   8.533  48.692  1.00  0.00     0.036 A 
HETATM    7  C11 UNL     1      30.029   7.122  48.648  1.00  0.00     0.013 C 
HETATM    8  C12 UNL     1      30.445   6.422  47.567  1.00  0.00    -0.021 C 
HETATM    9  C13 UNL     1      30.573   4.931  47.513  1.00  0.00     0.065 C 
HETATM   10  C14 UNL     1      32.055   4.648  47.672  1.00  0.00    -0.056 C 
HETATM   11  C17 UNL     1      32.760   5.749  47.836  1.00  0.00     0.009 C 
HETATM   12  C18 UNL     1      32.618   7.190  47.907  1.00  0.00     0.316 C 
HETATM   13  N6  UNL     1      32.848   8.389  48.003  1.00  0.00    -0.433 NA
HETATM   14  C19 UNL     1      32.109   9.597  47.995  1.00  0.00     0.164 C 
ENDROOT
BRANCH   1  15
HETATM   15  N2  UNL     1      27.574   7.871  49.516  1.00  0.00    -0.350 N 
HETATM   16  H11 UNL     1      27.790   7.183  50.263  1.00  0.00     0.166 HD
BRANCH  15  17
HETATM   17  C6  UNL     1      26.308   7.863  48.870  1.00  0.00     0.090 C 
HETATM   18  C5  UNL     1      26.268   6.504  48.819  1.00  0.00     0.017 C 
BRANCH  18  19
HETATM   19  C4  UNL     1      26.805   5.174  49.056  1.00  0.00    -0.001 C 
BRANCH  19  20
HETATM   20  C3  UNL     1      26.919   3.888  49.265  1.00  0.00     0.008 C 
BRANCH  20  21
HETATM   21  C2  UNL     1      25.894   3.215  50.164  1.00  0.00     0.236 C 
HETATM   22  C1  UNL     1      26.611   2.242  51.055  1.00  0.00     0.046 C 
BRANCH  21  23
HETATM   23  N1  UNL     1      25.295   4.250  50.961  1.00  0.00     0.086 N 
HETATM   24  H5  UNL     1      25.369   5.179  50.463  1.00  0.00     0.313 HD
HETATM   25  H6  UNL     1      24.289   4.009  51.162  1.00  0.00     0.313 HD
ENDBRANCH  21  23
ENDBRANCH  20  21
ENDBRANCH  19  20
ENDBRANCH  18  19
ENDBRANCH  15  17
ENDBRANCH   1  15
BRANCH   3  26
HETATM   26  N4  UNL     1      28.472  12.362  49.296  1.00  0.00    -0.271 NA
HETATM   27  H12 UNL     1      27.893  12.983  49.799  1.00  0.00     0.127 HD
HETATM   28  H13 UNL     1      28.030  12.008  50.225  1.00  0.00     0.127 HD
ENDBRANCH   3  26
BRANCH  10  29
HETATM   29  C15 UNL     1      32.892   3.409  47.710  1.00  0.00     0.019 C 
HETATM   30  C16 UNL     1      33.984   3.013  47.058  1.00  0.00     0.085 C 
HETATM   31 CL1  UNL     1      35.061   3.643  45.844  1.00  0.00    -0.097 Cl
ENDBRANCH  10  29
TORSDOF 8
ENDMDL
MODEL 8
REMARK VINA RESULT:      -7.2      3.659      6.963
REMARK  8 active torsions:
REMARK  status: ('A' for Active; 'I' for Inactive)
REMARK    1  A    between atoms: C2_2  and  N1_3 
REMARK    2  A    between atoms: C2_2  and  C3_4 
REMARK    3  A    between atoms: C3_4  and  C4_5 
REMARK    4  A    between atoms: C4_5  and  C5_6 
REMARK    5  A    between atoms: C6_7  and  N2_8 
REMARK    6  A    between atoms: N2_8  and  C7_9 
REMARK    7  A    between atoms: C8_11  and  N4_12 
REMARK    8  A    between atoms: C14_19  and  C15_20 
ROOT
HETATM    1  C7  UNL     1      23.875   3.766  51.602  1.00  0.00     0.143 A 
HETATM    2  N3  UNL     1      22.615   3.674  51.969  1.00  0.00    -0.200 NA
HETATM    3  C8  UNL     1      21.534   4.296  51.600  1.00  0.00     0.201 A 
HETATM    4  N5  UNL     1      21.717   5.331  50.550  1.00  0.00    -0.221 NA
HETATM    5  C9  UNL     1      22.982   5.432  50.188  1.00  0.00     0.068 A 
HETATM    6  C10 UNL     1      24.072   4.736  50.621  1.00  0.00     0.036 A 
HETATM    7  C11 UNL     1      25.458   4.760  50.324  1.00  0.00     0.013 C 
HETATM    8  C12 UNL     1      25.979   4.679  49.079  1.00  0.00    -0.021 C 
HETATM    9  C13 UNL     1      27.443   4.693  48.763  1.00  0.00     0.065 C 
HETATM   10  C14 UNL     1      27.737   6.100  48.277  1.00  0.00    -0.056 C 
HETATM   11  C17 UNL     1      26.669   6.872  48.306  1.00  0.00     0.009 C 
HETATM   12  C18 UNL     1      25.258   6.849  48.636  1.00  0.00     0.316 C 
HETATM   13  N6  UNL     1      24.087   7.164  48.805  1.00  0.00    -0.433 NA
HETATM   14  C19 UNL     1      22.897   6.549  49.266  1.00  0.00     0.164 C 
ENDROOT
BRANCH   1  15
HETATM   15  N2  UNL     1      24.870   2.890  52.194  1.00  0.00    -0.350 N 
HETATM   16  H11 UNL     1      25.528   3.316  52.875  1.00  0.00     0.166 HD
BRANCH  15  17
HETATM   17  C6  UNL     1      24.965   1.509  51.867  1.00  0.00     0.090 C 
HETATM   18  C5  UNL     1      26.171   1.378  52.481  1.00  0.00     0.017 C 
BRANCH  18  19
HETATM   19  C4  UNL     1      27.316   1.875  53.227  1.00  0.00    -0.001 C 
BRANCH  19  20
HETATM   20  C3  UNL     1      28.522   2.244  53.572  1.00  0.00     0.008 C 
BRANCH  20  21
HETATM   21  C2  UNL     1      29.381   1.253  54.341  1.00  0.00     0.236 C 
HETATM   22  C1  UNL     1      28.476   0.246  54.990  1.00  0.00     0.046 C 
BRANCH  21  23
HETATM   23  N1  UNL     1      30.225   0.598  53.380  1.00  0.00     0.086 N 
HETATM   24  H5  UNL     1      30.253   1.157  52.483  1.00  0.00     0.313 HD
HETATM   25  H6  UNL     1      31.193   0.476  53.778  1.00  0.00     0.313 HD
ENDBRANCH  21  23
ENDBRANCH  20  21
ENDBRANCH  19  20
ENDBRANCH  18  19
ENDBRANCH  15  17
ENDBRANCH   1  15
BRANCH   3  26
HETATM   26  N4  UNL     1      20.393   3.875  52.289  1.00  0.00    -0.271 NA
HETATM   27  H12 UNL     1      19.687   3.247  52.576  1.00  0.00     0.127 HD
HETATM   28  H13 UNL     1      20.439   2.852  51.922  1.00  0.00     0.127 HD
ENDBRANCH   3  26
BRANCH  10  29
HETATM   29  C15 UNL     1      28.961   6.814  47.800  1.00  0.00     0.019 C 
HETATM   30  C16 UNL     1      30.248   6.768  48.140  1.00  0.00     0.085 C 
HETATM   31 CL1  UNL     1      31.255   5.902  49.266  1.00  0.00    -0.097 Cl
ENDBRANCH  10  29
TORSDOF 8
ENDMDL
MODEL 9
REMARK VINA RESULT:      -7.2      3.391      6.915
REMARK  8 active torsions:
REMARK  status: ('A' for Active; 'I' for Inactive)
REMARK    1  A    between atoms: C2_2  and  N1_3 
REMARK    2  A    between atoms: C2_2  and  C3_4 
REMARK    3  A    between atoms: C3_4  and  C4_5 
REMARK    4  A    between atoms: C4_5  and  C5_6 
REMARK    5  A    between atoms: C6_7  and  N2_8 
REMARK    6  A    between atoms: N2_8  and  C7_9 
REMARK    7  A    between atoms: C8_11  and  N4_12 
REMARK    8  A    between atoms: C14_19  and  C15_20 
ROOT
HETATM    1  C7  UNL     1      23.691   3.217  51.627  1.00  0.00     0.143 A 
HETATM    2  N3  UNL     1      22.447   3.143  52.048  1.00  0.00    -0.200 NA
HETATM    3  C8  UNL     1      21.402   3.896  51.871  1.00  0.00     0.201 A 
HETATM    4  N5  UNL     1      21.616   5.099  51.026  1.00  0.00    -0.221 NA
HETATM    5  C9  UNL     1      22.866   5.181  50.612  1.00  0.00     0.068 A 
HETATM    6  C10 UNL     1      23.917   4.342  50.837  1.00  0.00     0.036 A 
HETATM    7  C11 UNL     1      25.285   4.329  50.465  1.00  0.00     0.013 C 
HETATM    8  C12 UNL     1      25.738   4.454  49.196  1.00  0.00    -0.021 C 
HETATM    9  C13 UNL     1      27.181   4.428  48.798  1.00  0.00     0.065 C 
HETATM   10  C14 UNL     1      27.562   5.879  48.570  1.00  0.00    -0.056 C 
HETATM   11  C17 UNL     1      26.561   6.703  48.810  1.00  0.00     0.009 C 
HETATM   12  C18 UNL     1      25.170   6.713  49.217  1.00  0.00     0.316 C 
HETATM   13  N6  UNL     1      24.037   7.069  49.516  1.00  0.00    -0.433 NA
HETATM   14  C19 UNL     1      22.826   6.459  49.925  1.00  0.00     0.164 C 
ENDROOT
BRANCH   1  15
HETATM   15  N2  UNL     1      24.641   2.177  51.980  1.00  0.00    -0.350 N 
HETATM   16  H11 UNL     1      24.861   1.471  51.251  1.00  0.00     0.166 HD
BRANCH  15  17
HETATM   17  C6  UNL     1      25.249   2.102  53.264  1.00  0.00     0.090 C 
HETATM   18  C5  UNL     1      24.637   0.924  53.558  1.00  0.00     0.017 C 
BRANCH  18  19
HETATM   19  C4  UNL     1      23.758  -0.197  53.269  1.00  0.00    -0.001 C 
BRANCH  19  20
HETATM   20  C3  UNL     1      22.758  -1.041  53.281  1.00  0.00     0.008 C 
BRANCH  20  21
HETATM   21  C2  UNL     1      21.353  -0.489  53.101  1.00  0.00     0.236 C 
HETATM   22  C1  UNL     1      21.003   0.318  54.318  1.00  0.00     0.046 C 
BRANCH  21  23
HETATM   23  N1  UNL     1      21.385   0.366  51.947  1.00  0.00     0.086 N 
HETATM   24  H5  UNL     1      22.386   0.557  51.666  1.00  0.00     0.313 HD
HETATM   25  H6  UNL     1      20.851  -0.082  51.156  1.00  0.00     0.313 HD
ENDBRANCH  21  23
ENDBRANCH  20  21
ENDBRANCH  19  20
ENDBRANCH  18  19
ENDBRANCH  15  17
ENDBRANCH   1  15
BRANCH   3  26
HETATM   26  N4  UNL     1      20.266   3.429  52.538  1.00  0.00    -0.271 NA
HETATM   27  H12 UNL     1      19.629   3.334  53.286  1.00  0.00     0.127 HD
HETATM   28  H13 UNL     1      20.449   4.008  53.442  1.00  0.00     0.127 HD
ENDBRANCH   3  26
BRANCH  10  29
HETATM   29  C15 UNL     1      28.814   6.587  48.161  1.00  0.00     0.019 C 
HETATM   30  C16 UNL     1      29.347   7.770  48.466  1.00  0.00     0.085 C 
HETATM   31 CL1  UNL     1      28.960   9.139  49.470  1.00  0.00    -0.097 Cl
ENDBRANCH  10  29
TORSDOF 8
ENDMDL
