MODEL 1
REMARK VINA RESULT:      -6.8      0.000      0.000
REMARK  7 active torsions:
REMARK  status: ('A' for Active; 'I' for Inactive)
REMARK    1  A    between atoms: C1_2  and  C2_3 
REMARK    2  A    between atoms: C3_4  and  C4_5 
REMARK    3  A    between atoms: C4_5  and  N1_6 
REMARK    4  A    between atoms: N1_6  and  C5_7 
REMARK    5  A    between atoms: C10_14  and  C11_15 
REMARK    6  A    between atoms: C11_15  and  N4_16 
REMARK    7  A    between atoms: N4_16  and  C12_17 
ROOT
HETATM    1  C5  UNL     1      26.991   0.018  53.900  1.00  0.00     0.137 A 
HETATM    2  N2  UNL     1      28.114   0.274  54.596  1.00  0.00    -0.224 NA
HETATM    3  C6  UNL     1      28.919   1.313  54.222  1.00  0.00     0.236 A 
HETATM    4  N3  UNL     1      28.622   2.095  53.172  1.00  0.00    -0.241 NA
HETATM    5  C7  UNL     1      27.531   1.924  52.416  1.00  0.00     0.080 A 
HETATM    6  C8  UNL     1      26.758   0.867  52.836  1.00  0.00     0.040 A 
HETATM    7  C9  UNL     1      25.869   1.209  51.733  1.00  0.00     0.029 A 
HETATM    8  C10 UNL     1      26.624   2.242  51.323  1.00  0.00     0.001 A 
ENDROOT
BRANCH   8   9
HETATM    9  C11 UNL     1      26.499   3.230  50.230  1.00  0.00     0.311 C 
BRANCH   9  10
HETATM   10  N4  UNL     1      25.909   4.426  50.715  1.00  0.00     0.096 N 
HETATM   11  H12 UNL     1      25.630   4.284  51.709  1.00  0.00     0.316 HD
BRANCH  10  12
HETATM   12  C12 UNL     1      24.783   4.934  50.016  1.00  0.00     0.268 C 
HETATM   13  C13 UNL     1      23.863   5.777  50.865  1.00  0.00     0.208 C 
HETATM   14  O1  UNL     1      23.375   5.068  51.961  1.00  0.00    -0.365 OA
HETATM   15  C14 UNL     1      23.044   3.758  51.626  1.00  0.00     0.337 C 
HETATM   16  O2  UNL     1      22.744   3.652  50.263  1.00  0.00    -0.365 OA
HETATM   17  C15 UNL     1      23.941   3.738  49.570  1.00  0.00     0.208 C 
ENDBRANCH  10  12
ENDBRANCH   9  10
ENDBRANCH   8   9
BRANCH   1  18
HETATM   18  N1  UNL     1      26.097  -1.039  54.225  1.00  0.00    -0.371 N 
HETATM   19  H7  UNL     1      26.252  -1.961  53.768  1.00  0.00     0.161 HD
BRANCH  18  20
HETATM   20  C4  UNL     1      25.021  -0.781  55.167  1.00  0.00     0.148 C 
BRANCH  20  21
HETATM   21  C3  UNL     1      23.729  -0.892  54.424  1.00  0.00    -0.010 C 
HETATM   22  C2  UNL     1      23.012  -0.100  53.666  1.00  0.00    -0.014 C 
BRANCH  22  23
HETATM   23  C1  UNL     1      21.717  -0.513  53.042  1.00  0.00     0.141 C 
HETATM   24 CL1  UNL     1      20.834  -1.576  54.169  1.00  0.00    -0.126 Cl
ENDBRANCH  22  23
ENDBRANCH  20  21
ENDBRANCH  18  20
ENDBRANCH   1  18
TORSDOF 7
ENDMDL
MODEL 2
REMARK VINA RESULT:      -6.6      3.536      5.628
REMARK  7 active torsions:
REMARK  status: ('A' for Active; 'I' for Inactive)
REMARK    1  A    between atoms: C1_2  and  C2_3 
REMARK    2  A    between atoms: C3_4  and  C4_5 
REMARK    3  A    between atoms: C4_5  and  N1_6 
REMARK    4  A    between atoms: N1_6  and  C5_7 
REMARK    5  A    between atoms: C10_14  and  C11_15 
REMARK    6  A    between atoms: C11_15  and  N4_16 
REMARK    7  A    between atoms: N4_16  and  C12_17 
ROOT
HETATM    1  C5  UNL     1      21.349  -0.423  54.364  1.00  0.00     0.137 A 
HETATM    2  N2  UNL     1      21.773  -1.316  55.278  1.00  0.00    -0.224 NA
HETATM    3  C6  UNL     1      23.109  -1.575  55.400  1.00  0.00     0.236 A 
HETATM    4  N3  UNL     1      24.022  -0.961  54.631  1.00  0.00    -0.241 NA
HETATM    5  C7  UNL     1      23.704  -0.059  53.695  1.00  0.00     0.080 A 
HETATM    6  C8  UNL     1      22.350   0.163  53.614  1.00  0.00     0.040 A 
HETATM    7  C9  UNL     1      22.670   1.112  52.556  1.00  0.00     0.029 A 
HETATM    8  C10 UNL     1      23.993   0.896  52.635  1.00  0.00     0.001 A 
ENDROOT
BRANCH   8   9
HETATM    9  C11 UNL     1      25.164   1.448  51.922  1.00  0.00     0.311 C 
BRANCH   9  10
HETATM   10  N4  UNL     1      26.159   1.852  52.849  1.00  0.00     0.096 N 
HETATM   11  H12 UNL     1      26.178   2.894  52.889  1.00  0.00     0.316 HD
BRANCH  10  12
HETATM   12  C12 UNL     1      27.487   1.402  52.628  1.00  0.00     0.268 C 
HETATM   13  C13 UNL     1      27.661  -0.090  52.766  1.00  0.00     0.208 C 
HETATM   14  O1  UNL     1      27.285  -0.541  54.030  1.00  0.00    -0.365 OA
HETATM   15  C14 UNL     1      27.702   0.327  55.035  1.00  0.00     0.337 C 
HETATM   16  O2  UNL     1      28.816   1.069  54.624  1.00  0.00    -0.365 OA
HETATM   17  C15 UNL     1      28.367   2.016  53.717  1.00  0.00     0.208 C 
ENDBRANCH  10  12
ENDBRANCH   9  10
ENDBRANCH   8   9
BRANCH   1  18
HETATM   18  N1  UNL     1      19.979  -0.092  54.175  1.00  0.00    -0.371 N 
HETATM   19  H7  UNL     1      19.612   0.747  54.669  1.00  0.00     0.161 HD
BRANCH  18  20
HETATM   20  C4  UNL     1      19.169  -0.935  53.311  1.00  0.00     0.148 C 
BRANCH  20  21
HETATM   21  C3  UNL     1      18.742  -0.108  52.141  1.00  0.00    -0.010 C 
HETATM   22  C2  UNL     1      19.331   0.395  51.085  1.00  0.00    -0.014 C 
BRANCH  22  23
HETATM   23  C1  UNL     1      18.612   1.207  50.054  1.00  0.00     0.141 C 
HETATM   24 CL1  UNL     1      18.332   2.850  50.690  1.00  0.00    -0.126 Cl
ENDBRANCH  22  23
ENDBRANCH  20  21
ENDBRANCH  18  20
ENDBRANCH   1  18
TORSDOF 7
ENDMDL
MODEL 3
REMARK VINA RESULT:      -6.4      2.873      4.577
REMARK  7 active torsions:
REMARK  status: ('A' for Active; 'I' for Inactive)
REMARK    1  A    between atoms: C1_2  and  C2_3 
REMARK    2  A    between atoms: C3_4  and  C4_5 
REMARK    3  A    between atoms: C4_5  and  N1_6 
REMARK    4  A    between atoms: N1_6  and  C5_7 
REMARK    5  A    between atoms: C10_14  and  C11_15 
REMARK    6  A    between atoms: C11_15  and  N4_16 
REMARK    7  A    between atoms: N4_16  and  C12_17 
ROOT
HETATM    1  C5  UNL     1      23.842  -0.171  53.347  1.00  0.00     0.137 A 
HETATM    2  N2  UNL     1      22.664  -0.795  53.163  1.00  0.00    -0.224 NA
HETATM    3  C6  UNL     1      21.578  -0.078  52.746  1.00  0.00     0.236 A 
HETATM    4  N3  UNL     1      21.649   1.242  52.511  1.00  0.00    -0.241 NA
HETATM    5  C7  UNL     1      22.771   1.954  52.665  1.00  0.00     0.080 A 
HETATM    6  C8  UNL     1      23.831   1.186  53.086  1.00  0.00     0.040 A 
HETATM    7  C9  UNL     1      24.609   2.417  53.048  1.00  0.00     0.029 A 
HETATM    8  C10 UNL     1      23.574   3.168  52.637  1.00  0.00     0.001 A 
ENDROOT
BRANCH   8   9
HETATM    9  C11 UNL     1      23.417   4.600  52.309  1.00  0.00     0.311 C 
BRANCH   9  10
HETATM   10  N4  UNL     1      24.542   5.064  51.579  1.00  0.00     0.096 N 
HETATM   11  H12 UNL     1      24.916   5.918  52.046  1.00  0.00     0.316 HD
BRANCH  10  12
HETATM   12  C12 UNL     1      24.357   5.367  50.205  1.00  0.00     0.268 C 
HETATM   13  C13 UNL     1      24.213   4.152  49.322  1.00  0.00     0.208 C 
HETATM   14  O1  UNL     1      25.324   3.315  49.407  1.00  0.00    -0.365 OA
HETATM   15  C14 UNL     1      26.515   4.037  49.449  1.00  0.00     0.337 C 
HETATM   16  O2  UNL     1      26.359   5.291  48.847  1.00  0.00    -0.365 OA
HETATM   17  C15 UNL     1      25.620   6.076  49.717  1.00  0.00     0.208 C 
ENDBRANCH  10  12
ENDBRANCH   9  10
ENDBRANCH   8   9
BRANCH   1  18
HETATM   18  N1  UNL     1      25.021  -0.841  53.775  1.00  0.00    -0.371 N 
HETATM   19  H7  UNL     1      25.441  -1.540  53.129  1.00  0.00     0.161 HD
BRANCH  18  20
HETATM   20  C4  UNL     1      25.573  -0.521  55.081  1.00  0.00     0.148 C 
BRANCH  20  21
HETATM   21  C3  UNL     1      26.971  -0.034  54.876  1.00  0.00    -0.010 C 
HETATM   22  C2  UNL     1      27.674   0.395  53.857  1.00  0.00    -0.014 C 
BRANCH  22  23
HETATM   23  C1  UNL     1      29.102   0.829  53.971  1.00  0.00     0.141 C 
HETATM   24 CL1  UNL     1      30.165  -0.507  53.458  1.00  0.00    -0.126 Cl
ENDBRANCH  22  23
ENDBRANCH  20  21
ENDBRANCH  18  20
ENDBRANCH   1  18
TORSDOF 7
ENDMDL
MODEL 4
REMARK VINA RESULT:      -6.3      3.524      6.449
REMARK  7 active torsions:
REMARK  status: ('A' for Active; 'I' for Inactive)
REMARK    1  A    between atoms: C1_2  and  C2_3 
REMARK    2  A    between atoms: C3_4  and  C4_5 
REMARK    3  A    between atoms: C4_5  and  N1_6 
REMARK    4  A    between atoms: N1_6  and  C5_7 
REMARK    5  A    between atoms: C10_14  and  C11_15 
REMARK    6  A    between atoms: C11_15  and  N4_16 
REMARK    7  A    between atoms: N4_16  and  C12_17 
ROOT
HETATM    1  C5  UNL     1      21.580   1.898  52.423  1.00  0.00     0.137 A 
HETATM    2  N2  UNL     1      20.436   1.492  53.005  1.00  0.00    -0.224 NA
HETATM    3  C6  UNL     1      20.464   0.462  53.903  1.00  0.00     0.236 A 
HETATM    4  N3  UNL     1      21.606  -0.164  54.227  1.00  0.00    -0.241 NA
HETATM    5  C7  UNL     1      22.794   0.163  53.704  1.00  0.00     0.080 A 
HETATM    6  C8  UNL     1      22.710   1.203  52.809  1.00  0.00     0.040 A 
HETATM    7  C9  UNL     1      24.151   1.057  52.655  1.00  0.00     0.029 A 
HETATM    8  C10 UNL     1      24.234   0.041  53.530  1.00  0.00     0.001 A 
ENDROOT
BRANCH   8   9
HETATM    9  C11 UNL     1      25.353  -0.777  54.045  1.00  0.00     0.311 C 
BRANCH   9  10
HETATM   10  N4  UNL     1      26.438   0.056  54.424  1.00  0.00     0.096 N 
HETATM   11  H12 UNL     1      26.173   1.050  54.251  1.00  0.00     0.316 HD
BRANCH  10  12
HETATM   12  C12 UNL     1      27.692  -0.173  53.801  1.00  0.00     0.268 C 
HETATM   13  C13 UNL     1      28.878   0.236  54.641  1.00  0.00     0.208 C 
HETATM   14  O1  UNL     1      28.833   1.587  54.979  1.00  0.00    -0.365 OA
HETATM   15  C14 UNL     1      28.402   2.373  53.913  1.00  0.00     0.337 C 
HETATM   16  O2  UNL     1      28.666   1.745  52.690  1.00  0.00    -0.365 OA
HETATM   17  C15 UNL     1      27.755   0.709  52.555  1.00  0.00     0.208 C 
ENDBRANCH  10  12
ENDBRANCH   9  10
ENDBRANCH   8   9
BRANCH   1  18
HETATM   18  N1  UNL     1      21.640   2.963  51.482  1.00  0.00    -0.371 N 
HETATM   19  H7  UNL     1      21.366   2.756  50.500  1.00  0.00     0.161 HD
BRANCH  18  20
HETATM   20  C4  UNL     1      22.079   4.273  51.936  1.00  0.00     0.148 C 
BRANCH  20  21
HETATM   21  C3  UNL     1      23.455   4.502  51.400  1.00  0.00    -0.010 C 
HETATM   22  C2  UNL     1      24.124   4.118  50.341  1.00  0.00    -0.014 C 
BRANCH  22  23
HETATM   23  C1  UNL     1      25.537   4.529  50.071  1.00  0.00     0.141 C 
HETATM   24 CL1  UNL     1      26.542   3.071  49.854  1.00  0.00    -0.126 Cl
ENDBRANCH  22  23
ENDBRANCH  20  21
ENDBRANCH  18  20
ENDBRANCH   1  18
TORSDOF 7
ENDMDL
MODEL 5
REMARK VINA RESULT:      -6.3      3.295      5.767
REMARK  7 active torsions:
REMARK  status: ('A' for Active; 'I' for Inactive)
REMARK    1  A    between atoms: C1_2  and  C2_3 
REMARK    2  A    between atoms: C3_4  and  C4_5 
REMARK    3  A    between atoms: C4_5  and  N1_6 
REMARK    4  A    between atoms: N1_6  and  C5_7 
REMARK    5  A    between atoms: C10_14  and  C11_15 
REMARK    6  A    between atoms: C11_15  and  N4_16 
REMARK    7  A    between atoms: N4_16  and  C12_17 
ROOT
HETATM    1  C5  UNL     1      22.508   3.355  51.414  1.00  0.00     0.137 A 
HETATM    2  N2  UNL     1      22.426   3.708  50.117  1.00  0.00    -0.224 NA
HETATM    3  C6  UNL     1      23.544   3.660  49.333  1.00  0.00     0.236 A 
HETATM    4  N3  UNL     1      24.733   3.268  49.818  1.00  0.00    -0.241 NA
HETATM    5  C7  UNL     1      24.919   2.898  51.091  1.00  0.00     0.080 A 
HETATM    6  C8  UNL     1      23.764   2.965  51.835  1.00  0.00     0.040 A 
HETATM    7  C9  UNL     1      24.574   2.494  52.950  1.00  0.00     0.029 A 
HETATM    8  C10 UNL     1      25.702   2.428  52.224  1.00  0.00     0.001 A 
ENDROOT
BRANCH   8   9
HETATM    9  C11 UNL     1      27.092   2.024  52.527  1.00  0.00     0.311 C 
BRANCH   9  10
HETATM   10  N4  UNL     1      27.261   0.634  52.296  1.00  0.00     0.096 N 
HETATM   11  H12 UNL     1      26.626   0.343  51.523  1.00  0.00     0.316 HD
BRANCH  10  12
HETATM   12  C12 UNL     1      27.047  -0.245  53.389  1.00  0.00     0.268 C 
HETATM   13  C13 UNL     1      27.958   0.005  54.566  1.00  0.00     0.208 C 
HETATM   14  O1  UNL     1      29.301  -0.105  54.214  1.00  0.00    -0.365 OA
HETATM   15  C14 UNL     1      29.525  -1.170  53.346  1.00  0.00     0.337 C 
HETATM   16  O2  UNL     1      28.537  -2.151  53.495  1.00  0.00    -0.365 OA
HETATM   17  C15 UNL     1      27.379  -1.659  52.912  1.00  0.00     0.208 C 
ENDBRANCH  10  12
ENDBRANCH   9  10
ENDBRANCH   8   9
BRANCH   1  18
HETATM   18  N1  UNL     1      21.394   3.373  52.298  1.00  0.00    -0.371 N 
HETATM   19  H7  UNL     1      21.384   4.093  53.048  1.00  0.00     0.161 HD
BRANCH  18  20
HETATM   20  C4  UNL     1      20.337   2.392  52.110  1.00  0.00     0.148 C 
BRANCH  20  21
HETATM   21  C3  UNL     1      20.479   1.360  53.182  1.00  0.00    -0.010 C 
HETATM   22  C2  UNL     1      21.448   0.601  53.629  1.00  0.00    -0.014 C 
BRANCH  22  23
HETATM   23  C1  UNL     1      21.277  -0.367  54.757  1.00  0.00     0.141 C 
HETATM   24 CL1  UNL     1      22.811  -1.237  55.023  1.00  0.00    -0.126 Cl
ENDBRANCH  22  23
ENDBRANCH  20  21
ENDBRANCH  18  20
ENDBRANCH   1  18
TORSDOF 7
ENDMDL
MODEL 6
REMARK VINA RESULT:      -6.2      3.710      5.229
REMARK  7 active torsions:
REMARK  status: ('A' for Active; 'I' for Inactive)
REMARK    1  A    between atoms: C1_2  and  C2_3 
REMARK    2  A    between atoms: C3_4  and  C4_5 
REMARK    3  A    between atoms: C4_5  and  N1_6 
REMARK    4  A    between atoms: N1_6  and  C5_7 
REMARK    5  A    between atoms: C10_14  and  C11_15 
REMARK    6  A    between atoms: C11_15  and  N4_16 
REMARK    7  A    between atoms: N4_16  and  C12_17 
ROOT
HETATM    1  C5  UNL     1      24.614   2.444  51.583  1.00  0.00     0.137 A 
HETATM    2  N2  UNL     1      23.543   3.122  52.037  1.00  0.00    -0.224 NA
HETATM    3  C6  UNL     1      23.341   4.412  51.635  1.00  0.00     0.236 A 
HETATM    4  N3  UNL     1      24.185   5.032  50.794  1.00  0.00    -0.241 NA
HETATM    5  C7  UNL     1      25.276   4.447  50.289  1.00  0.00     0.080 A 
HETATM    6  C8  UNL     1      25.432   3.152  50.724  1.00  0.00     0.040 A 
HETATM    7  C9  UNL     1      26.635   3.126  49.904  1.00  0.00     0.029 A 
HETATM    8  C10 UNL     1      26.484   4.391  49.477  1.00  0.00     0.001 A 
ENDROOT
BRANCH   8   9
HETATM    9  C11 UNL     1      27.254   5.262  48.565  1.00  0.00     0.311 C 
BRANCH   9  10
HETATM   10  N4  UNL     1      27.492   6.522  49.172  1.00  0.00     0.096 N 
HETATM   11  H12 UNL     1      27.547   6.391  50.205  1.00  0.00     0.316 HD
BRANCH  10  12
HETATM   12  C12 UNL     1      26.563   7.563  48.915  1.00  0.00     0.268 C 
HETATM   13  C13 UNL     1      27.084   8.637  47.991  1.00  0.00     0.208 C 
HETATM   14  O1  UNL     1      28.237   9.237  48.492  1.00  0.00    -0.365 OA
HETATM   15  C14 UNL     1      28.156   9.448  49.866  1.00  0.00     0.337 C 
HETATM   16  O2  UNL     1      26.822   9.547  50.278  1.00  0.00    -0.365 OA
HETATM   17  C15 UNL     1      26.285   8.269  50.242  1.00  0.00     0.208 C 
ENDBRANCH  10  12
ENDBRANCH   9  10
ENDBRANCH   8   9
BRANCH   1  18
HETATM   18  N1  UNL     1      24.895   1.098  51.947  1.00  0.00    -0.371 N 
HETATM   19  H7  UNL     1      25.095   0.423  51.182  1.00  0.00     0.161 HD
BRANCH  18  20
HETATM   20  C4  UNL     1      24.890   0.739  53.356  1.00  0.00     0.148 C 
BRANCH  20  21
HETATM   21  C3  UNL     1      26.299   0.809  53.849  1.00  0.00    -0.010 C 
HETATM   22  C2  UNL     1      27.219  -0.061  54.184  1.00  0.00    -0.014 C 
BRANCH  22  23
HETATM   23  C1  UNL     1      28.584   0.329  54.656  1.00  0.00     0.141 C 
HETATM   24 CL1  UNL     1      29.809  -0.452  53.622  1.00  0.00    -0.126 Cl
ENDBRANCH  22  23
ENDBRANCH  20  21
ENDBRANCH  18  20
ENDBRANCH   1  18
TORSDOF 7
ENDMDL
MODEL 7
REMARK VINA RESULT:      -6.2      4.036      6.444
REMARK  7 active torsions:
REMARK  status: ('A' for Active; 'I' for Inactive)
REMARK    1  A    between atoms: C1_2  and  C2_3 
REMARK    2  A    between atoms: C3_4  and  C4_5 
REMARK    3  A    between atoms: C4_5  and  N1_6 
REMARK    4  A    between atoms: N1_6  and  C5_7 
REMARK    5  A    between atoms: C10_14  and  C11_15 
REMARK    6  A    between atoms: C11_15  and  N4_16 
REMARK    7  A    between atoms: N4_16  and  C12_17 
ROOT
HETATM    1  C5  UNL     1      20.412   0.884  52.556  1.00  0.00     0.137 A 
HETATM    2  N2  UNL     1      20.058  -0.168  53.317  1.00  0.00    -0.224 NA
HETATM    3  C6  UNL     1      20.991  -0.769  54.114  1.00  0.00     0.236 A 
HETATM    4  N3  UNL     1      22.262  -0.341  54.164  1.00  0.00    -0.241 NA
HETATM    5  C7  UNL     1      22.714   0.695  53.446  1.00  0.00     0.080 A 
HETATM    6  C8  UNL     1      21.737   1.262  52.663  1.00  0.00     0.040 A 
HETATM    7  C9  UNL     1      22.768   2.191  52.223  1.00  0.00     0.029 A 
HETATM    8  C10 UNL     1      23.724   1.638  52.988  1.00  0.00     0.001 A 
ENDROOT
BRANCH   8   9
HETATM    9  C11 UNL     1      25.154   1.936  53.214  1.00  0.00     0.311 C 
BRANCH   9  10
HETATM   10  N4  UNL     1      25.960   0.875  52.728  1.00  0.00     0.096 N 
HETATM   11  H12 UNL     1      25.581   0.559  51.809  1.00  0.00     0.316 HD
BRANCH  10  12
HETATM   12  C12 UNL     1      26.108  -0.271  53.552  1.00  0.00     0.268 C 
HETATM   13  C13 UNL     1      26.515   0.042  54.971  1.00  0.00     0.208 C 
HETATM   14  O1  UNL     1      27.721   0.738  55.023  1.00  0.00    -0.365 OA
HETATM   15  C14 UNL     1      28.643   0.246  54.103  1.00  0.00     0.337 C 
HETATM   16  O2  UNL     1      28.373  -1.091  53.792  1.00  0.00    -0.365 OA
HETATM   17  C15 UNL     1      27.252  -1.106  52.977  1.00  0.00     0.208 C 
ENDBRANCH  10  12
ENDBRANCH   9  10
ENDBRANCH   8   9
BRANCH   1  18
HETATM   18  N1  UNL     1      19.504   1.569  51.703  1.00  0.00    -0.371 N 
HETATM   19  H7  UNL     1      19.100   2.464  52.047  1.00  0.00     0.161 HD
BRANCH  18  20
HETATM   20  C4  UNL     1      19.189   0.990  50.407  1.00  0.00     0.148 C 
BRANCH  20  21
HETATM   21  C3  UNL     1      20.401   1.124  49.543  1.00  0.00    -0.010 C 
HETATM   22  C2  UNL     1      20.891   2.046  48.752  1.00  0.00    -0.014 C 
BRANCH  22  23
HETATM   23  C1  UNL     1      22.171   1.882  47.995  1.00  0.00     0.141 C 
HETATM   24 CL1  UNL     1      23.433   2.893  48.748  1.00  0.00    -0.126 Cl
ENDBRANCH  22  23
ENDBRANCH  20  21
ENDBRANCH  18  20
ENDBRANCH   1  18
TORSDOF 7
ENDMDL
MODEL 8
REMARK VINA RESULT:      -6.1      1.929      2.400
REMARK  7 active torsions:
REMARK  status: ('A' for Active; 'I' for Inactive)
REMARK    1  A    between atoms: C1_2  and  C2_3 
REMARK    2  A    between atoms: C3_4  and  C4_5 
REMARK    3  A    between atoms: C4_5  and  N1_6 
REMARK    4  A    between atoms: N1_6  and  C5_7 
REMARK    5  A    between atoms: C10_14  and  C11_15 
REMARK    6  A    between atoms: C11_15  and  N4_16 
REMARK    7  A    between atoms: N4_16  and  C12_17 
ROOT
HETATM    1  C5  UNL     1      26.542   0.164  53.090  1.00  0.00     0.137 A 
HETATM    2  N2  UNL     1      27.662   0.252  53.831  1.00  0.00    -0.224 NA
HETATM    3  C6  UNL     1      28.515   1.303  53.643  1.00  0.00     0.236 A 
HETATM    4  N3  UNL     1      28.269   2.261  52.735  1.00  0.00    -0.241 NA
HETATM    5  C7  UNL     1      27.186   2.264  51.949  1.00  0.00     0.080 A 
HETATM    6  C8  UNL     1      26.363   1.187  52.179  1.00  0.00     0.040 A 
HETATM    7  C9  UNL     1      25.508   1.745  51.139  1.00  0.00     0.029 A 
HETATM    8  C10 UNL     1      26.311   2.798  50.915  1.00  0.00     0.001 A 
ENDROOT
BRANCH   8   9
HETATM    9  C11 UNL     1      26.246   3.958  50.001  1.00  0.00     0.311 C 
BRANCH   9  10
HETATM   10  N4  UNL     1      25.648   5.066  50.655  1.00  0.00     0.096 N 
HETATM   11  H12 UNL     1      25.129   4.722  51.491  1.00  0.00     0.316 HD
BRANCH  10  12
HETATM   12  C12 UNL     1      24.763   5.877  49.898  1.00  0.00     0.268 C 
HETATM   13  C13 UNL     1      25.380   6.464  48.653  1.00  0.00     0.208 C 
HETATM   14  O1  UNL     1      26.496   7.245  48.946  1.00  0.00    -0.365 OA
HETATM   15  C14 UNL     1      26.300   8.022  50.086  1.00  0.00     0.337 C 
HETATM   16  O2  UNL     1      24.938   8.259  50.300  1.00  0.00    -0.365 OA
HETATM   17  C15 UNL     1      24.384   7.077  50.767  1.00  0.00     0.208 C 
ENDBRANCH  10  12
ENDBRANCH   9  10
ENDBRANCH   8   9
BRANCH   1  18
HETATM   18  N1  UNL     1      25.600  -0.893  53.224  1.00  0.00    -0.371 N 
HETATM   19  H7  UNL     1      25.683  -1.700  52.572  1.00  0.00     0.161 HD
BRANCH  18  20
HETATM   20  C4  UNL     1      24.578  -0.793  54.253  1.00  0.00     0.148 C 
BRANCH  20  21
HETATM   21  C3  UNL     1      23.363  -0.185  53.631  1.00  0.00    -0.010 C 
HETATM   22  C2  UNL     1      22.097  -0.509  53.536  1.00  0.00    -0.014 C 
BRANCH  22  23
HETATM   23  C1  UNL     1      21.087   0.334  52.824  1.00  0.00     0.141 C 
HETATM   24 CL1  UNL     1      21.281   0.124  51.064  1.00  0.00    -0.126 Cl
ENDBRANCH  22  23
ENDBRANCH  20  21
ENDBRANCH  18  20
ENDBRANCH   1  18
TORSDOF 7
ENDMDL
MODEL 9
REMARK VINA RESULT:      -6.1      2.855      4.554
REMARK  7 active torsions:
REMARK  status: ('A' for Active; 'I' for Inactive)
REMARK    1  A    between atoms: C1_2  and  C2_3 
REMARK    2  A    between atoms: C3_4  and  C4_5 
REMARK    3  A    between atoms: C4_5  and  N1_6 
REMARK    4  A    between atoms: N1_6  and  C5_7 
REMARK    5  A    between atoms: C10_14  and  C11_15 
REMARK    6  A    between atoms: C11_15  and  N4_16 
REMARK    7  A    between atoms: N4_16  and  C12_17 
ROOT
HETATM    1  C5  UNL     1      24.048  -0.217  53.390  1.00  0.00     0.137 A 
HETATM    2  N2  UNL     1      22.912  -0.879  53.100  1.00  0.00    -0.224 NA
HETATM    3  C6  UNL     1      21.843  -0.195  52.595  1.00  0.00     0.236 A 
HETATM    4  N3  UNL     1      21.888   1.129  52.377  1.00  0.00    -0.241 NA
HETATM    5  C7  UNL     1      22.968   1.877  52.633  1.00  0.00     0.080 A 
HETATM    6  C8  UNL     1      24.013   1.140  53.138  1.00  0.00     0.040 A 
HETATM    7  C9  UNL     1      24.749   2.397  53.177  1.00  0.00     0.029 A 
HETATM    8  C10 UNL     1      23.728   3.117  52.683  1.00  0.00     0.001 A 
ENDROOT
BRANCH   8   9
HETATM    9  C11 UNL     1      23.550   4.547  52.352  1.00  0.00     0.311 C 
BRANCH   9  10
HETATM   10  N4  UNL     1      24.497   4.946  51.374  1.00  0.00     0.096 N 
HETATM   11  H12 UNL     1      25.077   5.720  51.764  1.00  0.00     0.316 HD
BRANCH  10  12
HETATM   12  C12 UNL     1      24.002   5.369  50.113  1.00  0.00     0.268 C 
HETATM   13  C13 UNL     1      24.894   6.359  49.404  1.00  0.00     0.208 C 
HETATM   14  O1  UNL     1      25.101   7.508  50.165  1.00  0.00    -0.365 OA
HETATM   15  C14 UNL     1      23.936   7.921  50.807  1.00  0.00     0.337 C 
HETATM   16  O2  UNL     1      22.802   7.472  50.121  1.00  0.00    -0.365 OA
HETATM   17  C15 UNL     1      22.689   6.111  50.360  1.00  0.00     0.208 C 
ENDBRANCH  10  12
ENDBRANCH   9  10
ENDBRANCH   8   9
BRANCH   1  18
HETATM   18  N1  UNL     1      25.208  -0.852  53.914  1.00  0.00    -0.371 N 
HETATM   19  H7  UNL     1      25.217  -1.079  54.930  1.00  0.00     0.161 HD
BRANCH  18  20
HETATM   20  C4  UNL     1      26.310  -1.149  53.014  1.00  0.00     0.148 C 
BRANCH  20  21
HETATM   21  C3  UNL     1      27.408  -0.177  53.303  1.00  0.00    -0.010 C 
HETATM   22  C2  UNL     1      28.665  -0.264  53.662  1.00  0.00    -0.014 C 
BRANCH  22  23
HETATM   23  C1  UNL     1      29.538   0.931  53.882  1.00  0.00     0.141 C 
HETATM   24 CL1  UNL     1      28.587   2.414  53.604  1.00  0.00    -0.126 Cl
ENDBRANCH  22  23
ENDBRANCH  20  21
ENDBRANCH  18  20
ENDBRANCH   1  18
TORSDOF 7
ENDMDL
