MODEL 1
REMARK VINA RESULT:      -9.6      0.000      0.000
REMARK  5 active torsions:
REMARK  status: ('A' for Active; 'I' for Inactive)
REMARK    1  A    between atoms: N1_5  and  C5_6 
REMARK    2  A    between atoms: C8_9  and  N2_10 
REMARK    3  A    between atoms: C16_21  and  O1_22 
REMARK    4  A    between atoms: O1_22  and  C17_23 
REMARK    5  A    between atoms: C17_23  and  C18_24 
ROOT
HETATM    1  C5  UNL     1      23.755   2.695  51.315  1.00  0.00     0.204 A 
HETATM    2  C6  UNL     1      22.593   2.998  50.329  1.00  0.00     0.011 A 
HETATM    3  C7  UNL     1      21.371   2.445  50.060  1.00  0.00     0.051 A 
HETATM    4  C8  UNL     1      20.459   3.013  49.101  1.00  0.00     0.112 C 
HETATM    5  N3  UNL     1      20.027   4.230  48.995  1.00  0.00    -0.226 NA
HETATM    6  C9  UNL     1      20.451   5.248  49.916  1.00  0.00     0.257 C 
HETATM    7  N4  UNL     1      21.057   5.820  50.928  1.00  0.00    -0.166 NA
HETATM    8  N5  UNL     1      21.855   4.997  51.728  1.00  0.00    -0.283 N 
HETATM    9  C10 UNL     1      21.019   3.943  52.291  1.00  0.00     0.092 C 
HETATM   10  C11 UNL     1      20.995   2.754  51.589  1.00  0.00     0.061 A 
HETATM   11  C12 UNL     1      22.115   1.514  51.212  1.00  0.00     0.021 A 
HETATM   12  C13 UNL     1      20.850   1.247  50.682  1.00  0.00     0.009 A 
HETATM   13  C14 UNL     1      21.099   0.166  51.564  1.00  0.00     0.038 A 
HETATM   14  C15 UNL     1      22.020  -0.364  52.451  1.00  0.00     0.017 A 
HETATM   15  C16 UNL     1      23.242   0.219  52.745  1.00  0.00     0.072 A 
HETATM   16  C24 UNL     1      23.349   1.430  51.969  1.00  0.00     0.006 A 
HETATM   17  C25 UNL     1      23.285   5.096  52.006  1.00  0.00     0.153 C 
HETATM   18  C26 UNL     1      23.892   3.763  52.339  1.00  0.00     0.072 C 
ENDROOT
BRANCH  15  19
HETATM   19  O1  UNL     1      24.458   0.405  53.308  1.00  0.00    -0.347 OA
BRANCH  19  20
HETATM   20  C17 UNL     1      25.050  -0.505  54.164  1.00  0.00     0.214 C 
BRANCH  20  21
HETATM   21  C18 UNL     1      26.516  -0.581  53.957  1.00  0.00    -0.034 A 
HETATM   22  C19 UNL     1      27.213   0.226  54.865  1.00  0.00     0.009 A 
HETATM   23  C20 UNL     1      28.602   0.306  54.843  1.00  0.00     0.001 A 
HETATM   24  C21 UNL     1      29.348  -0.414  53.914  1.00  0.00     0.000 A 
HETATM   25  C22 UNL     1      28.625  -1.195  53.037  1.00  0.00     0.001 A 
HETATM   26  C23 UNL     1      27.252  -1.285  53.047  1.00  0.00     0.009 A 
ENDBRANCH  20  21
ENDBRANCH  19  20
ENDBRANCH  15  19
BRANCH   1  27
HETATM   27  N1  UNL     1      24.885   2.654  50.463  1.00  0.00     0.110 N 
HETATM   28  C2  UNL     1      26.144   2.178  50.852  1.00  0.00     0.222 C 
HETATM   29  C1  UNL     1      26.779   2.575  52.138  1.00  0.00     0.043 C 
HETATM   30  C3  UNL     1      26.753   3.050  49.733  1.00  0.00     0.066 C 
HETATM   31  C4  UNL     1      25.477   3.867  50.030  1.00  0.00     0.277 C 
ENDBRANCH   1  27
BRANCH   4  32
HETATM   32  N2  UNL     1      19.933   2.153  48.100  1.00  0.00    -0.386 N 
HETATM   33  H10 UNL     1      19.644   2.373  47.139  1.00  0.00     0.157 HD
HETATM   34  H11 UNL     1      19.769   1.143  48.225  1.00  0.00     0.157 HD
ENDBRANCH   4  32
TORSDOF 5
ENDMDL
MODEL 2
REMARK VINA RESULT:      -9.4      1.414      3.818
REMARK  5 active torsions:
REMARK  status: ('A' for Active; 'I' for Inactive)
REMARK    1  A    between atoms: N1_5  and  C5_6 
REMARK    2  A    between atoms: C8_9  and  N2_10 
REMARK    3  A    between atoms: C16_21  and  O1_22 
REMARK    4  A    between atoms: O1_22  and  C17_23 
REMARK    5  A    between atoms: C17_23  and  C18_24 
ROOT
HETATM    1  C5  UNL     1      22.398   1.375  51.971  1.00  0.00     0.204 A 
HETATM    2  C6  UNL     1      21.905   2.809  51.632  1.00  0.00     0.011 A 
HETATM    3  C7  UNL     1      22.494   3.968  51.205  1.00  0.00     0.051 A 
HETATM    4  C8  UNL     1      21.736   5.155  50.904  1.00  0.00     0.112 C 
HETATM    5  N3  UNL     1      20.699   5.299  50.140  1.00  0.00    -0.226 NA
HETATM    6  C9  UNL     1      20.137   4.178  49.437  1.00  0.00     0.257 C 
HETATM    7  N4  UNL     1      19.974   2.953  49.000  1.00  0.00    -0.166 NA
HETATM    8  N5  UNL     1      20.906   2.004  49.429  1.00  0.00    -0.283 N 
HETATM    9  C10 UNL     1      22.232   2.424  48.993  1.00  0.00     0.092 C 
HETATM   10  C11 UNL     1      22.969   3.145  49.912  1.00  0.00     0.061 A 
HETATM   11  C12 UNL     1      23.687   2.841  51.438  1.00  0.00     0.021 A 
HETATM   12  C13 UNL     1      23.916   4.151  51.010  1.00  0.00     0.009 A 
HETATM   13  C14 UNL     1      25.210   3.588  51.132  1.00  0.00     0.038 A 
HETATM   14  C15 UNL     1      25.902   2.436  51.465  1.00  0.00     0.017 A 
HETATM   15  C16 UNL     1      25.299   1.254  51.865  1.00  0.00     0.072 A 
HETATM   16  C24 UNL     1      23.872   1.467  51.864  1.00  0.00     0.006 A 
HETATM   17  C25 UNL     1      20.682   0.779  50.191  1.00  0.00     0.153 C 
HETATM   18  C26 UNL     1      21.890   0.380  50.991  1.00  0.00     0.072 C 
ENDROOT
BRANCH  15  19
HETATM   19  O1  UNL     1      25.164  -0.027  52.275  1.00  0.00    -0.347 OA
BRANCH  19  20
HETATM   20  C17 UNL     1      25.595  -0.484  53.508  1.00  0.00     0.214 C 
BRANCH  20  21
HETATM   21  C18 UNL     1      27.069  -0.412  53.635  1.00  0.00    -0.034 A 
HETATM   22  C19 UNL     1      27.696  -1.528  53.065  1.00  0.00     0.009 A 
HETATM   23  C20 UNL     1      29.081  -1.664  53.079  1.00  0.00     0.001 A 
HETATM   24  C21 UNL     1      29.892  -0.695  53.661  1.00  0.00     0.000 A 
HETATM   25  C22 UNL     1      29.237   0.387  54.211  1.00  0.00     0.001 A 
HETATM   26  C23 UNL     1      27.870   0.537  54.205  1.00  0.00     0.009 A 
ENDBRANCH  20  21
ENDBRANCH  19  20
ENDBRANCH  15  19
BRANCH   1  27
HETATM   27  N1  UNL     1      21.851   1.152  53.257  1.00  0.00     0.110 N 
HETATM   28  C2  UNL     1      22.109   0.015  54.034  1.00  0.00     0.222 C 
HETATM   29  C1  UNL     1      22.057  -1.360  53.468  1.00  0.00     0.043 C 
HETATM   30  C3  UNL     1      20.773   0.281  54.760  1.00  0.00     0.066 C 
HETATM   31  C4  UNL     1      20.457   0.930  53.394  1.00  0.00     0.277 C 
ENDBRANCH   1  27
BRANCH   4  32
HETATM   32  N2  UNL     1      22.142   6.371  51.515  1.00  0.00    -0.386 N 
HETATM   33  H10 UNL     1      23.090   6.720  51.702  1.00  0.00     0.157 HD
HETATM   34  H11 UNL     1      21.495   7.094  51.865  1.00  0.00     0.157 HD
ENDBRANCH   4  32
TORSDOF 5
ENDMDL
MODEL 3
REMARK VINA RESULT:      -8.6      1.647      3.962
REMARK  5 active torsions:
REMARK  status: ('A' for Active; 'I' for Inactive)
REMARK    1  A    between atoms: N1_5  and  C5_6 
REMARK    2  A    between atoms: C8_9  and  N2_10 
REMARK    3  A    between atoms: C16_21  and  O1_22 
REMARK    4  A    between atoms: O1_22  and  C17_23 
REMARK    5  A    between atoms: C17_23  and  C18_24 
ROOT
HETATM    1  C5  UNL     1      21.630   1.853  51.238  1.00  0.00     0.204 A 
HETATM    2  C6  UNL     1      21.419   3.328  50.797  1.00  0.00     0.011 A 
HETATM    3  C7  UNL     1      22.089   4.506  50.980  1.00  0.00     0.051 A 
HETATM    4  C8  UNL     1      21.665   5.740  50.368  1.00  0.00     0.112 C 
HETATM    5  N3  UNL     1      21.386   5.992  49.128  1.00  0.00    -0.226 NA
HETATM    6  C9  UNL     1      21.480   4.965  48.126  1.00  0.00     0.257 C 
HETATM    7  N4  UNL     1      21.703   3.797  47.575  1.00  0.00    -0.166 NA
HETATM    8  N5  UNL     1      22.161   2.782  48.420  1.00  0.00    -0.283 N 
HETATM    9  C10 UNL     1      23.424   3.205  49.013  1.00  0.00     0.092 C 
HETATM   10  C11 UNL     1      23.336   3.806  50.253  1.00  0.00     0.061 A 
HETATM   11  C12 UNL     1      22.881   3.328  51.834  1.00  0.00     0.021 A 
HETATM   12  C13 UNL     1      23.276   4.667  51.793  1.00  0.00     0.009 A 
HETATM   13  C14 UNL     1      24.191   4.057  52.685  1.00  0.00     0.038 A 
HETATM   14  C15 UNL     1      24.542   2.857  53.280  1.00  0.00     0.017 A 
HETATM   15  C16 UNL     1      23.880   1.658  53.065  1.00  0.00     0.072 A 
HETATM   16  C24 UNL     1      22.801   1.912  52.141  1.00  0.00     0.006 A 
HETATM   17  C25 UNL     1      21.546   1.492  48.722  1.00  0.00     0.153 C 
HETATM   18  C26 UNL     1      21.942   0.979  50.077  1.00  0.00     0.072 C 
ENDROOT
BRANCH  15  19
HETATM   19  O1  UNL     1      23.566   0.346  53.158  1.00  0.00    -0.347 OA
BRANCH  19  20
HETATM   20  C17 UNL     1      24.150  -0.515  54.069  1.00  0.00     0.214 C 
BRANCH  20  21
HETATM   21  C18 UNL     1      25.628  -0.406  54.058  1.00  0.00    -0.034 A 
HETATM   22  C19 UNL     1      26.189  -1.034  52.939  1.00  0.00     0.009 A 
HETATM   23  C20 UNL     1      27.566  -1.054  52.735  1.00  0.00     0.001 A 
HETATM   24  C21 UNL     1      28.434  -0.450  53.639  1.00  0.00     0.000 A 
HETATM   25  C22 UNL     1      27.843   0.157  54.728  1.00  0.00     0.001 A 
HETATM   26  C23 UNL     1      26.485   0.186  54.943  1.00  0.00     0.009 A 
ENDBRANCH  20  21
ENDBRANCH  19  20
ENDBRANCH  15  19
BRANCH   1  27
HETATM   27  N1  UNL     1      20.381   1.516  51.811  1.00  0.00     0.110 N 
HETATM   28  C2  UNL     1      20.211   0.550  52.812  1.00  0.00     0.222 C 
HETATM   29  C1  UNL     1      20.853  -0.791  52.736  1.00  0.00     0.043 C 
HETATM   30  C3  UNL     1      18.749   0.404  52.340  1.00  0.00     0.066 C 
HETATM   31  C4  UNL     1      19.400   0.868  51.019  1.00  0.00     0.277 C 
ENDBRANCH   1  27
BRANCH   4  32
HETATM   32  N2  UNL     1      21.511   6.875  51.209  1.00  0.00    -0.386 N 
HETATM   33  H10 UNL     1      21.676   6.964  52.219  1.00  0.00     0.157 HD
HETATM   34  H11 UNL     1      21.196   7.802  50.886  1.00  0.00     0.157 HD
ENDBRANCH   4  32
TORSDOF 5
ENDMDL
MODEL 4
REMARK VINA RESULT:      -8.5      1.427      2.007
REMARK  5 active torsions:
REMARK  status: ('A' for Active; 'I' for Inactive)
REMARK    1  A    between atoms: N1_5  and  C5_6 
REMARK    2  A    between atoms: C8_9  and  N2_10 
REMARK    3  A    between atoms: C16_21  and  O1_22 
REMARK    4  A    between atoms: O1_22  and  C17_23 
REMARK    5  A    between atoms: C17_23  and  C18_24 
ROOT
HETATM    1  C5  UNL     1      23.986   3.905  50.222  1.00  0.00     0.204 A 
HETATM    2  C6  UNL     1      22.987   4.558  49.227  1.00  0.00     0.011 A 
HETATM    3  C7  UNL     1      21.735   4.259  48.763  1.00  0.00     0.051 A 
HETATM    4  C8  UNL     1      21.016   5.125  47.865  1.00  0.00     0.112 C 
HETATM    5  N3  UNL     1      20.769   6.394  47.964  1.00  0.00    -0.226 NA
HETATM    6  C9  UNL     1      21.231   7.150  49.096  1.00  0.00     0.257 C 
HETATM    7  N4  UNL     1      21.800   7.429  50.244  1.00  0.00    -0.166 NA
HETATM    8  N5  UNL     1      22.389   6.361  50.928  1.00  0.00    -0.283 N 
HETATM    9  C10 UNL     1      21.361   5.366  51.209  1.00  0.00     0.092 C 
HETATM   10  C11 UNL     1      21.247   4.342  50.290  1.00  0.00     0.061 A 
HETATM   11  C12 UNL     1      22.218   3.031  49.766  1.00  0.00     0.021 A 
HETATM   12  C13 UNL     1      20.991   3.064  49.099  1.00  0.00     0.009 A 
HETATM   13  C14 UNL     1      20.995   1.817  49.770  1.00  0.00     0.038 A 
HETATM   14  C15 UNL     1      21.735   0.998  50.606  1.00  0.00     0.017 A 
HETATM   15  C16 UNL     1      22.989   1.321  51.101  1.00  0.00     0.072 A 
HETATM   16  C24 UNL     1      23.343   2.621  50.586  1.00  0.00     0.006 A 
HETATM   17  C25 UNL     1      23.781   6.185  51.329  1.00  0.00     0.153 C 
HETATM   18  C26 UNL     1      24.160   4.736  51.442  1.00  0.00     0.072 C 
ENDROOT
BRANCH  15  19
HETATM   19  O1  UNL     1      24.153   1.212  51.781  1.00  0.00    -0.347 OA
BRANCH  19  20
HETATM   20  C17 UNL     1      24.258   0.612  53.023  1.00  0.00     0.214 C 
BRANCH  20  21
HETATM   21  C18 UNL     1      25.668   0.333  53.380  1.00  0.00    -0.034 A 
HETATM   22  C19 UNL     1      26.236  -0.637  52.543  1.00  0.00     0.009 A 
HETATM   23  C20 UNL     1      27.554  -1.052  52.708  1.00  0.00     0.001 A 
HETATM   24  C21 UNL     1      28.355  -0.517  53.712  1.00  0.00     0.000 A 
HETATM   25  C22 UNL     1      27.760   0.434  54.514  1.00  0.00     0.001 A 
HETATM   26  C23 UNL     1      26.459   0.855  54.364  1.00  0.00     0.009 A 
ENDBRANCH  20  21
ENDBRANCH  19  20
ENDBRANCH  15  19
BRANCH   1  27
HETATM   27  N1  UNL     1      25.182   3.843  49.469  1.00  0.00     0.110 N 
HETATM   28  C2  UNL     1      26.258   2.998  49.771  1.00  0.00     0.222 C 
HETATM   29  C1  UNL     1      26.792   2.858  51.153  1.00  0.00     0.043 C 
HETATM   30  C3  UNL     1      27.169   3.983  49.007  1.00  0.00     0.066 C 
HETATM   31  C4  UNL     1      26.060   4.957  49.460  1.00  0.00     0.277 C 
ENDBRANCH   1  27
BRANCH   4  32
HETATM   32  N2  UNL     1      20.484   4.553  46.679  1.00  0.00    -0.386 N 
HETATM   33  H10 UNL     1      20.953   4.352  45.787  1.00  0.00     0.157 HD
HETATM   34  H11 UNL     1      19.505   4.251  46.563  1.00  0.00     0.157 HD
ENDBRANCH   4  32
TORSDOF 5
ENDMDL
MODEL 5
REMARK VINA RESULT:      -8.4      6.841      8.981
REMARK  5 active torsions:
REMARK  status: ('A' for Active; 'I' for Inactive)
REMARK    1  A    between atoms: N1_5  and  C5_6 
REMARK    2  A    between atoms: C8_9  and  N2_10 
REMARK    3  A    between atoms: C16_21  and  O1_22 
REMARK    4  A    between atoms: O1_22  and  C17_23 
REMARK    5  A    between atoms: C17_23  and  C18_24 
ROOT
HETATM    1  C5  UNL     1      29.120   8.231  47.156  1.00  0.00     0.204 A 
HETATM    2  C6  UNL     1      27.668   8.784  47.160  1.00  0.00     0.011 A 
HETATM    3  C7  UNL     1      26.454   8.337  47.604  1.00  0.00     0.051 A 
HETATM    4  C8  UNL     1      25.259   9.135  47.522  1.00  0.00     0.112 C 
HETATM    5  N3  UNL     1      25.051  10.352  47.915  1.00  0.00    -0.226 NA
HETATM    6  C9  UNL     1      26.095  11.114  48.543  1.00  0.00     0.257 C 
HETATM    7  N4  UNL     1      27.264  11.417  49.053  1.00  0.00    -0.166 NA
HETATM    8  N5  UNL     1      28.235  10.412  49.038  1.00  0.00    -0.283 N 
HETATM    9  C10 UNL     1      27.736   9.273  49.802  1.00  0.00     0.092 C 
HETATM   10  C11 UNL     1      27.110   8.285  49.068  1.00  0.00     0.061 A 
HETATM   11  C12 UNL     1      27.572   7.144  47.876  1.00  0.00     0.021 A 
HETATM   12  C13 UNL     1      26.217   7.037  48.196  1.00  0.00     0.009 A 
HETATM   13  C14 UNL     1      26.760   5.774  48.536  1.00  0.00     0.038 A 
HETATM   14  C15 UNL     1      27.926   5.029  48.565  1.00  0.00     0.017 A 
HETATM   15  C16 UNL     1      29.161   5.499  48.144  1.00  0.00     0.072 A 
HETATM   16  C24 UNL     1      28.982   6.856  47.691  1.00  0.00     0.006 A 
HETATM   17  C25 UNL     1      29.545  10.411  48.395  1.00  0.00     0.153 C 
HETATM   18  C26 UNL     1      30.006   9.024  48.048  1.00  0.00     0.072 C 
ENDROOT
BRANCH  15  19
HETATM   19  O1  UNL     1      30.484   5.520  47.867  1.00  0.00    -0.347 OA
BRANCH  19  20
HETATM   20  C17 UNL     1      31.462   5.718  48.824  1.00  0.00     0.214 C 
BRANCH  20  21
HETATM   21  C18 UNL     1      32.738   5.066  48.448  1.00  0.00    -0.034 A 
HETATM   22  C19 UNL     1      32.527   3.849  47.788  1.00  0.00     0.009 A 
HETATM   23  C20 UNL     1      33.594   3.069  47.351  1.00  0.00     0.001 A 
HETATM   24  C21 UNL     1      34.909   3.473  47.556  1.00  0.00     0.000 A 
HETATM   25  C22 UNL     1      35.075   4.676  48.209  1.00  0.00     0.001 A 
HETATM   26  C23 UNL     1      34.032   5.458  48.647  1.00  0.00     0.009 A 
ENDBRANCH  20  21
ENDBRANCH  19  20
ENDBRANCH  15  19
BRANCH   1  27
HETATM   27  N1  UNL     1      29.504   8.367  45.801  1.00  0.00     0.110 N 
HETATM   28  C2  UNL     1      30.694   7.855  45.266  1.00  0.00     0.222 C 
HETATM   29  C1  UNL     1      32.006   8.028  45.945  1.00  0.00     0.043 C 
HETATM   30  C3  UNL     1      30.587   8.927  44.160  1.00  0.00     0.066 C 
HETATM   31  C4  UNL     1      29.827   9.651  45.293  1.00  0.00     0.277 C 
ENDBRANCH   1  27
BRANCH   4  32
HETATM   32  N2  UNL     1      24.112   8.547  46.922  1.00  0.00    -0.386 N 
HETATM   33  H10 UNL     1      23.888   7.555  46.782  1.00  0.00     0.157 HD
HETATM   34  H11 UNL     1      23.320   9.079  46.532  1.00  0.00     0.157 HD
ENDBRANCH   4  32
TORSDOF 5
ENDMDL
MODEL 6
REMARK VINA RESULT:      -8.1      2.048      2.747
REMARK  5 active torsions:
REMARK  status: ('A' for Active; 'I' for Inactive)
REMARK    1  A    between atoms: N1_5  and  C5_6 
REMARK    2  A    between atoms: C8_9  and  N2_10 
REMARK    3  A    between atoms: C16_21  and  O1_22 
REMARK    4  A    between atoms: O1_22  and  C17_23 
REMARK    5  A    between atoms: C17_23  and  C18_24 
ROOT
HETATM    1  C5  UNL     1      24.536   4.998  50.411  1.00  0.00     0.204 A 
HETATM    2  C6  UNL     1      23.708   5.073  49.098  1.00  0.00     0.011 A 
HETATM    3  C7  UNL     1      22.787   4.275  48.478  1.00  0.00     0.051 A 
HETATM    4  C8  UNL     1      22.124   4.662  47.259  1.00  0.00     0.112 C 
HETATM    5  N3  UNL     1      21.491   5.757  46.977  1.00  0.00    -0.226 NA
HETATM    6  C9  UNL     1      21.368   6.811  47.947  1.00  0.00     0.257 C 
HETATM    7  N4  UNL     1      21.482   7.465  49.077  1.00  0.00    -0.166 NA
HETATM    8  N5  UNL     1      22.146   6.811  50.118  1.00  0.00    -0.283 N 
HETATM    9  C10 UNL     1      21.428   5.580  50.426  1.00  0.00     0.092 C 
HETATM   10  C11 UNL     1      21.888   4.440  49.797  1.00  0.00     0.061 A 
HETATM   11  C12 UNL     1      23.313   3.490  49.839  1.00  0.00     0.021 A 
HETATM   12  C13 UNL     1      22.372   2.970  48.947  1.00  0.00     0.009 A 
HETATM   13  C14 UNL     1      22.560   1.941  49.902  1.00  0.00     0.038 A 
HETATM   14  C15 UNL     1      23.246   1.595  51.054  1.00  0.00     0.017 A 
HETATM   15  C16 UNL     1      24.153   2.421  51.697  1.00  0.00     0.072 A 
HETATM   16  C24 UNL     1      24.231   3.653  50.950  1.00  0.00     0.006 A 
HETATM   17  C25 UNL     1      23.356   7.212  50.829  1.00  0.00     0.153 C 
HETATM   18  C26 UNL     1      24.104   6.034  51.386  1.00  0.00     0.072 C 
ENDROOT
BRANCH  15  19
HETATM   19  O1  UNL     1      25.056   2.850  52.608  1.00  0.00    -0.347 OA
BRANCH  19  20
HETATM   20  C17 UNL     1      25.365   2.155  53.763  1.00  0.00     0.214 C 
BRANCH  20  21
HETATM   21  C18 UNL     1      26.304   1.039  53.498  1.00  0.00    -0.034 A 
HETATM   22  C19 UNL     1      27.629   1.395  53.782  1.00  0.00     0.009 A 
HETATM   23  C20 UNL     1      28.674   0.494  53.599  1.00  0.00     0.001 A 
HETATM   24  C21 UNL     1      28.438  -0.793  53.125  1.00  0.00     0.000 A 
HETATM   25  C22 UNL     1      27.122  -1.103  52.856  1.00  0.00     0.001 A 
HETATM   26  C23 UNL     1      26.077  -0.225  53.032  1.00  0.00     0.009 A 
ENDBRANCH  20  21
ENDBRANCH  19  20
ENDBRANCH  15  19
BRANCH   1  27
HETATM   27  N1  UNL     1      25.857   5.236  49.962  1.00  0.00     0.110 N 
HETATM   28  C2  UNL     1      26.238   6.349  49.200  1.00  0.00     0.222 C 
HETATM   29  C1  UNL     1      25.456   6.806  48.019  1.00  0.00     0.043 C 
HETATM   30  C3  UNL     1      27.429   5.512  48.685  1.00  0.00     0.066 C 
HETATM   31  C4  UNL     1      26.431   4.375  48.994  1.00  0.00     0.277 C 
ENDBRANCH   1  27
BRANCH   4  32
HETATM   32  N2  UNL     1      22.144   3.743  46.176  1.00  0.00    -0.386 N 
HETATM   33  H10 UNL     1      21.396   3.501  45.514  1.00  0.00     0.157 HD
HETATM   34  H11 UNL     1      22.960   3.175  45.906  1.00  0.00     0.157 HD
ENDBRANCH   4  32
TORSDOF 5
ENDMDL
MODEL 7
REMARK VINA RESULT:      -8.1      2.689      3.907
REMARK  5 active torsions:
REMARK  status: ('A' for Active; 'I' for Inactive)
REMARK    1  A    between atoms: N1_5  and  C5_6 
REMARK    2  A    between atoms: C8_9  and  N2_10 
REMARK    3  A    between atoms: C16_21  and  O1_22 
REMARK    4  A    between atoms: O1_22  and  C17_23 
REMARK    5  A    between atoms: C17_23  and  C18_24 
ROOT
HETATM    1  C5  UNL     1      23.708   4.110  49.454  1.00  0.00     0.204 A 
HETATM    2  C6  UNL     1      23.054   4.789  48.218  1.00  0.00     0.011 A 
HETATM    3  C7  UNL     1      21.977   4.528  47.416  1.00  0.00     0.051 A 
HETATM    4  C8  UNL     1      21.572   5.413  46.354  1.00  0.00     0.112 C 
HETATM    5  N3  UNL     1      21.349   6.689  46.384  1.00  0.00    -0.226 NA
HETATM    6  C9  UNL     1      21.495   7.437  47.603  1.00  0.00     0.257 C 
HETATM    7  N4  UNL     1      21.723   7.703  48.865  1.00  0.00    -0.166 NA
HETATM    8  N5  UNL     1      22.058   6.621  49.685  1.00  0.00    -0.283 N 
HETATM    9  C10 UNL     1      20.960   5.662  49.659  1.00  0.00     0.092 C 
HETATM   10  C11 UNL     1      21.078   4.636  48.741  1.00  0.00     0.061 A 
HETATM   11  C12 UNL     1      22.114   3.291  48.511  1.00  0.00     0.021 A 
HETATM   12  C13 UNL     1      21.129   3.360  47.522  1.00  0.00     0.009 A 
HETATM   13  C14 UNL     1      20.901   2.118  48.163  1.00  0.00     0.038 A 
HETATM   14  C15 UNL     1      21.346   1.281  49.172  1.00  0.00     0.017 A 
HETATM   15  C16 UNL     1      22.417   1.565  50.004  1.00  0.00     0.072 A 
HETATM   16  C24 UNL     1      22.945   2.850  49.615  1.00  0.00     0.006 A 
HETATM   17  C25 UNL     1      23.272   6.402  50.464  1.00  0.00     0.153 C 
HETATM   18  C26 UNL     1      23.555   4.942  50.675  1.00  0.00     0.072 C 
ENDROOT
BRANCH  15  19
HETATM   19  O1  UNL     1      23.335   1.422  50.986  1.00  0.00    -0.347 OA
BRANCH  19  20
HETATM   20  C17 UNL     1      23.095   1.746  52.309  1.00  0.00     0.214 C 
BRANCH  20  21
HETATM   21  C18 UNL     1      22.303   0.698  52.995  1.00  0.00    -0.034 A 
HETATM   22  C19 UNL     1      23.117  -0.172  53.731  1.00  0.00     0.009 A 
HETATM   23  C20 UNL     1      22.575  -1.234  54.450  1.00  0.00     0.001 A 
HETATM   24  C21 UNL     1      21.204  -1.467  54.462  1.00  0.00     0.000 A 
HETATM   25  C22 UNL     1      20.437  -0.589  53.726  1.00  0.00     0.001 A 
HETATM   26  C23 UNL     1      20.957   0.465  53.010  1.00  0.00     0.009 A 
ENDBRANCH  20  21
ENDBRANCH  19  20
ENDBRANCH  15  19
BRANCH   1  27
HETATM   27  N1  UNL     1      25.066   4.005  49.071  1.00  0.00     0.110 N 
HETATM   28  C2  UNL     1      26.003   3.189  49.719  1.00  0.00     0.222 C 
HETATM   29  C1  UNL     1      26.128   3.149  51.201  1.00  0.00     0.043 C 
HETATM   30  C3  UNL     1      27.104   4.125  49.175  1.00  0.00     0.066 C 
HETATM   31  C4  UNL     1      25.925   5.121  49.232  1.00  0.00     0.277 C 
ENDBRANCH   1  27
BRANCH   4  32
HETATM   32  N2  UNL     1      21.381   4.850  45.063  1.00  0.00    -0.386 N 
HETATM   33  H10 UNL     1      20.810   5.195  44.282  1.00  0.00     0.157 HD
HETATM   34  H11 UNL     1      21.819   3.977  44.736  1.00  0.00     0.157 HD
ENDBRANCH   4  32
TORSDOF 5
ENDMDL
MODEL 8
REMARK VINA RESULT:      -8.0      2.034      4.205
REMARK  5 active torsions:
REMARK  status: ('A' for Active; 'I' for Inactive)
REMARK    1  A    between atoms: N1_5  and  C5_6 
REMARK    2  A    between atoms: C8_9  and  N2_10 
REMARK    3  A    between atoms: C16_21  and  O1_22 
REMARK    4  A    between atoms: O1_22  and  C17_23 
REMARK    5  A    between atoms: C17_23  and  C18_24 
ROOT
HETATM    1  C5  UNL     1      21.432   2.620  50.580  1.00  0.00     0.204 A 
HETATM    2  C6  UNL     1      20.532   3.601  49.778  1.00  0.00     0.011 A 
HETATM    3  C7  UNL     1      20.488   4.956  49.596  1.00  0.00     0.051 A 
HETATM    4  C8  UNL     1      19.545   5.586  48.708  1.00  0.00     0.112 C 
HETATM    5  N3  UNL     1      19.277   5.323  47.467  1.00  0.00    -0.226 NA
HETATM    6  C9  UNL     1      19.964   4.270  46.770  1.00  0.00     0.257 C 
HETATM    7  N4  UNL     1      20.797   3.286  46.536  1.00  0.00    -0.166 NA
HETATM    8  N5  UNL     1      21.640   2.913  47.587  1.00  0.00    -0.283 N 
HETATM    9  C10 UNL     1      22.456   4.063  47.959  1.00  0.00     0.092 C 
HETATM   10  C11 UNL     1      21.973   4.834  48.998  1.00  0.00     0.061 A 
HETATM   11  C12 UNL     1      21.700   4.623  50.676  1.00  0.00     0.021 A 
HETATM   12  C13 UNL     1      21.355   5.910  50.254  1.00  0.00     0.009 A 
HETATM   13  C14 UNL     1      22.377   6.115  51.213  1.00  0.00     0.038 A 
HETATM   14  C15 UNL     1      23.243   5.471  52.079  1.00  0.00     0.017 A 
HETATM   15  C16 UNL     1      23.308   4.095  52.236  1.00  0.00     0.072 A 
HETATM   16  C24 UNL     1      22.330   3.507  51.354  1.00  0.00     0.006 A 
HETATM   17  C25 UNL     1      21.750   1.623  48.262  1.00  0.00     0.153 C 
HETATM   18  C26 UNL     1      22.240   1.761  49.674  1.00  0.00     0.072 C 
ENDROOT
BRANCH  15  19
HETATM   19  O1  UNL     1      23.704   2.886  52.696  1.00  0.00    -0.347 OA
BRANCH  19  20
HETATM   20  C17 UNL     1      24.887   2.680  53.380  1.00  0.00     0.214 C 
BRANCH  20  21
HETATM   21  C18 UNL     1      25.506   1.381  53.028  1.00  0.00    -0.034 A 
HETATM   22  C19 UNL     1      25.198   0.386  53.965  1.00  0.00     0.009 A 
HETATM   23  C20 UNL     1      25.683  -0.912  53.827  1.00  0.00     0.001 A 
HETATM   24  C21 UNL     1      26.492  -1.265  52.752  1.00  0.00     0.000 A 
HETATM   25  C22 UNL     1      26.772  -0.258  51.853  1.00  0.00     0.001 A 
HETATM   26  C23 UNL     1      26.301   1.029  51.974  1.00  0.00     0.009 A 
ENDBRANCH  20  21
ENDBRANCH  19  20
ENDBRANCH  15  19
BRANCH   1  27
HETATM   27  N1  UNL     1      20.489   1.853  51.305  1.00  0.00     0.110 N 
HETATM   28  C2  UNL     1      20.825   0.976  52.345  1.00  0.00     0.222 C 
HETATM   29  C1  UNL     1      21.945   0.004  52.232  1.00  0.00     0.043 C 
HETATM   30  C3  UNL     1      19.510   0.222  52.053  1.00  0.00     0.066 C 
HETATM   31  C4  UNL     1      19.786   0.810  50.652  1.00  0.00     0.277 C 
ENDBRANCH   1  27
BRANCH   4  32
HETATM   32  N2  UNL     1      18.763   6.654  49.225  1.00  0.00    -0.386 N 
HETATM   33  H10 UNL     1      19.070   7.546  49.633  1.00  0.00     0.157 HD
HETATM   34  H11 UNL     1      17.733   6.664  49.254  1.00  0.00     0.157 HD
ENDBRANCH   4  32
TORSDOF 5
ENDMDL
MODEL 9
REMARK VINA RESULT:      -7.7      8.134     11.652
REMARK  5 active torsions:
REMARK  status: ('A' for Active; 'I' for Inactive)
REMARK    1  A    between atoms: N1_5  and  C5_6 
REMARK    2  A    between atoms: C8_9  and  N2_10 
REMARK    3  A    between atoms: C16_21  and  O1_22 
REMARK    4  A    between atoms: O1_22  and  C17_23 
REMARK    5  A    between atoms: C17_23  and  C18_24 
ROOT
HETATM    1  C5  UNL     1      30.716   8.835  46.950  1.00  0.00     0.204 A 
HETATM    2  C6  UNL     1      32.256   8.943  47.136  1.00  0.00     0.011 A 
HETATM    3  C7  UNL     1      33.262   8.077  47.462  1.00  0.00     0.051 A 
HETATM    4  C8  UNL     1      34.646   8.475  47.490  1.00  0.00     0.112 C 
HETATM    5  N3  UNL     1      35.347   9.085  46.586  1.00  0.00    -0.226 NA
HETATM    6  C9  UNL     1      34.762   9.467  45.330  1.00  0.00     0.257 C 
HETATM    7  N4  UNL     1      33.874   9.609  44.376  1.00  0.00    -0.166 NA
HETATM    8  N5  UNL     1      32.606   9.072  44.614  1.00  0.00    -0.283 N 
HETATM    9  C10 UNL     1      32.743   7.637  44.838  1.00  0.00     0.092 C 
HETATM   10  C11 UNL     1      32.845   7.241  46.157  1.00  0.00     0.061 A 
HETATM   11  C12 UNL     1      31.829   7.249  47.537  1.00  0.00     0.021 A 
HETATM   12  C13 UNL     1      33.076   6.686  47.817  1.00  0.00     0.009 A 
HETATM   13  C14 UNL     1      32.153   5.644  48.075  1.00  0.00     0.038 A 
HETATM   14  C15 UNL     1      30.809   5.314  48.069  1.00  0.00     0.017 A 
HETATM   15  C16 UNL     1      29.794   6.186  47.705  1.00  0.00     0.072 A 
HETATM   16  C24 UNL     1      30.403   7.445  47.356  1.00  0.00     0.006 A 
HETATM   17  C25 UNL     1      31.315   9.752  44.655  1.00  0.00     0.153 C 
HETATM   18  C26 UNL     1      30.325   9.038  45.531  1.00  0.00     0.072 C 
ENDROOT
BRANCH  15  19
HETATM   19  O1  UNL     1      28.551   6.652  47.452  1.00  0.00    -0.347 OA
BRANCH  19  20
HETATM   20  C17 UNL     1      27.620   6.920  48.440  1.00  0.00     0.214 C 
BRANCH  20  21
HETATM   21  C18 UNL     1      26.838   5.715  48.799  1.00  0.00    -0.034 A 
HETATM   22  C19 UNL     1      25.460   5.970  48.804  1.00  0.00     0.009 A 
HETATM   23  C20 UNL     1      24.542   4.973  49.120  1.00  0.00     0.001 A 
HETATM   24  C21 UNL     1      24.961   3.687  49.444  1.00  0.00     0.000 A 
HETATM   25  C22 UNL     1      26.324   3.476  49.429  1.00  0.00     0.001 A 
HETATM   26  C23 UNL     1      27.245   4.450  49.118  1.00  0.00     0.009 A 
ENDBRANCH  20  21
ENDBRANCH  19  20
ENDBRANCH  15  19
BRANCH   1  27
HETATM   27  N1  UNL     1      30.228   9.879  47.771  1.00  0.00     0.110 N 
HETATM   28  C2  UNL     1      30.638  11.215  47.669  1.00  0.00     0.222 C 
HETATM   29  C1  UNL     1      32.071  11.598  47.554  1.00  0.00     0.043 C 
HETATM   30  C3  UNL     1      30.214  11.396  49.142  1.00  0.00     0.066 C 
HETATM   31  C4  UNL     1      30.546   9.887  49.153  1.00  0.00     0.277 C 
ENDBRANCH   1  27
BRANCH   4  32
HETATM   32  N2  UNL     1      35.394   8.184  48.662  1.00  0.00    -0.386 N 
HETATM   33  H10 UNL     1      35.080   8.139  49.640  1.00  0.00     0.157 HD
HETATM   34  H11 UNL     1      36.403   7.970  48.674  1.00  0.00     0.157 HD
ENDBRANCH   4  32
TORSDOF 5
ENDMDL
