MODEL 1
REMARK VINA RESULT:      -7.1      0.000      0.000
REMARK  6 active torsions:
REMARK  status: ('A' for Active; 'I' for Inactive)
REMARK    1  A    between atoms: C2_2  and  C4_4 
REMARK    2  A    between atoms: C9_9  and  N1_10 
REMARK    3  A    between atoms: N1_10  and  C10_11 
REMARK    4  A    between atoms: C11_13  and  N3_14 
REMARK    5  A    between atoms: C13_17  and  C14_18 
REMARK    6  A    between atoms: C15_19  and  N5_20 
ROOT
HETATM    1  C10 UNL     1      26.763   1.475  52.459  1.00  0.00     0.159 A 
HETATM    2  N2  UNL     1      27.940   1.975  52.853  1.00  0.00    -0.044 NA
HETATM    3  C11 UNL     1      28.512   1.703  54.026  1.00  0.00     0.721 A 
HETATM    4  N4  UNL     1      27.922   0.891  54.892  1.00  0.00    -0.074 NA
HETATM    5  C12 UNL     1      26.721   0.329  54.591  1.00  0.00     0.151 A 
HETATM    6  C13 UNL     1      26.160   0.639  53.362  1.00  0.00     0.030 A 
ENDROOT
BRANCH   1   7
HETATM    7  N1  UNL     1      26.197   1.793  51.212  1.00  0.00    -0.339 N 
HETATM    8  H12 UNL     1      25.898   1.004  50.657  1.00  0.00     0.167 HD
BRANCH   7   9
HETATM    9  C9  UNL     1      25.978   3.048  50.611  1.00  0.00     0.040 A 
HETATM   10  C4  UNL     1      24.893   3.837  50.970  1.00  0.00    -0.028 A 
HETATM   11  C5  UNL     1      24.678   5.067  50.387  1.00  0.00     0.010 A 
HETATM   12  C6  UNL     1      25.520   5.572  49.427  1.00  0.00     0.001 A 
HETATM   13  C7  UNL     1      26.611   4.824  49.038  1.00  0.00     0.002 A 
HETATM   14  C8  UNL     1      26.790   3.601  49.645  1.00  0.00     0.030 A 
BRANCH  10  15
HETATM   15  C2  UNL     1      23.901   3.410  51.991  1.00  0.00     0.013 C 
HETATM   16  C1  UNL     1      23.345   4.679  52.635  1.00  0.00     0.015 C 
HETATM   17  C3  UNL     1      22.688   2.767  51.302  1.00  0.00     0.015 C 
ENDBRANCH  10  15
ENDBRANCH   7   9
ENDBRANCH   1   7
BRANCH   6  18
HETATM   18  C14 UNL     1      24.890   0.004  53.114  1.00  0.00     0.033 C 
HETATM   19  C15 UNL     1      23.654  -0.141  53.504  1.00  0.00     0.081 C 
BRANCH  19  20
HETATM   20  N5  UNL     1      22.588  -0.937  52.947  1.00  0.00    -0.408 N 
HETATM   21  H18 UNL     1      21.717  -1.382  53.358  1.00  0.00     0.155 HD
HETATM   22  H19 UNL     1      22.377  -1.289  51.965  1.00  0.00     0.155 HD
ENDBRANCH  19  20
ENDBRANCH   6  18
BRANCH   3  23
HETATM   23  N3  UNL     1      29.755   2.343  54.230  1.00  0.00    -0.231 N 
HETATM   24  H13 UNL     1      30.125   2.780  53.349  1.00  0.00     0.174 HD
HETATM   25  H14 UNL     1      30.208   2.352  55.161  1.00  0.00     0.174 HD
ENDBRANCH   3  23
TORSDOF 6
ENDMDL
MODEL 2
REMARK VINA RESULT:      -7.0      2.476      3.335
REMARK  6 active torsions:
REMARK  status: ('A' for Active; 'I' for Inactive)
REMARK    1  A    between atoms: C2_2  and  C4_4 
REMARK    2  A    between atoms: C9_9  and  N1_10 
REMARK    3  A    between atoms: N1_10  and  C10_11 
REMARK    4  A    between atoms: C11_13  and  N3_14 
REMARK    5  A    between atoms: C13_17  and  C14_18 
REMARK    6  A    between atoms: C15_19  and  N5_20 
ROOT
HETATM    1  C10 UNL     1      24.761   0.400  53.302  1.00  0.00     0.159 A 
HETATM    2  N2  UNL     1      26.035   0.706  53.569  1.00  0.00    -0.044 NA
HETATM    3  C11 UNL     1      26.712   0.236  54.617  1.00  0.00     0.721 A 
HETATM    4  N4  UNL     1      26.135  -0.591  55.478  1.00  0.00    -0.074 NA
HETATM    5  C12 UNL     1      24.841  -0.966  55.299  1.00  0.00     0.151 A 
HETATM    6  C13 UNL     1      24.172  -0.454  54.198  1.00  0.00     0.030 A 
ENDROOT
BRANCH   1   7
HETATM    7  N1  UNL     1      24.086   0.921  52.184  1.00  0.00    -0.339 N 
HETATM    8  H12 UNL     1      24.190   0.395  51.329  1.00  0.00     0.167 HD
BRANCH   7   9
HETATM    9  C9  UNL     1      23.281   2.071  52.069  1.00  0.00     0.040 A 
HETATM   10  C4  UNL     1      22.056   2.028  51.414  1.00  0.00    -0.028 A 
HETATM   11  C5  UNL     1      21.264   3.150  51.303  1.00  0.00     0.010 A 
HETATM   12  C6  UNL     1      21.641   4.360  51.832  1.00  0.00     0.001 A 
HETATM   13  C7  UNL     1      22.848   4.450  52.491  1.00  0.00     0.002 A 
HETATM   14  C8  UNL     1      23.610   3.307  52.580  1.00  0.00     0.030 A 
BRANCH  10  15
HETATM   15  C2  UNL     1      21.530   0.785  50.792  1.00  0.00     0.013 C 
HETATM   16  C1  UNL     1      20.084   0.626  51.262  1.00  0.00     0.015 C 
HETATM   17  C3  UNL     1      21.419   0.971  49.271  1.00  0.00     0.015 C 
ENDBRANCH  10  15
ENDBRANCH   7   9
ENDBRANCH   1   7
BRANCH   6  18
HETATM   18  C14 UNL     1      22.806  -0.899  54.076  1.00  0.00     0.033 C 
HETATM   19  C15 UNL     1      21.608  -0.880  54.589  1.00  0.00     0.081 C 
BRANCH  19  20
HETATM   20  N5  UNL     1      20.389  -1.504  54.136  1.00  0.00    -0.408 N 
HETATM   21  H18 UNL     1      19.689  -1.273  53.374  1.00  0.00     0.155 HD
HETATM   22  H19 UNL     1      19.861  -2.377  54.439  1.00  0.00     0.155 HD
ENDBRANCH  19  20
ENDBRANCH   6  18
BRANCH   3  23
HETATM   23  N3  UNL     1      28.047   0.693  54.701  1.00  0.00    -0.231 N 
HETATM   24  H13 UNL     1      28.109   1.660  55.108  1.00  0.00     0.174 HD
HETATM   25  H14 UNL     1      28.837   0.104  54.385  1.00  0.00     0.174 HD
ENDBRANCH   3  23
TORSDOF 6
ENDMDL
MODEL 3
REMARK VINA RESULT:      -6.9      2.486      4.857
REMARK  6 active torsions:
REMARK  status: ('A' for Active; 'I' for Inactive)
REMARK    1  A    between atoms: C2_2  and  C4_4 
REMARK    2  A    between atoms: C9_9  and  N1_10 
REMARK    3  A    between atoms: N1_10  and  C10_11 
REMARK    4  A    between atoms: C11_13  and  N3_14 
REMARK    5  A    between atoms: C13_17  and  C14_18 
REMARK    6  A    between atoms: C15_19  and  N5_20 
ROOT
HETATM    1  C10 UNL     1      23.118  -0.114  53.374  1.00  0.00     0.159 A 
HETATM    2  N2  UNL     1      21.802  -0.349  53.406  1.00  0.00    -0.044 NA
HETATM    3  C11 UNL     1      21.204  -1.130  54.307  1.00  0.00     0.721 A 
HETATM    4  N4  UNL     1      21.911  -1.732  55.252  1.00  0.00    -0.074 NA
HETATM    5  C12 UNL     1      23.258  -1.560  55.311  1.00  0.00     0.151 A 
HETATM    6  C13 UNL     1      23.841  -0.742  54.355  1.00  0.00     0.030 A 
ENDROOT
BRANCH   1   7
HETATM    7  N1  UNL     1      23.704   0.717  52.403  1.00  0.00    -0.339 N 
HETATM    8  H12 UNL     1      24.437   0.292  51.853  1.00  0.00     0.167 HD
BRANCH   7   9
HETATM    9  C9  UNL     1      23.426   2.057  52.072  1.00  0.00     0.040 A 
HETATM   10  C4  UNL     1      22.698   2.381  50.934  1.00  0.00    -0.028 A 
HETATM   11  C5  UNL     1      22.421   3.691  50.609  1.00  0.00     0.010 A 
HETATM   12  C6  UNL     1      22.848   4.737  51.389  1.00  0.00     0.001 A 
HETATM   13  C7  UNL     1      23.574   4.465  52.530  1.00  0.00     0.002 A 
HETATM   14  C8  UNL     1      23.829   3.143  52.818  1.00  0.00     0.030 A 
BRANCH  10  15
HETATM   15  C2  UNL     1      22.181   1.347  49.999  1.00  0.00     0.013 C 
HETATM   16  C1  UNL     1      20.707   1.130  50.341  1.00  0.00     0.015 C 
HETATM   17  C3  UNL     1      22.164   1.902  48.567  1.00  0.00     0.015 C 
ENDBRANCH  10  15
ENDBRANCH   7   9
ENDBRANCH   1   7
BRANCH   6  18
HETATM   18  C14 UNL     1      25.270  -0.607  54.483  1.00  0.00     0.033 C 
HETATM   19  C15 UNL     1      26.255   0.089  54.979  1.00  0.00     0.081 C 
BRANCH  19  20
HETATM   20  N5  UNL     1      27.680  -0.111  54.879  1.00  0.00    -0.408 N 
HETATM   21  H18 UNL     1      28.337  -0.872  55.217  1.00  0.00     0.155 HD
HETATM   22  H19 UNL     1      28.465   0.450  54.430  1.00  0.00     0.155 HD
ENDBRANCH  19  20
ENDBRANCH   6  18
BRANCH   3  23
HETATM   23  N3  UNL     1      19.804  -1.236  54.148  1.00  0.00    -0.231 N 
HETATM   24  H13 UNL     1      19.367  -0.324  53.863  1.00  0.00     0.174 HD
HETATM   25  H14 UNL     1      19.312  -2.133  54.307  1.00  0.00     0.174 HD
ENDBRANCH   3  23
TORSDOF 6
ENDMDL
MODEL 4
REMARK VINA RESULT:      -6.8      1.752      4.865
REMARK  6 active torsions:
REMARK  status: ('A' for Active; 'I' for Inactive)
REMARK    1  A    between atoms: C2_2  and  C4_4 
REMARK    2  A    between atoms: C9_9  and  N1_10 
REMARK    3  A    between atoms: N1_10  and  C10_11 
REMARK    4  A    between atoms: C11_13  and  N3_14 
REMARK    5  A    between atoms: C13_17  and  C14_18 
REMARK    6  A    between atoms: C15_19  and  N5_20 
ROOT
HETATM    1  C10 UNL     1      22.897   0.087  53.093  1.00  0.00     0.159 A 
HETATM    2  N2  UNL     1      21.575  -0.106  53.147  1.00  0.00    -0.044 NA
HETATM    3  C11 UNL     1      20.967  -0.855  54.067  1.00  0.00     0.721 A 
HETATM    4  N4  UNL     1      21.668  -1.466  55.011  1.00  0.00    -0.074 NA
HETATM    5  C12 UNL     1      23.021  -1.336  55.048  1.00  0.00     0.151 A 
HETATM    6  C13 UNL     1      23.615  -0.550  54.072  1.00  0.00     0.030 A 
ENDROOT
BRANCH   1   7
HETATM    7  N1  UNL     1      23.495   0.884  52.101  1.00  0.00    -0.339 N 
HETATM    8  H12 UNL     1      24.030   0.385  51.406  1.00  0.00     0.167 HD
BRANCH   7   9
HETATM    9  C9  UNL     1      23.463   2.281  51.923  1.00  0.00     0.040 A 
HETATM   10  C4  UNL     1      24.535   2.959  51.356  1.00  0.00    -0.028 A 
HETATM   11  C5  UNL     1      24.506   4.324  51.177  1.00  0.00     0.010 A 
HETATM   12  C6  UNL     1      23.421   5.081  51.546  1.00  0.00     0.001 A 
HETATM   13  C7  UNL     1      22.333   4.452  52.113  1.00  0.00     0.002 A 
HETATM   14  C8  UNL     1      22.403   3.087  52.275  1.00  0.00     0.030 A 
BRANCH  10  15
HETATM   15  C2  UNL     1      25.773   2.263  50.916  1.00  0.00     0.013 C 
HETATM   16  C1  UNL     1      26.410   3.126  49.827  1.00  0.00     0.015 C 
HETATM   17  C3  UNL     1      26.803   2.263  52.055  1.00  0.00     0.015 C 
ENDBRANCH  10  15
ENDBRANCH   7   9
ENDBRANCH   1   7
BRANCH   6  18
HETATM   18  C14 UNL     1      25.050  -0.459  54.177  1.00  0.00     0.033 C 
HETATM   19  C15 UNL     1      26.066  -0.180  54.944  1.00  0.00     0.081 C 
BRANCH  19  20
HETATM   20  N5  UNL     1      27.481  -0.208  54.663  1.00  0.00    -0.408 N 
HETATM   21  H18 UNL     1      28.172   0.517  54.315  1.00  0.00     0.155 HD
HETATM   22  H19 UNL     1      28.224  -0.966  54.739  1.00  0.00     0.155 HD
ENDBRANCH  19  20
ENDBRANCH   6  18
BRANCH   3  23
HETATM   23  N3  UNL     1      19.562  -0.918  53.931  1.00  0.00    -0.231 N 
HETATM   24  H13 UNL     1      19.162  -0.031  53.534  1.00  0.00     0.174 HD
HETATM   25  H14 UNL     1      19.033  -1.765  54.204  1.00  0.00     0.174 HD
ENDBRANCH   3  23
TORSDOF 6
ENDMDL
MODEL 5
REMARK VINA RESULT:      -6.7      1.762      3.106
REMARK  6 active torsions:
REMARK  status: ('A' for Active; 'I' for Inactive)
REMARK    1  A    between atoms: C2_2  and  C4_4 
REMARK    2  A    between atoms: C9_9  and  N1_10 
REMARK    3  A    between atoms: N1_10  and  C10_11 
REMARK    4  A    between atoms: C11_13  and  N3_14 
REMARK    5  A    between atoms: C13_17  and  C14_18 
REMARK    6  A    between atoms: C15_19  and  N5_20 
ROOT
HETATM    1  C10 UNL     1      24.714   1.115  52.982  1.00  0.00     0.159 A 
HETATM    2  N2  UNL     1      26.034   1.317  52.913  1.00  0.00    -0.044 NA
HETATM    3  C11 UNL     1      26.943   0.509  53.458  1.00  0.00     0.721 A 
HETATM    4  N4  UNL     1      26.570  -0.578  54.120  1.00  0.00    -0.074 NA
HETATM    5  C12 UNL     1      25.250  -0.877  54.250  1.00  0.00     0.151 A 
HETATM    6  C13 UNL     1      24.337  -0.010  53.669  1.00  0.00     0.030 A 
ENDROOT
BRANCH   1   7
HETATM    7  N1  UNL     1      23.792   1.997  52.392  1.00  0.00    -0.339 N 
HETATM    8  H12 UNL     1      23.418   2.708  53.003  1.00  0.00     0.167 HD
BRANCH   7   9
HETATM    9  C9  UNL     1      23.306   2.046  51.071  1.00  0.00     0.040 A 
HETATM   10  C4  UNL     1      23.886   2.878  50.122  1.00  0.00    -0.028 A 
HETATM   11  C5  UNL     1      23.415   2.926  48.828  1.00  0.00     0.010 A 
HETATM   12  C6  UNL     1      22.355   2.159  48.413  1.00  0.00     0.001 A 
HETATM   13  C7  UNL     1      21.747   1.317  49.320  1.00  0.00     0.002 A 
HETATM   14  C8  UNL     1      22.247   1.300  50.603  1.00  0.00     0.030 A 
BRANCH  10  15
HETATM   15  C2  UNL     1      25.036   3.765  50.437  1.00  0.00     0.013 C 
HETATM   16  C1  UNL     1      26.241   3.231  49.661  1.00  0.00     0.015 C 
HETATM   17  C3  UNL     1      24.793   5.163  49.851  1.00  0.00     0.015 C 
ENDBRANCH  10  15
ENDBRANCH   7   9
ENDBRANCH   1   7
BRANCH   6  18
HETATM   18  C14 UNL     1      22.960  -0.394  53.848  1.00  0.00     0.033 C 
HETATM   19  C15 UNL     1      22.038  -0.769  54.689  1.00  0.00     0.081 C 
BRANCH  19  20
HETATM   20  N5  UNL     1      20.649  -1.093  54.469  1.00  0.00    -0.408 N 
HETATM   21  H18 UNL     1      19.743  -0.756  54.904  1.00  0.00     0.155 HD
HETATM   22  H19 UNL     1      20.152  -1.754  53.799  1.00  0.00     0.155 HD
ENDBRANCH  19  20
ENDBRANCH   6  18
BRANCH   3  23
HETATM   23  N3  UNL     1      28.281   0.919  53.260  1.00  0.00    -0.231 N 
HETATM   24  H13 UNL     1      28.737   1.228  54.155  1.00  0.00     0.174 HD
HETATM   25  H14 UNL     1      28.716   0.897  52.321  1.00  0.00     0.174 HD
ENDBRANCH   3  23
TORSDOF 6
ENDMDL
MODEL 6
REMARK VINA RESULT:      -6.7      1.699      4.728
REMARK  6 active torsions:
REMARK  status: ('A' for Active; 'I' for Inactive)
REMARK    1  A    between atoms: C2_2  and  C4_4 
REMARK    2  A    between atoms: C9_9  and  N1_10 
REMARK    3  A    between atoms: N1_10  and  C10_11 
REMARK    4  A    between atoms: C11_13  and  N3_14 
REMARK    5  A    between atoms: C13_17  and  C14_18 
REMARK    6  A    between atoms: C15_19  and  N5_20 
ROOT
HETATM    1  C10 UNL     1      26.034   0.573  52.783  1.00  0.00     0.159 A 
HETATM    2  N2  UNL     1      26.819  -0.038  53.677  1.00  0.00    -0.044 NA
HETATM    3  C11 UNL     1      28.009   0.423  54.063  1.00  0.00     0.721 A 
HETATM    4  N4  UNL     1      28.491   1.551  53.562  1.00  0.00    -0.074 NA
HETATM    5  C12 UNL     1      27.773   2.251  52.644  1.00  0.00     0.151 A 
HETATM    6  C13 UNL     1      26.541   1.738  52.269  1.00  0.00     0.030 A 
ENDROOT
BRANCH   1   7
HETATM    7  N1  UNL     1      24.785   0.049  52.405  1.00  0.00    -0.339 N 
HETATM    8  H12 UNL     1      24.736  -0.328  51.470  1.00  0.00     0.167 HD
BRANCH   7   9
HETATM    9  C9  UNL     1      23.582  -0.037  53.133  1.00  0.00     0.040 A 
HETATM   10  C4  UNL     1      22.458   0.683  52.751  1.00  0.00    -0.028 A 
HETATM   11  C5  UNL     1      21.278   0.599  53.459  1.00  0.00     0.010 A 
HETATM   12  C6  UNL     1      21.156  -0.197  54.572  1.00  0.00     0.001 A 
HETATM   13  C7  UNL     1      22.246  -0.931  54.989  1.00  0.00     0.002 A 
HETATM   14  C8  UNL     1      23.405  -0.818  54.254  1.00  0.00     0.030 A 
BRANCH  10  15
HETATM   15  C2  UNL     1      22.454   1.586  51.571  1.00  0.00     0.013 C 
HETATM   16  C1  UNL     1      21.631   0.897  50.482  1.00  0.00     0.015 C 
HETATM   17  C3  UNL     1      21.666   2.864  51.895  1.00  0.00     0.015 C 
ENDBRANCH  10  15
ENDBRANCH   7   9
ENDBRANCH   1   7
BRANCH   6  18
HETATM   18  C14 UNL     1      25.839   2.536  51.295  1.00  0.00     0.033 C 
HETATM   19  C15 UNL     1      25.914   3.188  50.169  1.00  0.00     0.081 C 
BRANCH  19  20
HETATM   20  N5  UNL     1      24.905   3.927  49.450  1.00  0.00    -0.408 N 
HETATM   21  H18 UNL     1      24.002   4.402  49.740  1.00  0.00     0.155 HD
HETATM   22  H19 UNL     1      24.795   4.208  48.429  1.00  0.00     0.155 HD
ENDBRANCH  19  20
ENDBRANCH   6  18
BRANCH   3  23
HETATM   23  N3  UNL     1      28.664  -0.386  55.019  1.00  0.00    -0.231 N 
HETATM   24  H13 UNL     1      29.266   0.178  55.670  1.00  0.00     0.174 HD
HETATM   25  H14 UNL     1      28.532  -1.413  55.035  1.00  0.00     0.174 HD
ENDBRANCH   3  23
TORSDOF 6
ENDMDL
MODEL 7
REMARK VINA RESULT:      -6.6      2.021      4.316
REMARK  6 active torsions:
REMARK  status: ('A' for Active; 'I' for Inactive)
REMARK    1  A    between atoms: C2_2  and  C4_4 
REMARK    2  A    between atoms: C9_9  and  N1_10 
REMARK    3  A    between atoms: N1_10  and  C10_11 
REMARK    4  A    between atoms: C11_13  and  N3_14 
REMARK    5  A    between atoms: C13_17  and  C14_18 
REMARK    6  A    between atoms: C15_19  and  N5_20 
ROOT
HETATM    1  C10 UNL     1      25.261   1.739  52.847  1.00  0.00     0.159 A 
HETATM    2  N2  UNL     1      25.332   0.867  53.858  1.00  0.00    -0.044 NA
HETATM    3  C11 UNL     1      26.467   0.316  54.290  1.00  0.00     0.721 A 
HETATM    4  N4  UNL     1      27.624   0.619  53.719  1.00  0.00    -0.074 NA
HETATM    5  C12 UNL     1      27.664   1.496  52.681  1.00  0.00     0.151 A 
HETATM    6  C13 UNL     1      26.462   2.045  52.262  1.00  0.00     0.030 A 
ENDROOT
BRANCH   1   7
HETATM    7  N1  UNL     1      24.040   2.294  52.424  1.00  0.00    -0.339 N 
HETATM    8  H12 UNL     1      23.790   3.173  52.853  1.00  0.00     0.167 HD
BRANCH   7   9
HETATM    9  C9  UNL     1      23.104   1.813  51.489  1.00  0.00     0.040 A 
HETATM   10  C4  UNL     1      22.121   0.903  51.857  1.00  0.00    -0.028 A 
HETATM   11  C5  UNL     1      21.201   0.432  50.946  1.00  0.00     0.010 A 
HETATM   12  C6  UNL     1      21.209   0.838  49.633  1.00  0.00     0.001 A 
HETATM   13  C7  UNL     1      22.166   1.740  49.221  1.00  0.00     0.002 A 
HETATM   14  C8  UNL     1      23.066   2.185  50.163  1.00  0.00     0.030 A 
BRANCH  10  15
HETATM   15  C2  UNL     1      22.002   0.378  53.243  1.00  0.00     0.013 C 
HETATM   16  C1  UNL     1      20.517   0.402  53.606  1.00  0.00     0.015 C 
HETATM   17  C3  UNL     1      22.378  -1.111  53.270  1.00  0.00     0.015 C 
ENDBRANCH  10  15
ENDBRANCH   7   9
ENDBRANCH   1   7
BRANCH   6  18
HETATM   18  C14 UNL     1      26.585   2.966  51.160  1.00  0.00     0.033 C 
HETATM   19  C15 UNL     1      26.534   3.125  49.867  1.00  0.00     0.081 C 
BRANCH  19  20
HETATM   20  N5  UNL     1      26.733   4.307  49.064  1.00  0.00    -0.408 N 
HETATM   21  H18 UNL     1      26.619   5.345  49.250  1.00  0.00     0.155 HD
HETATM   22  H19 UNL     1      27.059   4.462  48.062  1.00  0.00     0.155 HD
ENDBRANCH  19  20
ENDBRANCH   6  18
BRANCH   3  23
HETATM   23  N3  UNL     1      26.305  -0.579  55.371  1.00  0.00    -0.231 N 
HETATM   24  H13 UNL     1      25.303  -0.649  55.682  1.00  0.00     0.174 HD
HETATM   25  H14 UNL     1      27.113  -1.085  55.775  1.00  0.00     0.174 HD
ENDBRANCH   3  23
TORSDOF 6
ENDMDL
MODEL 8
REMARK VINA RESULT:      -6.6      2.177      5.251
REMARK  6 active torsions:
REMARK  status: ('A' for Active; 'I' for Inactive)
REMARK    1  A    between atoms: C2_2  and  C4_4 
REMARK    2  A    between atoms: C9_9  and  N1_10 
REMARK    3  A    between atoms: N1_10  and  C10_11 
REMARK    4  A    between atoms: C11_13  and  N3_14 
REMARK    5  A    between atoms: C13_17  and  C14_18 
REMARK    6  A    between atoms: C15_19  and  N5_20 
ROOT
HETATM    1  C10 UNL     1      22.255   0.286  53.049  1.00  0.00     0.159 A 
HETATM    2  N2  UNL     1      20.940   0.048  53.113  1.00  0.00    -0.044 NA
HETATM    3  C11 UNL     1      20.387  -0.888  53.885  1.00  0.00     0.721 A 
HETATM    4  N4  UNL     1      21.140  -1.657  54.658  1.00  0.00    -0.074 NA
HETATM    5  C12 UNL     1      22.491  -1.499  54.668  1.00  0.00     0.151 A 
HETATM    6  C13 UNL     1      23.026  -0.515  53.851  1.00  0.00     0.030 A 
ENDROOT
BRANCH   1   7
HETATM    7  N1  UNL     1      22.794   1.284  52.218  1.00  0.00    -0.339 N 
HETATM    8  H12 UNL     1      23.425   1.930  52.669  1.00  0.00     0.167 HD
BRANCH   7   9
HETATM    9  C9  UNL     1      22.591   1.524  50.845  1.00  0.00     0.040 A 
HETATM   10  C4  UNL     1      23.368   2.446  50.155  1.00  0.00    -0.028 A 
HETATM   11  C5  UNL     1      23.175   2.682  48.811  1.00  0.00     0.010 A 
HETATM   12  C6  UNL     1      22.211   2.020  48.090  1.00  0.00     0.001 A 
HETATM   13  C7  UNL     1      21.417   1.095  48.733  1.00  0.00     0.002 A 
HETATM   14  C8  UNL     1      21.641   0.890  50.076  1.00  0.00     0.030 A 
BRANCH  10  15
HETATM   15  C2  UNL     1      24.441   3.235  50.814  1.00  0.00     0.013 C 
HETATM   16  C1  UNL     1      25.591   3.351  49.814  1.00  0.00     0.015 C 
HETATM   17  C3  UNL     1      23.970   4.682  51.025  1.00  0.00     0.015 C 
ENDBRANCH  10  15
ENDBRANCH   7   9
ENDBRANCH   1   7
BRANCH   6  18
HETATM   18  C14 UNL     1      24.462  -0.407  53.918  1.00  0.00     0.033 C 
HETATM   19  C15 UNL     1      25.530  -0.567  54.648  1.00  0.00     0.081 C 
BRANCH  19  20
HETATM   20  N5  UNL     1      26.918  -0.328  54.336  1.00  0.00    -0.408 N 
HETATM   21  H18 UNL     1      27.430   0.455  53.837  1.00  0.00     0.155 HD
HETATM   22  H19 UNL     1      27.813  -0.870  54.530  1.00  0.00     0.155 HD
ENDBRANCH  19  20
ENDBRANCH   6  18
BRANCH   3  23
HETATM   23  N3  UNL     1      18.979  -0.962  53.791  1.00  0.00    -0.231 N 
HETATM   24  H13 UNL     1      18.664  -1.417  52.898  1.00  0.00     0.174 HD
HETATM   25  H14 UNL     1      18.371  -0.595  54.545  1.00  0.00     0.174 HD
ENDBRANCH   3  23
TORSDOF 6
ENDMDL
MODEL 9
REMARK VINA RESULT:      -6.6      1.971      5.229
REMARK  6 active torsions:
REMARK  status: ('A' for Active; 'I' for Inactive)
REMARK    1  A    between atoms: C2_2  and  C4_4 
REMARK    2  A    between atoms: C9_9  and  N1_10 
REMARK    3  A    between atoms: N1_10  and  C10_11 
REMARK    4  A    between atoms: C11_13  and  N3_14 
REMARK    5  A    between atoms: C13_17  and  C14_18 
REMARK    6  A    between atoms: C15_19  and  N5_20 
ROOT
HETATM    1  C10 UNL     1      26.201   2.919  50.500  1.00  0.00     0.159 A 
HETATM    2  N2  UNL     1      27.059   3.695  49.830  1.00  0.00    -0.044 NA
HETATM    3  C11 UNL     1      26.725   4.848  49.248  1.00  0.00     0.721 A 
HETATM    4  N4  UNL     1      25.480   5.298  49.309  1.00  0.00    -0.074 NA
HETATM    5  C12 UNL     1      24.528   4.585  49.967  1.00  0.00     0.151 A 
HETATM    6  C13 UNL     1      24.916   3.392  50.557  1.00  0.00     0.030 A 
ENDROOT
BRANCH   1   7
HETATM    7  N1  UNL     1      26.600   1.709  51.097  1.00  0.00    -0.339 N 
HETATM    8  H12 UNL     1      26.301   0.871  50.620  1.00  0.00     0.167 HD
BRANCH   7   9
HETATM    9  C9  UNL     1      27.357   1.482  52.262  1.00  0.00     0.040 A 
HETATM   10  C4  UNL     1      27.307   0.263  52.926  1.00  0.00    -0.028 A 
HETATM   11  C5  UNL     1      28.049   0.036  54.065  1.00  0.00     0.010 A 
HETATM   12  C6  UNL     1      28.872   0.997  54.598  1.00  0.00     0.001 A 
HETATM   13  C7  UNL     1      28.954   2.224  53.973  1.00  0.00     0.002 A 
HETATM   14  C8  UNL     1      28.196   2.410  52.839  1.00  0.00     0.030 A 
BRANCH  10  15
HETATM   15  C2  UNL     1      26.455  -0.862  52.460  1.00  0.00     0.013 C 
HETATM   16  C1  UNL     1      27.222  -2.154  52.743  1.00  0.00     0.015 C 
HETATM   17  C3  UNL     1      25.199  -0.963  53.339  1.00  0.00     0.015 C 
ENDBRANCH  10  15
ENDBRANCH   7   9
ENDBRANCH   1   7
BRANCH   6  18
HETATM   18  C14 UNL     1      23.853   2.694  51.236  1.00  0.00     0.033 C 
HETATM   19  C15 UNL     1      23.136   2.600  52.320  1.00  0.00     0.081 C 
BRANCH  19  20
HETATM   20  N5  UNL     1      22.069   1.689  52.656  1.00  0.00    -0.408 N 
HETATM   21  H18 UNL     1      21.747   1.243  53.563  1.00  0.00     0.155 HD
HETATM   22  H19 UNL     1      21.302   1.221  52.084  1.00  0.00     0.155 HD
ENDBRANCH  19  20
ENDBRANCH   6  18
BRANCH   3  23
HETATM   23  N3  UNL     1      27.794   5.501  48.594  1.00  0.00    -0.231 N 
HETATM   24  H13 UNL     1      28.129   4.968  47.753  1.00  0.00     0.174 HD
HETATM   25  H14 UNL     1      28.167   6.402  48.943  1.00  0.00     0.174 HD
ENDBRANCH   3  23
TORSDOF 6
ENDMDL
