MODEL 1
REMARK VINA RESULT:      -7.3      0.000      0.000
REMARK  3 active torsions:
REMARK  status: ('A' for Active; 'I' for Inactive)
REMARK    1  A    between atoms: C2_2  and  C3_3 
REMARK    2  A    between atoms: C8_10  and  N3_11 
REMARK    3  A    between atoms: C13_17  and  N4_18 
ROOT
HETATM    1  C3  UNL     1      24.432   0.141  53.119  1.00  0.00    -0.058 A 
HETATM    2  C4  UNL     1      23.399  -0.612  53.689  1.00  0.00     0.009 A 
HETATM    3  C5  UNL     1      22.114  -0.085  53.640  1.00  0.00     0.033 A 
HETATM    4  C6  UNL     1      21.796   1.128  53.069  1.00  0.00     0.072 A 
HETATM    5  N1  UNL     1      20.560   1.628  53.027  1.00  0.00    -0.241 NA
HETATM    6  C7  UNL     1      20.342   2.821  52.448  1.00  0.00     0.236 A 
HETATM    7  N2  UNL     1      21.361   3.521  51.908  1.00  0.00    -0.224 NA
HETATM    8  C8  UNL     1      22.627   3.072  51.920  1.00  0.00     0.141 A 
HETATM    9  C14 UNL     1      22.829   1.857  52.512  1.00  0.00     0.039 A 
HETATM   10  C15 UNL     1      24.117   1.361  52.543  1.00  0.00     0.024 A 
ENDROOT
BRANCH   8  11
HETATM   11  N3  UNL     1      23.637   3.880  51.325  1.00  0.00    -0.331 N 
HETATM   12  C9  UNL     1      24.706   3.666  50.363  1.00  0.00     0.146 C 
HETATM   13  C10 UNL     1      24.718   4.762  49.308  1.00  0.00     0.098 C 
HETATM   14 BR1  UNL     1      23.042   4.867  48.353  1.00  0.00    -0.085 Br
HETATM   15  C11 UNL     1      24.970   6.096  49.950  1.00  0.00    -0.010 C 
HETATM   16  C12 UNL     1      24.357   6.203  51.128  1.00  0.00     0.026 C 
HETATM   17  C13 UNL     1      23.503   5.239  51.859  1.00  0.00     0.344 C 
BRANCH  17  18
HETATM   18  N4  UNL     1      23.763   5.243  53.285  1.00  0.00     0.105 N 
HETATM   19  H15 UNL     1      23.184   6.019  53.691  1.00  0.00     0.315 HD
HETATM   20  H16 UNL     1      23.372   4.320  53.634  1.00  0.00     0.315 HD
ENDBRANCH  17  18
ENDBRANCH   8  11
BRANCH   1  21
HETATM   21  C2  UNL     1      25.851  -0.343  53.121  1.00  0.00     0.034 C 
HETATM   22  C1  UNL     1      26.638   0.275  51.996  1.00  0.00     0.010 C 
ENDBRANCH   1  21
TORSDOF 3
ENDMDL
MODEL 2
REMARK VINA RESULT:      -7.2      2.845      5.098
REMARK  3 active torsions:
REMARK  status: ('A' for Active; 'I' for Inactive)
REMARK    1  A    between atoms: C2_2  and  C3_3 
REMARK    2  A    between atoms: C8_10  and  N3_11 
REMARK    3  A    between atoms: C13_17  and  N4_18 
ROOT
HETATM    1  C3  UNL     1      23.170   2.561  51.978  1.00  0.00    -0.058 A 
HETATM    2  C4  UNL     1      21.780   2.679  52.089  1.00  0.00     0.009 A 
HETATM    3  C5  UNL     1      21.104   1.698  52.804  1.00  0.00     0.033 A 
HETATM    4  C6  UNL     1      21.715   0.619  53.408  1.00  0.00     0.072 A 
HETATM    5  N1  UNL     1      21.059  -0.319  54.092  1.00  0.00    -0.241 NA
HETATM    6  C7  UNL     1      21.738  -1.337  54.648  1.00  0.00     0.236 A 
HETATM    7  N2  UNL     1      23.078  -1.420  54.521  1.00  0.00    -0.224 NA
HETATM    8  C8  UNL     1      23.795  -0.508  53.844  1.00  0.00     0.141 A 
HETATM    9  C14 UNL     1      23.087   0.520  53.286  1.00  0.00     0.039 A 
HETATM   10  C15 UNL     1      23.788   1.478  52.583  1.00  0.00     0.024 A 
ENDROOT
BRANCH   8  11
HETATM   11  N3  UNL     1      25.206  -0.679  53.764  1.00  0.00    -0.331 N 
HETATM   12  C9  UNL     1      26.134  -1.202  52.773  1.00  0.00     0.146 C 
HETATM   13  C10 UNL     1      27.318  -0.265  52.588  1.00  0.00     0.098 C 
HETATM   14 BR1  UNL     1      26.765   1.504  52.042  1.00  0.00    -0.085 Br
HETATM   15  C11 UNL     1      28.081  -0.135  53.875  1.00  0.00    -0.010 C 
HETATM   16  C12 UNL     1      27.271  -0.110  54.932  1.00  0.00     0.026 C 
HETATM   17  C13 UNL     1      25.794  -0.190  55.013  1.00  0.00     0.344 C 
BRANCH  17  18
HETATM   18  N4  UNL     1      25.348  -1.002  56.128  1.00  0.00     0.105 N 
HETATM   19  H15 UNL     1      26.183  -1.144  56.747  1.00  0.00     0.315 HD
HETATM   20  H16 UNL     1      24.651  -0.390  56.646  1.00  0.00     0.315 HD
ENDBRANCH  17  18
ENDBRANCH   8  11
BRANCH   1  21
HETATM   21  C2  UNL     1      23.987   3.569  51.227  1.00  0.00     0.034 C 
HETATM   22  C1  UNL     1      24.078   3.215  49.766  1.00  0.00     0.010 C 
ENDBRANCH   1  21
TORSDOF 3
ENDMDL
MODEL 3
REMARK VINA RESULT:      -7.0      7.088      9.690
REMARK  3 active torsions:
REMARK  status: ('A' for Active; 'I' for Inactive)
REMARK    1  A    between atoms: C2_2  and  C3_3 
REMARK    2  A    between atoms: C8_10  and  N3_11 
REMARK    3  A    between atoms: C13_17  and  N4_18 
ROOT
HETATM    1  C3  UNL     1      27.589   5.230  48.640  1.00  0.00    -0.058 A 
HETATM    2  C4  UNL     1      26.842   6.412  48.581  1.00  0.00     0.009 A 
HETATM    3  C5  UNL     1      27.478   7.553  48.108  1.00  0.00     0.033 A 
HETATM    4  C6  UNL     1      28.792   7.594  47.696  1.00  0.00     0.072 A 
HETATM    5  N1  UNL     1      29.395   8.694  47.244  1.00  0.00    -0.241 NA
HETATM    6  C7  UNL     1      30.683   8.641  46.863  1.00  0.00     0.236 A 
HETATM    7  N2  UNL     1      31.374   7.485  46.933  1.00  0.00    -0.224 NA
HETATM    8  C8  UNL     1      30.823   6.344  47.381  1.00  0.00     0.141 A 
HETATM    9  C14 UNL     1      29.513   6.418  47.763  1.00  0.00     0.039 A 
HETATM   10  C15 UNL     1      28.911   5.266  48.227  1.00  0.00     0.024 A 
ENDROOT
BRANCH   8  11
HETATM   11  N3  UNL     1      31.631   5.173  47.419  1.00  0.00    -0.331 N 
HETATM   12  C9  UNL     1      31.532   3.824  46.883  1.00  0.00     0.146 C 
HETATM   13  C10 UNL     1      32.838   3.401  46.227  1.00  0.00     0.098 C 
HETATM   14 BR1  UNL     1      33.351   4.596  44.798  1.00  0.00    -0.085 Br
HETATM   15  C11 UNL     1      33.945   3.387  47.240  1.00  0.00    -0.010 C 
HETATM   16  C12 UNL     1      33.840   4.394  48.105  1.00  0.00     0.026 C 
HETATM   17  C13 UNL     1      32.832   5.475  48.204  1.00  0.00     0.344 C 
BRANCH  17  18
HETATM   18  N4  UNL     1      32.471   5.767  49.577  1.00  0.00     0.105 N 
HETATM   19  H15 UNL     1      32.729   4.920  50.140  1.00  0.00     0.315 HD
HETATM   20  H16 UNL     1      33.113   6.564  49.861  1.00  0.00     0.315 HD
ENDBRANCH  17  18
ENDBRANCH   8  11
BRANCH   1  21
HETATM   21  C2  UNL     1      26.993   3.947  49.136  1.00  0.00     0.034 C 
HETATM   22  C1  UNL     1      25.730   4.200  49.915  1.00  0.00     0.010 C 
ENDBRANCH   1  21
TORSDOF 3
ENDMDL
MODEL 4
REMARK VINA RESULT:      -7.0      2.213      3.800
REMARK  3 active torsions:
REMARK  status: ('A' for Active; 'I' for Inactive)
REMARK    1  A    between atoms: C2_2  and  C3_3 
REMARK    2  A    between atoms: C8_10  and  N3_11 
REMARK    3  A    between atoms: C13_17  and  N4_18 
ROOT
HETATM    1  C3  UNL     1      23.162  -0.421  53.857  1.00  0.00    -0.058 A 
HETATM    2  C4  UNL     1      24.240  -1.024  54.514  1.00  0.00     0.009 A 
HETATM    3  C5  UNL     1      25.511  -0.518  54.265  1.00  0.00     0.033 A 
HETATM    4  C6  UNL     1      25.774   0.533  53.414  1.00  0.00     0.072 A 
HETATM    5  N1  UNL     1      26.996   1.012  53.180  1.00  0.00    -0.241 NA
HETATM    6  C7  UNL     1      27.159   2.043  52.333  1.00  0.00     0.236 A 
HETATM    7  N2  UNL     1      26.097   2.600  51.716  1.00  0.00    -0.224 NA
HETATM    8  C8  UNL     1      24.842   2.163  51.909  1.00  0.00     0.141 A 
HETATM    9  C14 UNL     1      24.696   1.114  52.774  1.00  0.00     0.039 A 
HETATM   10  C15 UNL     1      23.421   0.637  53.000  1.00  0.00     0.024 A 
ENDROOT
BRANCH   8  11
HETATM   11  N3  UNL     1      23.784   2.813  51.214  1.00  0.00    -0.331 N 
HETATM   12  C9  UNL     1      23.311   2.846  49.839  1.00  0.00     0.146 C 
HETATM   13  C10 UNL     1      21.800   2.670  49.778  1.00  0.00     0.098 C 
HETATM   14 BR1  UNL     1      21.231   1.010  50.586  1.00  0.00    -0.085 Br
HETATM   15  C11 UNL     1      21.118   3.794  50.501  1.00  0.00    -0.010 C 
HETATM   16  C12 UNL     1      21.781   4.154  51.599  1.00  0.00     0.026 C 
HETATM   17  C13 UNL     1      23.038   3.625  52.179  1.00  0.00     0.344 C 
BRANCH  17  18
HETATM   18  N4  UNL     1      23.884   4.676  52.709  1.00  0.00     0.105 N 
HETATM   19  H15 UNL     1      24.875   4.352  52.584  1.00  0.00     0.315 HD
HETATM   20  H16 UNL     1      23.722   5.504  52.065  1.00  0.00     0.315 HD
ENDBRANCH  17  18
ENDBRANCH   8  11
BRANCH   1  21
HETATM   21  C2  UNL     1      21.754  -0.894  54.060  1.00  0.00     0.034 C 
HETATM   22  C1  UNL     1      20.862   0.232  54.511  1.00  0.00     0.010 C 
ENDBRANCH   1  21
TORSDOF 3
ENDMDL
MODEL 5
REMARK VINA RESULT:      -6.8      1.976      3.714
REMARK  3 active torsions:
REMARK  status: ('A' for Active; 'I' for Inactive)
REMARK    1  A    between atoms: C2_2  and  C3_3 
REMARK    2  A    between atoms: C8_10  and  N3_11 
REMARK    3  A    between atoms: C13_17  and  N4_18 
ROOT
HETATM    1  C3  UNL     1      22.905   0.306  53.436  1.00  0.00    -0.058 A 
HETATM    2  C4  UNL     1      24.019  -0.502  53.690  1.00  0.00     0.009 A 
HETATM    3  C5  UNL     1      25.229  -0.133  53.113  1.00  0.00     0.033 A 
HETATM    4  C6  UNL     1      25.398   0.973  52.308  1.00  0.00     0.072 A 
HETATM    5  N1  UNL     1      26.561   1.320  51.757  1.00  0.00    -0.241 NA
HETATM    6  C7  UNL     1      26.634   2.417  50.985  1.00  0.00     0.236 A 
HETATM    7  N2  UNL     1      25.540   3.173  50.760  1.00  0.00    -0.224 NA
HETATM    8  C8  UNL     1      24.340   2.877  51.286  1.00  0.00     0.141 A 
HETATM    9  C14 UNL     1      24.287   1.757  52.069  1.00  0.00     0.039 A 
HETATM   10  C15 UNL     1      23.071   1.419  52.628  1.00  0.00     0.024 A 
ENDROOT
BRANCH   8  11
HETATM   11  N3  UNL     1      23.242   3.734  50.993  1.00  0.00    -0.331 N 
HETATM   12  C9  UNL     1      22.332   4.559  51.772  1.00  0.00     0.146 C 
HETATM   13  C10 UNL     1      22.188   5.943  51.155  1.00  0.00     0.098 C 
HETATM   14 BR1  UNL     1      23.885   6.856  51.019  1.00  0.00    -0.085 Br
HETATM   15  C11 UNL     1      21.607   5.836  49.775  1.00  0.00    -0.010 C 
HETATM   16  C12 UNL     1      22.075   4.775  49.120  1.00  0.00     0.026 C 
HETATM   17  C13 UNL     1      23.041   3.734  49.541  1.00  0.00     0.344 C 
BRANCH  17  18
HETATM   18  N4  UNL     1      22.658   2.412  49.089  1.00  0.00     0.105 N 
HETATM   19  H15 UNL     1      21.611   2.367  49.151  1.00  0.00     0.315 HD
HETATM   20  H16 UNL     1      22.931   2.386  48.064  1.00  0.00     0.315 HD
ENDBRANCH  17  18
ENDBRANCH   8  11
BRANCH   1  21
HETATM   21  C2  UNL     1      21.558  -0.008  54.014  1.00  0.00     0.034 C 
HETATM   22  C1  UNL     1      21.523  -1.401  54.585  1.00  0.00     0.010 C 
ENDBRANCH   1  21
TORSDOF 3
ENDMDL
MODEL 6
REMARK VINA RESULT:      -6.7      1.847      2.793
REMARK  3 active torsions:
REMARK  status: ('A' for Active; 'I' for Inactive)
REMARK    1  A    between atoms: C2_2  and  C3_3 
REMARK    2  A    between atoms: C8_10  and  N3_11 
REMARK    3  A    between atoms: C13_17  and  N4_18 
ROOT
HETATM    1  C3  UNL     1      25.425   0.602  52.429  1.00  0.00    -0.058 A 
HETATM    2  C4  UNL     1      25.283  -0.306  53.485  1.00  0.00     0.009 A 
HETATM    3  C5  UNL     1      24.001  -0.530  53.974  1.00  0.00     0.033 A 
HETATM    4  C6  UNL     1      22.867   0.083  53.488  1.00  0.00     0.072 A 
HETATM    5  N1  UNL     1      21.641  -0.137  53.963  1.00  0.00    -0.241 NA
HETATM    6  C7  UNL     1      20.591   0.508  53.426  1.00  0.00     0.236 A 
HETATM    7  N2  UNL     1      20.764   1.377  52.409  1.00  0.00    -0.224 NA
HETATM    8  C8  UNL     1      21.973   1.642  51.888  1.00  0.00     0.141 A 
HETATM    9  C14 UNL     1      23.028   0.977  52.446  1.00  0.00     0.039 A 
HETATM   10  C15 UNL     1      24.288   1.222  51.937  1.00  0.00     0.024 A 
ENDROOT
BRANCH   8  11
HETATM   11  N3  UNL     1      22.058   2.575  50.816  1.00  0.00    -0.331 N 
HETATM   12  C9  UNL     1      21.974   4.021  50.688  1.00  0.00     0.146 C 
HETATM   13  C10 UNL     1      23.104   4.559  49.822  1.00  0.00     0.098 C 
HETATM   14 BR1  UNL     1      24.841   4.103  50.533  1.00  0.00    -0.085 Br
HETATM   15  C11 UNL     1      23.008   3.992  48.436  1.00  0.00    -0.010 C 
HETATM   16  C12 UNL     1      22.620   2.718  48.445  1.00  0.00     0.026 C 
HETATM   17  C13 UNL     1      22.285   1.824  49.578  1.00  0.00     0.344 C 
BRANCH  17  18
HETATM   18  N4  UNL     1      21.145   0.975  49.291  1.00  0.00     0.105 N 
HETATM   19  H15 UNL     1      20.382   1.608  48.945  1.00  0.00     0.315 HD
HETATM   20  H16 UNL     1      21.460   0.363  48.483  1.00  0.00     0.315 HD
ENDBRANCH  17  18
ENDBRANCH   8  11
BRANCH   1  21
HETATM   21  C2  UNL     1      26.766   0.911  51.833  1.00  0.00     0.034 C 
HETATM   22  C1  UNL     1      27.488   1.961  52.635  1.00  0.00     0.010 C 
ENDBRANCH   1  21
TORSDOF 3
ENDMDL
MODEL 7
REMARK VINA RESULT:      -6.7      2.122      3.057
REMARK  3 active torsions:
REMARK  status: ('A' for Active; 'I' for Inactive)
REMARK    1  A    between atoms: C2_2  and  C3_3 
REMARK    2  A    between atoms: C8_10  and  N3_11 
REMARK    3  A    between atoms: C13_17  and  N4_18 
ROOT
HETATM    1  C3  UNL     1      23.425  -0.232  53.823  1.00  0.00    -0.058 A 
HETATM    2  C4  UNL     1      22.717  -1.198  54.548  1.00  0.00     0.009 A 
HETATM    3  C5  UNL     1      21.353  -1.314  54.305  1.00  0.00     0.033 A 
HETATM    4  C6  UNL     1      20.658  -0.540  53.401  1.00  0.00     0.072 A 
HETATM    5  N1  UNL     1      19.349  -0.657  53.175  1.00  0.00    -0.241 NA
HETATM    6  C7  UNL     1      18.754   0.141  52.272  1.00  0.00     0.236 A 
HETATM    7  N2  UNL     1      19.467   1.062  51.592  1.00  0.00    -0.224 NA
HETATM    8  C8  UNL     1      20.786   1.229  51.776  1.00  0.00     0.141 A 
HETATM    9  C14 UNL     1      21.375   0.408  52.696  1.00  0.00     0.039 A 
HETATM   10  C15 UNL     1      22.730   0.548  52.913  1.00  0.00     0.024 A 
ENDROOT
BRANCH   8  11
HETATM   11  N3  UNL     1      21.455   2.227  51.012  1.00  0.00    -0.331 N 
HETATM   12  C9  UNL     1      21.578   3.675  51.075  1.00  0.00     0.146 C 
HETATM   13  C10 UNL     1      23.028   4.107  50.911  1.00  0.00     0.098 C 
HETATM   14 BR1  UNL     1      24.171   3.332  52.262  1.00  0.00    -0.085 Br
HETATM   15  C11 UNL     1      23.545   3.683  49.567  1.00  0.00    -0.010 C 
HETATM   16  C12 UNL     1      23.081   2.487  49.210  1.00  0.00     0.026 C 
HETATM   17  C13 UNL     1      22.168   1.560  49.919  1.00  0.00     0.344 C 
BRANCH  17  18
HETATM   18  N4  UNL     1      21.225   0.923  49.022  1.00  0.00     0.105 N 
HETATM   19  H15 UNL     1      20.396   0.649  49.605  1.00  0.00     0.315 HD
HETATM   20  H16 UNL     1      20.922   1.693  48.356  1.00  0.00     0.315 HD
ENDBRANCH  17  18
ENDBRANCH   8  11
BRANCH   1  21
HETATM   21  C2  UNL     1      24.899  -0.030  54.014  1.00  0.00     0.034 C 
HETATM   22  C1  UNL     1      25.689  -0.811  52.998  1.00  0.00     0.010 C 
ENDBRANCH   1  21
TORSDOF 3
ENDMDL
MODEL 8
REMARK VINA RESULT:      -6.4      4.708      6.843
REMARK  3 active torsions:
REMARK  status: ('A' for Active; 'I' for Inactive)
REMARK    1  A    between atoms: C2_2  and  C3_3 
REMARK    2  A    between atoms: C8_10  and  N3_11 
REMARK    3  A    between atoms: C13_17  and  N4_18 
ROOT
HETATM    1  C3  UNL     1      25.830   4.422  49.261  1.00  0.00    -0.058 A 
HETATM    2  C4  UNL     1      24.443   4.379  49.079  1.00  0.00     0.009 A 
HETATM    3  C5  UNL     1      23.804   5.557  48.709  1.00  0.00     0.033 A 
HETATM    4  C6  UNL     1      24.449   6.760  48.514  1.00  0.00     0.072 A 
HETATM    5  N1  UNL     1      23.829   7.886  48.160  1.00  0.00    -0.241 NA
HETATM    6  C7  UNL     1      24.539   9.014  47.991  1.00  0.00     0.236 A 
HETATM    7  N2  UNL     1      25.875   9.020  48.176  1.00  0.00    -0.224 NA
HETATM    8  C8  UNL     1      26.556   7.920  48.533  1.00  0.00     0.141 A 
HETATM    9  C14 UNL     1      25.817   6.782  48.699  1.00  0.00     0.039 A 
HETATM   10  C15 UNL     1      26.482   5.629  49.066  1.00  0.00     0.024 A 
ENDROOT
BRANCH   8  11
HETATM   11  N3  UNL     1      27.966   8.023  48.705  1.00  0.00    -0.331 N 
HETATM   12  C9  UNL     1      29.118   7.212  48.345  1.00  0.00     0.146 C 
HETATM   13  C10 UNL     1      30.214   8.067  47.725  1.00  0.00     0.098 C 
HETATM   14 BR1  UNL     1      29.600   9.000  46.149  1.00  0.00    -0.085 Br
HETATM   15  C11 UNL     1      30.692   9.090  48.713  1.00  0.00    -0.010 C 
HETATM   16  C12 UNL     1      29.693   9.579  49.446  1.00  0.00     0.026 C 
HETATM   17  C13 UNL     1      28.245   9.268  49.425  1.00  0.00     0.344 C 
BRANCH  17  18
HETATM   18  N4  UNL     1      27.674   9.215  50.756  1.00  0.00     0.105 N 
HETATM   19  H15 UNL     1      28.312   9.771  51.377  1.00  0.00     0.315 HD
HETATM   20  H16 UNL     1      26.752   9.737  50.676  1.00  0.00     0.315 HD
ENDBRANCH  17  18
ENDBRANCH   8  11
BRANCH   1  21
HETATM   21  C2  UNL     1      26.608   3.205  49.659  1.00  0.00     0.034 C 
HETATM   22  C1  UNL     1      26.196   2.718  51.023  1.00  0.00     0.010 C 
ENDBRANCH   1  21
TORSDOF 3
ENDMDL
MODEL 9
REMARK VINA RESULT:      -6.4      2.392      5.363
REMARK  3 active torsions:
REMARK  status: ('A' for Active; 'I' for Inactive)
REMARK    1  A    between atoms: C2_2  and  C3_3 
REMARK    2  A    between atoms: C8_10  and  N3_11 
REMARK    3  A    between atoms: C13_17  and  N4_18 
ROOT
HETATM    1  C3  UNL     1      25.030   2.851  50.724  1.00  0.00    -0.058 A 
HETATM    2  C4  UNL     1      26.396   2.578  50.863  1.00  0.00     0.009 A 
HETATM    3  C5  UNL     1      26.767   1.598  51.776  1.00  0.00     0.033 A 
HETATM    4  C6  UNL     1      25.879   0.883  52.550  1.00  0.00     0.072 A 
HETATM    5  N1  UNL     1      26.243  -0.055  53.425  1.00  0.00    -0.241 NA
HETATM    6  C7  UNL     1      25.306  -0.703  54.138  1.00  0.00     0.236 A 
HETATM    7  N2  UNL     1      23.998  -0.414  53.979  1.00  0.00    -0.224 NA
HETATM    8  C8  UNL     1      23.568   0.521  53.116  1.00  0.00     0.141 A 
HETATM    9  C14 UNL     1      24.536   1.168  52.399  1.00  0.00     0.039 A 
HETATM   10  C15 UNL     1      24.133   2.135  51.500  1.00  0.00     0.024 A 
ENDROOT
BRANCH   8  11
HETATM   11  N3  UNL     1      22.168   0.757  53.016  1.00  0.00    -0.331 N 
HETATM   12  C9  UNL     1      21.329   1.886  52.645  1.00  0.00     0.146 C 
HETATM   13  C10 UNL     1      20.236   1.458  51.677  1.00  0.00     0.098 C 
HETATM   14 BR1  UNL     1      20.961   0.673  50.068  1.00  0.00    -0.085 Br
HETATM   15  C11 UNL     1      19.340   0.442  52.325  1.00  0.00    -0.010 C 
HETATM   16  C12 UNL     1      20.022  -0.402  53.097  1.00  0.00     0.026 C 
HETATM   17  C13 UNL     1      21.472  -0.476  53.393  1.00  0.00     0.344 C 
BRANCH  17  18
HETATM   18  N4  UNL     1      21.734  -0.794  54.783  1.00  0.00     0.105 N 
HETATM   19  H15 UNL     1      22.739  -1.095  54.835  1.00  0.00     0.315 HD
HETATM   20  H16 UNL     1      21.638   0.131  55.295  1.00  0.00     0.315 HD
ENDBRANCH  17  18
ENDBRANCH   8  11
BRANCH   1  21
HETATM   21  C2  UNL     1      24.530   3.890  49.765  1.00  0.00     0.034 C 
HETATM   22  C1  UNL     1      23.441   3.338  48.885  1.00  0.00     0.010 C 
ENDBRANCH   1  21
TORSDOF 3
ENDMDL
