MODEL 1
REMARK VINA RESULT:      -7.6      0.000      0.000
REMARK  6 active torsions:
REMARK  status: ('A' for Active; 'I' for Inactive)
REMARK    1  A    between atoms: N1_1  and  C1_2 
REMARK    2  A    between atoms: C4_5  and  O1_6 
REMARK    3  A    between atoms: O1_6  and  C5_7 
REMARK    4  A    between atoms: C5_7  and  N2_8 
REMARK    5  A    between atoms: N3_15  and  C12_16 
REMARK    6  A    between atoms: C12_16  and  C13_17 
ROOT
HETATM    1  C1  UNL     1      23.686   5.228  51.658  1.00  0.00     0.342 A 
HETATM    2  C2  UNL     1      23.691   4.418  52.901  1.00  0.00     0.032 A 
HETATM    3  C3  UNL     1      24.228   3.225  53.087  1.00  0.00     0.038 A 
HETATM    4  C4  UNL     1      24.910   2.583  51.971  1.00  0.00     0.086 A 
HETATM    5  C11 UNL     1      24.988   3.186  50.795  1.00  0.00     0.124 A 
HETATM    6  N3  UNL     1      24.393   4.471  50.645  1.00  0.00    -0.354 N 
ENDROOT
BRANCH   4   7
HETATM    7  O1  UNL     1      25.466   1.352  52.153  1.00  0.00    -0.331 OA
BRANCH   7   8
HETATM    8  C5  UNL     1      25.861   0.965  53.454  1.00  0.00     0.300 C 
BRANCH   8   9
HETATM    9  N2  UNL     1      27.174   0.343  53.460  1.00  0.00    -0.365 N 
HETATM   10  C6  UNL     1      28.237   1.220  53.880  1.00  0.00     0.088 A 
HETATM   11  C7  UNL     1      29.451   0.676  53.898  1.00  0.00     0.017 A 
HETATM   12  C8  UNL     1      29.760  -0.701  53.531  1.00  0.00    -0.001 A 
HETATM   13  C9  UNL     1      28.740  -1.431  53.160  1.00  0.00    -0.007 A 
HETATM   14  C10 UNL     1      27.324  -1.031  53.070  1.00  0.00     0.151 A 
ENDBRANCH   8   9
ENDBRANCH   7   8
ENDBRANCH   4   7
BRANCH   6  15
HETATM   15  C12 UNL     1      24.532   5.055  49.326  1.00  0.00     0.138 C 
BRANCH  15  16
HETATM   16  C13 UNL     1      25.956   5.314  48.985  1.00  0.00     0.022 A 
HETATM   17  C14 UNL     1      27.154   4.778  48.821  1.00  0.00     0.119 A 
HETATM   18  N4  UNL     1      28.532   4.912  48.510  1.00  0.00    -0.296 NA
HETATM   19  C15 UNL     1      27.744   5.961  48.503  1.00  0.00     0.110 A 
HETATM   20  C16 UNL     1      26.462   6.672  48.656  1.00  0.00     0.053 A 
ENDBRANCH  15  16
ENDBRANCH   6  15
BRANCH   1  21
HETATM   21  N1  UNL     1      24.306   6.502  51.924  1.00  0.00     0.105 N 
HETATM   22  H1  UNL     1      23.648   7.160  52.349  1.00  0.00     0.315 HD
HETATM   23  H2  UNL     1      24.881   6.865  51.133  1.00  0.00     0.315 HD
ENDBRANCH   1  21
TORSDOF 6
ENDMDL
MODEL 2
REMARK VINA RESULT:      -7.2      4.205      7.372
REMARK  6 active torsions:
REMARK  status: ('A' for Active; 'I' for Inactive)
REMARK    1  A    between atoms: N1_1  and  C1_2 
REMARK    2  A    between atoms: C4_5  and  O1_6 
REMARK    3  A    between atoms: O1_6  and  C5_7 
REMARK    4  A    between atoms: C5_7  and  N2_8 
REMARK    5  A    between atoms: N3_15  and  C12_16 
REMARK    6  A    between atoms: C12_16  and  C13_17 
ROOT
HETATM    1  C1  UNL     1      25.807   1.621  53.134  1.00  0.00     0.342 A 
HETATM    2  C2  UNL     1      24.642   1.733  52.223  1.00  0.00     0.032 A 
HETATM    3  C3  UNL     1      23.562   0.972  52.192  1.00  0.00     0.038 A 
HETATM    4  C4  UNL     1      23.452  -0.124  53.145  1.00  0.00     0.086 A 
HETATM    5  C11 UNL     1      24.416  -0.350  54.024  1.00  0.00     0.124 A 
HETATM    6  N3  UNL     1      25.559   0.499  54.018  1.00  0.00    -0.354 N 
ENDROOT
BRANCH   4   7
HETATM    7  O1  UNL     1      22.343  -0.917  53.120  1.00  0.00    -0.331 OA
BRANCH   7   8
HETATM    8  C5  UNL     1      21.205  -0.525  53.862  1.00  0.00     0.300 C 
BRANCH   8   9
HETATM    9  N2  UNL     1      20.017  -0.442  53.030  1.00  0.00    -0.365 N 
HETATM   10  C6  UNL     1      18.910  -1.231  53.507  1.00  0.00     0.088 A 
HETATM   11  C7  UNL     1      17.806  -1.171  52.765  1.00  0.00     0.017 A 
HETATM   12  C8  UNL     1      17.655  -0.388  51.546  1.00  0.00    -0.001 A 
HETATM   13  C9  UNL     1      18.707   0.300  51.180  1.00  0.00    -0.007 A 
HETATM   14  C10 UNL     1      20.017   0.376  51.849  1.00  0.00     0.151 A 
ENDBRANCH   8   9
ENDBRANCH   7   8
ENDBRANCH   4   7
BRANCH   6  15
HETATM   15  C12 UNL     1      26.559   0.181  55.017  1.00  0.00     0.138 C 
BRANCH  15  16
HETATM   16  C13 UNL     1      27.888  -0.077  54.403  1.00  0.00     0.022 A 
HETATM   17  C14 UNL     1      28.620  -0.926  53.700  1.00  0.00     0.119 A 
HETATM   18  N4  UNL     1      29.846  -1.274  53.077  1.00  0.00    -0.296 NA
HETATM   19  C15 UNL     1      29.723  -0.133  53.710  1.00  0.00     0.110 A 
HETATM   20  C16 UNL     1      29.011   0.891  54.496  1.00  0.00     0.053 A 
ENDBRANCH  15  16
ENDBRANCH   6  15
BRANCH   1  21
HETATM   21  N1  UNL     1      25.964   2.861  53.853  1.00  0.00     0.105 N 
HETATM   22  H1  UNL     1      26.372   3.589  53.261  1.00  0.00     0.315 HD
HETATM   23  H2  UNL     1      26.376   2.749  54.804  1.00  0.00     0.315 HD
ENDBRANCH   1  21
TORSDOF 6
ENDMDL
MODEL 3
REMARK VINA RESULT:      -7.2      2.965      5.473
REMARK  6 active torsions:
REMARK  status: ('A' for Active; 'I' for Inactive)
REMARK    1  A    between atoms: N1_1  and  C1_2 
REMARK    2  A    between atoms: C4_5  and  O1_6 
REMARK    3  A    between atoms: O1_6  and  C5_7 
REMARK    4  A    between atoms: C5_7  and  N2_8 
REMARK    5  A    between atoms: N3_15  and  C12_16 
REMARK    6  A    between atoms: C12_16  and  C13_17 
ROOT
HETATM    1  C1  UNL     1      21.891   2.880  51.452  1.00  0.00     0.342 A 
HETATM    2  C2  UNL     1      22.892   3.970  51.561  1.00  0.00     0.032 A 
HETATM    3  C3  UNL     1      24.179   3.862  51.841  1.00  0.00     0.038 A 
HETATM    4  C4  UNL     1      24.734   2.537  52.080  1.00  0.00     0.086 A 
HETATM    5  C11 UNL     1      23.962   1.464  52.017  1.00  0.00     0.124 A 
HETATM    6  N3  UNL     1      22.581   1.632  51.711  1.00  0.00    -0.354 N 
ENDROOT
BRANCH   4   7
HETATM    7  O1  UNL     1      26.060   2.415  52.372  1.00  0.00    -0.331 OA
BRANCH   7   8
HETATM    8  C5  UNL     1      26.440   1.933  53.645  1.00  0.00     0.300 C 
BRANCH   8   9
HETATM    9  N2  UNL     1      27.487   0.931  53.556  1.00  0.00    -0.365 N 
HETATM   10  C6  UNL     1      27.012  -0.383  53.201  1.00  0.00     0.088 A 
HETATM   11  C7  UNL     1      27.951  -1.322  53.110  1.00  0.00     0.017 A 
HETATM   12  C8  UNL     1      29.375  -1.112  53.339  1.00  0.00    -0.001 A 
HETATM   13  C9  UNL     1      29.723   0.109  53.658  1.00  0.00    -0.007 A 
HETATM   14  C10 UNL     1      28.854   1.288  53.812  1.00  0.00     0.151 A 
ENDBRANCH   8   9
ENDBRANCH   7   8
ENDBRANCH   4   7
BRANCH   6  15
HETATM   15  C12 UNL     1      21.816   0.403  51.660  1.00  0.00     0.138 C 
BRANCH  15  16
HETATM   16  C13 UNL     1      21.687  -0.223  53.002  1.00  0.00     0.022 A 
HETATM   17  C14 UNL     1      22.045  -1.238  53.772  1.00  0.00     0.119 A 
HETATM   18  N4  UNL     1      21.993  -1.920  55.014  1.00  0.00    -0.296 NA
HETATM   19  C15 UNL     1      21.329  -0.803  54.841  1.00  0.00     0.110 A 
HETATM   20  C16 UNL     1      20.861   0.372  54.084  1.00  0.00     0.053 A 
ENDBRANCH  15  16
ENDBRANCH   6  15
BRANCH   1  21
HETATM   21  N1  UNL     1      21.297   2.916  50.139  1.00  0.00     0.105 N 
HETATM   22  H1  UNL     1      20.917   2.004  49.874  1.00  0.00     0.315 HD
HETATM   23  H2  UNL     1      21.881   3.402  49.425  1.00  0.00     0.315 HD
ENDBRANCH   1  21
TORSDOF 6
ENDMDL
MODEL 4
REMARK VINA RESULT:      -7.2      1.877      6.777
REMARK  6 active torsions:
REMARK  status: ('A' for Active; 'I' for Inactive)
REMARK    1  A    between atoms: N1_1  and  C1_2 
REMARK    2  A    between atoms: C4_5  and  O1_6 
REMARK    3  A    between atoms: O1_6  and  C5_7 
REMARK    4  A    between atoms: C5_7  and  N2_8 
REMARK    5  A    between atoms: N3_15  and  C12_16 
REMARK    6  A    between atoms: C12_16  and  C13_17 
ROOT
HETATM    1  C1  UNL     1      24.399   0.921  53.277  1.00  0.00     0.342 A 
HETATM    2  C2  UNL     1      23.971   1.696  52.087  1.00  0.00     0.032 A 
HETATM    3  C3  UNL     1      24.727   2.416  51.276  1.00  0.00     0.038 A 
HETATM    4  C4  UNL     1      26.158   2.491  51.536  1.00  0.00     0.086 A 
HETATM    5  C11 UNL     1      26.688   1.849  52.565  1.00  0.00     0.124 A 
HETATM    6  N3  UNL     1      25.832   1.086  53.409  1.00  0.00    -0.354 N 
ENDROOT
BRANCH   4   7
HETATM    7  O1  UNL     1      26.946   3.233  50.707  1.00  0.00    -0.331 OA
BRANCH   7   8
HETATM    8  C5  UNL     1      26.535   3.430  49.368  1.00  0.00     0.300 C 
BRANCH   8   9
HETATM    9  N2  UNL     1      26.804   4.782  48.911  1.00  0.00    -0.365 N 
HETATM   10  C6  UNL     1      28.165   4.998  48.489  1.00  0.00     0.088 A 
HETATM   11  C7  UNL     1      28.440   6.229  48.062  1.00  0.00     0.017 A 
HETATM   12  C8  UNL     1      27.486   7.329  47.999  1.00  0.00    -0.001 A 
HETATM   13  C9  UNL     1      26.272   7.050  48.401  1.00  0.00    -0.007 A 
HETATM   14  C10 UNL     1      25.758   5.765  48.907  1.00  0.00     0.151 A 
ENDBRANCH   8   9
ENDBRANCH   7   8
ENDBRANCH   4   7
BRANCH   6  15
HETATM   15  C12 UNL     1      26.500   0.415  54.506  1.00  0.00     0.138 C 
BRANCH  15  16
HETATM   16  C13 UNL     1      27.728  -0.293  54.053  1.00  0.00     0.022 A 
HETATM   17  C14 UNL     1      29.043  -0.378  54.167  1.00  0.00     0.119 A 
HETATM   18  N4  UNL     1      30.274  -0.982  53.806  1.00  0.00    -0.296 NA
HETATM   19  C15 UNL     1      29.149  -1.398  53.276  1.00  0.00     0.110 A 
HETATM   20  C16 UNL     1      27.690  -1.401  53.065  1.00  0.00     0.053 A 
ENDBRANCH  15  16
ENDBRANCH   6  15
BRANCH   1  21
HETATM   21  N1  UNL     1      24.020  -0.459  53.100  1.00  0.00     0.105 N 
HETATM   22  H1  UNL     1      24.026  -0.727  52.112  1.00  0.00     0.315 HD
HETATM   23  H2  UNL     1      23.182  -0.741  53.653  1.00  0.00     0.315 HD
ENDBRANCH   1  21
TORSDOF 6
ENDMDL
MODEL 5
REMARK VINA RESULT:      -7.0      2.273      3.310
REMARK  6 active torsions:
REMARK  status: ('A' for Active; 'I' for Inactive)
REMARK    1  A    between atoms: N1_1  and  C1_2 
REMARK    2  A    between atoms: C4_5  and  O1_6 
REMARK    3  A    between atoms: O1_6  and  C5_7 
REMARK    4  A    between atoms: C5_7  and  N2_8 
REMARK    5  A    between atoms: N3_15  and  C12_16 
REMARK    6  A    between atoms: C12_16  and  C13_17 
ROOT
HETATM    1  C1  UNL     1      23.664   5.288  51.682  1.00  0.00     0.342 A 
HETATM    2  C2  UNL     1      23.681   4.661  53.027  1.00  0.00     0.032 A 
HETATM    3  C3  UNL     1      24.226   3.510  53.376  1.00  0.00     0.038 A 
HETATM    4  C4  UNL     1      24.906   2.720  52.358  1.00  0.00     0.086 A 
HETATM    5  C11 UNL     1      24.974   3.152  51.108  1.00  0.00     0.124 A 
HETATM    6  N3  UNL     1      24.371   4.400  50.782  1.00  0.00    -0.354 N 
ENDROOT
BRANCH   4   7
HETATM    7  O1  UNL     1      25.470   1.530  52.707  1.00  0.00    -0.331 OA
BRANCH   7   8
HETATM    8  C5  UNL     1      24.872   0.330  52.257  1.00  0.00     0.300 C 
BRANCH   8   9
HETATM    9  N2  UNL     1      23.740  -0.055  53.081  1.00  0.00    -0.365 N 
HETATM   10  C6  UNL     1      24.105  -0.734  54.299  1.00  0.00     0.088 A 
HETATM   11  C7  UNL     1      23.086  -1.097  55.075  1.00  0.00     0.017 A 
HETATM   12  C8  UNL     1      21.679  -0.859  54.781  1.00  0.00    -0.001 A 
HETATM   13  C9  UNL     1      21.433  -0.237  53.656  1.00  0.00    -0.007 A 
HETATM   14  C10 UNL     1      22.402   0.249  52.658  1.00  0.00     0.151 A 
ENDBRANCH   8   9
ENDBRANCH   7   8
ENDBRANCH   4   7
BRANCH   6  15
HETATM   15  C12 UNL     1      24.499   4.793  49.393  1.00  0.00     0.138 C 
BRANCH  15  16
HETATM   16  C13 UNL     1      25.904   5.134  49.044  1.00  0.00     0.022 A 
HETATM   17  C14 UNL     1      27.128   4.666  48.861  1.00  0.00     0.119 A 
HETATM   18  N4  UNL     1      28.494   4.879  48.541  1.00  0.00    -0.296 NA
HETATM   19  C15 UNL     1      27.651   5.884  48.559  1.00  0.00     0.110 A 
HETATM   20  C16 UNL     1      26.334   6.522  48.735  1.00  0.00     0.053 A 
ENDBRANCH  15  16
ENDBRANCH   6  15
BRANCH   1  21
HETATM   21  N1  UNL     1      24.279   6.590  51.763  1.00  0.00     0.105 N 
HETATM   22  H1  UNL     1      25.289   6.520  51.907  1.00  0.00     0.315 HD
HETATM   23  H2  UNL     1      23.767   7.261  52.374  1.00  0.00     0.315 HD
ENDBRANCH   1  21
TORSDOF 6
ENDMDL
MODEL 6
REMARK VINA RESULT:      -6.8      4.163      6.075
REMARK  6 active torsions:
REMARK  status: ('A' for Active; 'I' for Inactive)
REMARK    1  A    between atoms: N1_1  and  C1_2 
REMARK    2  A    between atoms: C4_5  and  O1_6 
REMARK    3  A    between atoms: O1_6  and  C5_7 
REMARK    4  A    between atoms: C5_7  and  N2_8 
REMARK    5  A    between atoms: N3_15  and  C12_16 
REMARK    6  A    between atoms: C12_16  and  C13_17 
ROOT
HETATM    1  C1  UNL     1      21.295  -0.167  53.744  1.00  0.00     0.342 A 
HETATM    2  C2  UNL     1      22.545  -0.908  54.044  1.00  0.00     0.032 A 
HETATM    3  C3  UNL     1      23.770  -0.625  53.639  1.00  0.00     0.038 A 
HETATM    4  C4  UNL     1      23.975   0.545  52.795  1.00  0.00     0.086 A 
HETATM    5  C11 UNL     1      22.952   1.307  52.442  1.00  0.00     0.124 A 
HETATM    6  N3  UNL     1      21.651   0.960  52.905  1.00  0.00    -0.354 N 
ENDROOT
BRANCH   4   7
HETATM    7  O1  UNL     1      25.236   0.844  52.371  1.00  0.00    -0.331 OA
BRANCH   7   8
HETATM    8  C5  UNL     1      26.144   1.429  53.283  1.00  0.00     0.300 C 
BRANCH   8   9
HETATM    9  N2  UNL     1      27.390   0.686  53.360  1.00  0.00    -0.365 N 
HETATM   10  C6  UNL     1      27.254  -0.719  53.070  1.00  0.00     0.088 A 
HETATM   11  C7  UNL     1      28.380  -1.425  53.131  1.00  0.00     0.017 A 
HETATM   12  C8  UNL     1      29.693  -0.885  53.461  1.00  0.00    -0.001 A 
HETATM   13  C9  UNL     1      29.731   0.399  53.711  1.00  0.00    -0.007 A 
HETATM   14  C10 UNL     1      28.613   1.358  53.700  1.00  0.00     0.151 A 
ENDBRANCH   8   9
ENDBRANCH   7   8
ENDBRANCH   4   7
BRANCH   6  15
HETATM   15  C12 UNL     1      20.594   1.852  52.473  1.00  0.00     0.138 C 
BRANCH  15  16
HETATM   16  C13 UNL     1      19.576   1.145  51.652  1.00  0.00     0.022 A 
HETATM   17  C14 UNL     1      18.453   0.445  51.670  1.00  0.00     0.119 A 
HETATM   18  N4  UNL     1      17.427  -0.256  50.986  1.00  0.00    -0.296 NA
HETATM   19  C15 UNL     1      18.410   0.301  50.320  1.00  0.00     0.110 A 
HETATM   20  C16 UNL     1      19.659   1.068  50.171  1.00  0.00     0.053 A 
ENDBRANCH  15  16
ENDBRANCH   6  15
BRANCH   1  21
HETATM   21  N1  UNL     1      20.682   0.243  54.983  1.00  0.00     0.105 N 
HETATM   22  H1  UNL     1      20.685  -0.513  55.672  1.00  0.00     0.315 HD
HETATM   23  H2  UNL     1      19.783   0.756  54.859  1.00  0.00     0.315 HD
ENDBRANCH   1  21
TORSDOF 6
ENDMDL
MODEL 7
REMARK VINA RESULT:      -6.8      3.270      6.859
REMARK  6 active torsions:
REMARK  status: ('A' for Active; 'I' for Inactive)
REMARK    1  A    between atoms: N1_1  and  C1_2 
REMARK    2  A    between atoms: C4_5  and  O1_6 
REMARK    3  A    between atoms: O1_6  and  C5_7 
REMARK    4  A    between atoms: C5_7  and  N2_8 
REMARK    5  A    between atoms: N3_15  and  C12_16 
REMARK    6  A    between atoms: C12_16  and  C13_17 
ROOT
HETATM    1  C1  UNL     1      27.230   1.944  52.214  1.00  0.00     0.342 A 
HETATM    2  C2  UNL     1      26.534   2.637  51.102  1.00  0.00     0.032 A 
HETATM    3  C3  UNL     1      25.247   2.600  50.804  1.00  0.00     0.038 A 
HETATM    4  C4  UNL     1      24.360   1.798  51.635  1.00  0.00     0.086 A 
HETATM    5  C11 UNL     1      24.836   1.121  52.668  1.00  0.00     0.124 A 
HETATM    6  N3  UNL     1      26.230   1.194  52.948  1.00  0.00    -0.354 N 
ENDROOT
BRANCH   4   7
HETATM    7  O1  UNL     1      23.031   1.752  51.335  1.00  0.00    -0.331 OA
BRANCH   7   8
HETATM    8  C5  UNL     1      22.097   2.208  52.293  1.00  0.00     0.300 C 
BRANCH   8   9
HETATM    9  N2  UNL     1      21.078   1.212  52.575  1.00  0.00    -0.365 N 
HETATM   10  C6  UNL     1      21.393   0.349  53.685  1.00  0.00     0.088 A 
HETATM   11  C7  UNL     1      20.476  -0.573  53.968  1.00  0.00     0.017 A 
HETATM   12  C8  UNL     1      19.220  -0.756  53.252  1.00  0.00    -0.001 A 
HETATM   13  C9  UNL     1      19.010   0.068  52.257  1.00  0.00    -0.007 A 
HETATM   14  C10 UNL     1      19.885   1.152  51.778  1.00  0.00     0.151 A 
ENDBRANCH   8   9
ENDBRANCH   7   8
ENDBRANCH   4   7
BRANCH   6  15
HETATM   15  C12 UNL     1      26.661   0.425  54.098  1.00  0.00     0.138 C 
BRANCH  15  16
HETATM   16  C13 UNL     1      27.625  -0.642  53.719  1.00  0.00     0.022 A 
HETATM   17  C14 UNL     1      27.769  -1.845  53.189  1.00  0.00     0.119 A 
HETATM   18  N4  UNL     1      28.598  -2.925  52.790  1.00  0.00    -0.296 NA
HETATM   19  C15 UNL     1      29.120  -1.851  53.332  1.00  0.00     0.110 A 
HETATM   20  C16 UNL     1      29.089  -0.507  53.938  1.00  0.00     0.053 A 
ENDBRANCH  15  16
ENDBRANCH   6  15
BRANCH   1  21
HETATM   21  N1  UNL     1      27.894   2.924  53.037  1.00  0.00     0.105 N 
HETATM   22  H1  UNL     1      28.890   2.991  52.812  1.00  0.00     0.315 HD
HETATM   23  H2  UNL     1      27.649   2.862  54.048  1.00  0.00     0.315 HD
ENDBRANCH   1  21
TORSDOF 6
ENDMDL
MODEL 8
REMARK VINA RESULT:      -6.7      1.428      2.268
REMARK  6 active torsions:
REMARK  status: ('A' for Active; 'I' for Inactive)
REMARK    1  A    between atoms: N1_1  and  C1_2 
REMARK    2  A    between atoms: C4_5  and  O1_6 
REMARK    3  A    between atoms: O1_6  and  C5_7 
REMARK    4  A    between atoms: C5_7  and  N2_8 
REMARK    5  A    between atoms: N3_15  and  C12_16 
REMARK    6  A    between atoms: C12_16  and  C13_17 
ROOT
HETATM    1  C1  UNL     1      23.806   5.332  51.528  1.00  0.00     0.342 A 
HETATM    2  C2  UNL     1      23.592   4.385  52.650  1.00  0.00     0.032 A 
HETATM    3  C3  UNL     1      24.143   3.197  52.823  1.00  0.00     0.038 A 
HETATM    4  C4  UNL     1      25.083   2.709  51.822  1.00  0.00     0.086 A 
HETATM    5  C11 UNL     1      25.376   3.445  50.761  1.00  0.00     0.124 A 
HETATM    6  N3  UNL     1      24.756   4.719  50.621  1.00  0.00    -0.354 N 
ENDROOT
BRANCH   4   7
HETATM    7  O1  UNL     1      25.656   1.484  51.990  1.00  0.00    -0.331 OA
BRANCH   7   8
HETATM    8  C5  UNL     1      25.961   1.045  53.299  1.00  0.00     0.300 C 
BRANCH   8   9
HETATM    9  N2  UNL     1      27.247   0.373  53.360  1.00  0.00    -0.365 N 
HETATM   10  C6  UNL     1      28.340   1.231  53.747  1.00  0.00     0.088 A 
HETATM   11  C7  UNL     1      29.531   0.640  53.813  1.00  0.00     0.017 A 
HETATM   12  C8  UNL     1      29.789  -0.766  53.530  1.00  0.00    -0.001 A 
HETATM   13  C9  UNL     1      28.744  -1.475  53.185  1.00  0.00    -0.007 A 
HETATM   14  C10 UNL     1      27.348  -1.026  53.051  1.00  0.00     0.151 A 
ENDBRANCH   8   9
ENDBRANCH   7   8
ENDBRANCH   4   7
BRANCH   6  15
HETATM   15  C12 UNL     1      25.139   5.455  49.433  1.00  0.00     0.138 C 
BRANCH  15  16
HETATM   16  C13 UNL     1      23.991   5.646  48.508  1.00  0.00     0.022 A 
HETATM   17  C14 UNL     1      22.936   5.080  47.946  1.00  0.00     0.119 A 
HETATM   18  N4  UNL     1      21.811   5.152  47.084  1.00  0.00    -0.296 NA
HETATM   19  C15 UNL     1      22.586   6.196  47.255  1.00  0.00     0.110 A 
HETATM   20  C16 UNL     1      23.731   6.935  47.817  1.00  0.00     0.053 A 
ENDBRANCH  15  16
ENDBRANCH   6  15
BRANCH   1  21
HETATM   21  N1  UNL     1      24.283   6.586  52.056  1.00  0.00     0.105 N 
HETATM   22  H1  UNL     1      23.518   7.147  52.440  1.00  0.00     0.315 HD
HETATM   23  H2  UNL     1      24.953   7.080  51.429  1.00  0.00     0.315 HD
ENDBRANCH   1  21
TORSDOF 6
ENDMDL
MODEL 9
REMARK VINA RESULT:      -6.6      2.978      5.813
REMARK  6 active torsions:
REMARK  status: ('A' for Active; 'I' for Inactive)
REMARK    1  A    between atoms: N1_1  and  C1_2 
REMARK    2  A    between atoms: C4_5  and  O1_6 
REMARK    3  A    between atoms: O1_6  and  C5_7 
REMARK    4  A    between atoms: C5_7  and  N2_8 
REMARK    5  A    between atoms: N3_15  and  C12_16 
REMARK    6  A    between atoms: C12_16  and  C13_17 
ROOT
HETATM    1  C1  UNL     1      25.839   2.996  50.326  1.00  0.00     0.342 A 
HETATM    2  C2  UNL     1      24.604   3.419  49.620  1.00  0.00     0.032 A 
HETATM    3  C3  UNL     1      23.374   3.471  50.101  1.00  0.00     0.038 A 
HETATM    4  C4  UNL     1      23.147   3.076  51.484  1.00  0.00     0.086 A 
HETATM    5  C11 UNL     1      24.156   2.674  52.243  1.00  0.00     0.124 A 
HETATM    6  N3  UNL     1      25.462   2.637  51.679  1.00  0.00    -0.354 N 
ENDROOT
BRANCH   4   7
HETATM    7  O1  UNL     1      21.882   3.124  51.989  1.00  0.00    -0.331 OA
BRANCH   7   8
HETATM    8  C5  UNL     1      21.014   2.031  51.764  1.00  0.00     0.300 C 
BRANCH   8   9
HETATM    9  N2  UNL     1      21.330   0.901  52.619  1.00  0.00    -0.365 N 
HETATM   10  C6  UNL     1      20.787   1.003  53.951  1.00  0.00     0.088 A 
HETATM   11  C7  UNL     1      21.060  -0.020  54.756  1.00  0.00     0.017 A 
HETATM   12  C8  UNL     1      21.843  -1.193  54.389  1.00  0.00    -0.001 A 
HETATM   13  C9  UNL     1      22.299  -1.209  53.163  1.00  0.00    -0.007 A 
HETATM   14  C10 UNL     1      22.117  -0.189  52.115  1.00  0.00     0.151 A 
ENDBRANCH   8   9
ENDBRANCH   7   8
ENDBRANCH   4   7
BRANCH   6  15
HETATM   15  C12 UNL     1      26.502   2.190  52.582  1.00  0.00     0.138 C 
BRANCH  15  16
HETATM   16  C13 UNL     1      26.476   0.715  52.766  1.00  0.00     0.022 A 
HETATM   17  C14 UNL     1      26.768  -0.458  52.227  1.00  0.00     0.119 A 
HETATM   18  N4  UNL     1      26.791  -1.875  52.298  1.00  0.00    -0.296 NA
HETATM   19  C15 UNL     1      26.310  -1.168  53.292  1.00  0.00     0.110 A 
HETATM   20  C16 UNL     1      25.940   0.074  53.995  1.00  0.00     0.053 A 
ENDBRANCH  15  16
ENDBRANCH   6  15
BRANCH   1  21
HETATM   21  N1  UNL     1      26.794   4.076  50.291  1.00  0.00     0.105 N 
HETATM   22  H1  UNL     1      26.363   4.968  50.546  1.00  0.00     0.315 HD
HETATM   23  H2  UNL     1      27.398   4.078  49.441  1.00  0.00     0.315 HD
ENDBRANCH   1  21
TORSDOF 6
ENDMDL
