MODEL 1
REMARK VINA RESULT:      -8.6      0.000      0.000
REMARK  7 active torsions:
REMARK  status: ('A' for Active; 'I' for Inactive)
REMARK    1  A    between atoms: N1_2  and  C3_4 
REMARK    2  A    between atoms: C3_4  and  C4_5 
REMARK    3  A    between atoms: C4_5  and  C5_6 
REMARK    4  A    between atoms: C5_6  and  C6_7 
REMARK       I    between atoms: C6_7  and  N2_9 
REMARK    5  A    between atoms: N2_9  and  C7_10 
REMARK    6  A    between atoms: C13_18  and  N5_19 
REMARK    7  A    between atoms: N5_19  and  C14_20 
ROOT
HETATM    1  C7  UNL     1      24.419   3.474  51.654  1.00  0.00     0.034 A 
HETATM    2  C8  UNL     1      23.876   2.801  50.621  1.00  0.00     0.034 A 
HETATM    3  C9  UNL     1      23.474   1.485  51.061  1.00  0.00     0.168 A 
HETATM    4  N3  UNL     1      22.154   0.996  50.798  1.00  0.00    -0.286 NA
HETATM    5  C10 UNL     1      21.556   0.206  51.659  1.00  0.00     0.136 C 
HETATM    6  C11 UNL     1      22.212  -0.184  52.928  1.00  0.00     0.089 C 
HETATM    7  C12 UNL     1      21.621  -1.087  53.909  1.00  0.00     0.103 C 
HETATM    8  N4  UNL     1      21.168  -1.816  54.687  1.00  0.00    -0.191 NA
HETATM    9  C13 UNL     1      23.443   0.238  53.347  1.00  0.00     0.064 C 
HETATM   10  C20 UNL     1      23.759   1.436  52.496  1.00  0.00     0.001 A 
HETATM   11  C21 UNL     1      24.342   2.615  52.814  1.00  0.00     0.041 A 
ENDROOT
BRANCH   9  12
HETATM   12  N5  UNL     1      24.295   0.034  54.429  1.00  0.00    -0.354 N 
HETATM   13  H15 UNL     1      24.046   0.055  55.441  1.00  0.00     0.166 HD
BRANCH  12  14
HETATM   14  C14 UNL     1      25.653  -0.231  54.047  1.00  0.00     0.034 A 
HETATM   15  C15 UNL     1      25.952  -1.271  53.182  1.00  0.00     0.032 A 
HETATM   16  C16 UNL     1      27.226  -1.594  52.758  1.00  0.00     0.046 A 
HETATM   17  C17 UNL     1      28.287  -0.833  53.221  1.00  0.00     0.138 A 
HETATM   18  F1  UNL     1      29.561  -1.107  52.835  1.00  0.00    -0.204 F 
HETATM   19  C18 UNL     1      28.052   0.217  54.084  1.00  0.00     0.074 A 
HETATM   20 CL1  UNL     1      29.377   1.194  54.676  1.00  0.00    -0.081 Cl
HETATM   21  C19 UNL     1      26.755   0.482  54.466  1.00  0.00     0.056 A 
ENDBRANCH  12  14
ENDBRANCH   9  12
BRANCH   1  22
HETATM   22  N2  UNL     1      24.821   4.757  51.224  1.00  0.00    -0.324 N 
HETATM   23  C6  UNL     1      23.814   5.743  51.485  1.00  0.00     0.245 C 
HETATM   24  O1  UNL     1      22.883   5.060  52.044  1.00  0.00    -0.268 OA
HETATM   25  H11 UNL     1      25.759   4.965  50.763  1.00  0.00     0.169 HD
BRANCH  23  26
HETATM   26  C5  UNL     1      24.034   7.123  51.106  1.00  0.00     0.072 C 
BRANCH  26  27
HETATM   27  C4  UNL     1      24.163   8.234  50.429  1.00  0.00     0.008 C 
BRANCH  27  28
HETATM   28  C3  UNL     1      25.257   8.811  49.593  1.00  0.00     0.299 C 
BRANCH  28  29
HETATM   29  N1  UNL     1      26.540   8.247  49.968  1.00  0.00     0.083 N 
HETATM   30  C1  UNL     1      27.461   9.312  50.223  1.00  0.00     0.309 C 
HETATM   31  C2  UNL     1      27.032   7.356  48.945  1.00  0.00     0.309 C 
ENDBRANCH  28  29
ENDBRANCH  27  28
ENDBRANCH  26  27
ENDBRANCH  23  26
ENDBRANCH   1  22
TORSDOF 7
ENDMDL
MODEL 2
REMARK VINA RESULT:      -8.1      2.222      2.769
REMARK  7 active torsions:
REMARK  status: ('A' for Active; 'I' for Inactive)
REMARK    1  A    between atoms: N1_2  and  C3_4 
REMARK    2  A    between atoms: C3_4  and  C4_5 
REMARK    3  A    between atoms: C4_5  and  C5_6 
REMARK    4  A    between atoms: C5_6  and  C6_7 
REMARK       I    between atoms: C6_7  and  N2_9 
REMARK    5  A    between atoms: N2_9  and  C7_10 
REMARK    6  A    between atoms: C13_18  and  N5_19 
REMARK    7  A    between atoms: N5_19  and  C14_20 
ROOT
HETATM    1  C7  UNL     1      24.817   3.985  50.139  1.00  0.00     0.034 A 
HETATM    2  C8  UNL     1      24.171   3.138  49.314  1.00  0.00     0.034 A 
HETATM    3  C9  UNL     1      23.592   2.063  50.085  1.00  0.00     0.168 A 
HETATM    4  N3  UNL     1      22.213   1.710  49.929  1.00  0.00    -0.286 NA
HETATM    5  C10 UNL     1      21.520   1.276  50.957  1.00  0.00     0.136 C 
HETATM    6  C11 UNL     1      22.131   1.159  52.301  1.00  0.00     0.089 C 
HETATM    7  C12 UNL     1      21.431   0.649  53.474  1.00  0.00     0.103 C 
HETATM    8  N4  UNL     1      20.890   0.231  54.409  1.00  0.00    -0.191 NA
HETATM    9  C13 UNL     1      23.415   1.503  52.621  1.00  0.00     0.064 C 
HETATM   10  C20 UNL     1      23.887   2.366  51.486  1.00  0.00     0.001 A 
HETATM   11  C21 UNL     1      24.634   3.494  51.487  1.00  0.00     0.041 A 
ENDROOT
BRANCH   9  12
HETATM   12  N5  UNL     1      24.243   1.485  53.741  1.00  0.00    -0.354 N 
HETATM   13  H15 UNL     1      24.076   1.952  54.657  1.00  0.00     0.166 HD
BRANCH  12  14
HETATM   14  C14 UNL     1      25.444   0.720  53.552  1.00  0.00     0.034 A 
HETATM   15  C15 UNL     1      25.393  -0.547  52.993  1.00  0.00     0.032 A 
HETATM   16  C16 UNL     1      26.495  -1.348  52.770  1.00  0.00     0.046 A 
HETATM   17  C17 UNL     1      27.745  -0.864  53.124  1.00  0.00     0.138 A 
HETATM   18  F1  UNL     1      28.862  -1.611  52.927  1.00  0.00    -0.204 F 
HETATM   19  C18 UNL     1      27.859   0.391  53.684  1.00  0.00     0.074 A 
HETATM   20 CL1  UNL     1      29.426   1.024  54.134  1.00  0.00    -0.081 Cl
HETATM   21  C19 UNL     1      26.716   1.136  53.878  1.00  0.00     0.056 A 
ENDBRANCH  12  14
ENDBRANCH   9  12
BRANCH   1  22
HETATM   22  N2  UNL     1      25.391   5.034  49.388  1.00  0.00    -0.324 N 
HETATM   23  C6  UNL     1      26.781   4.802  49.129  1.00  0.00     0.245 C 
HETATM   24  O1  UNL     1      26.993   3.672  49.699  1.00  0.00    -0.268 OA
HETATM   25  H11 UNL     1      24.853   5.892  49.054  1.00  0.00     0.169 HD
BRANCH  23  26
HETATM   26  C5  UNL     1      27.552   5.771  48.379  1.00  0.00     0.072 C 
BRANCH  26  27
HETATM   27  C4  UNL     1      28.335   6.762  48.041  1.00  0.00     0.008 C 
BRANCH  27  28
HETATM   28  C3  UNL     1      29.761   6.846  47.604  1.00  0.00     0.299 C 
BRANCH  28  29
HETATM   29  N1  UNL     1      30.618   6.103  48.508  1.00  0.00     0.083 N 
HETATM   30  C1  UNL     1      31.477   7.018  49.194  1.00  0.00     0.309 C 
HETATM   31  C2  UNL     1      31.374   5.100  47.796  1.00  0.00     0.309 C 
ENDBRANCH  28  29
ENDBRANCH  27  28
ENDBRANCH  26  27
ENDBRANCH  23  26
ENDBRANCH   1  22
TORSDOF 7
ENDMDL
MODEL 3
REMARK VINA RESULT:      -7.8      1.291      1.680
REMARK  7 active torsions:
REMARK  status: ('A' for Active; 'I' for Inactive)
REMARK    1  A    between atoms: N1_2  and  C3_4 
REMARK    2  A    between atoms: C3_4  and  C4_5 
REMARK    3  A    between atoms: C4_5  and  C5_6 
REMARK    4  A    between atoms: C5_6  and  C6_7 
REMARK       I    between atoms: C6_7  and  N2_9 
REMARK    5  A    between atoms: N2_9  and  C7_10 
REMARK    6  A    between atoms: C13_18  and  N5_19 
REMARK    7  A    between atoms: N5_19  and  C14_20 
ROOT
HETATM    1  C7  UNL     1      25.064   4.295  50.648  1.00  0.00     0.034 A 
HETATM    2  C8  UNL     1      24.653   3.610  49.563  1.00  0.00     0.034 A 
HETATM    3  C9  UNL     1      24.040   2.370  49.980  1.00  0.00     0.168 A 
HETATM    4  N3  UNL     1      22.748   1.992  49.493  1.00  0.00    -0.286 NA
HETATM    5  C10 UNL     1      21.921   1.320  50.261  1.00  0.00     0.136 C 
HETATM    6  C11 UNL     1      22.288   0.953  51.648  1.00  0.00     0.089 C 
HETATM    7  C12 UNL     1      21.435   0.177  52.539  1.00  0.00     0.103 C 
HETATM    8  N4  UNL     1      20.772  -0.454  53.250  1.00  0.00    -0.191 NA
HETATM    9  C13 UNL     1      23.458   1.284  52.273  1.00  0.00     0.064 C 
HETATM   10  C20 UNL     1      24.050   2.388  51.443  1.00  0.00     0.001 A 
HETATM   11  C21 UNL     1      24.684   3.525  51.811  1.00  0.00     0.041 A 
ENDROOT
BRANCH   9  12
HETATM   12  N5  UNL     1      24.069   1.071  53.506  1.00  0.00    -0.354 N 
HETATM   13  H15 UNL     1      23.684   1.294  54.448  1.00  0.00     0.166 HD
BRANCH  12  14
HETATM   14  C14 UNL     1      25.371   0.475  53.405  1.00  0.00     0.034 A 
HETATM   15  C15 UNL     1      25.540  -0.747  52.772  1.00  0.00     0.032 A 
HETATM   16  C16 UNL     1      26.753  -1.389  52.624  1.00  0.00     0.046 A 
HETATM   17  C17 UNL     1      27.888  -0.782  53.137  1.00  0.00     0.138 A 
HETATM   18  F1  UNL     1      29.107  -1.370  53.019  1.00  0.00    -0.204 F 
HETATM   19  C18 UNL     1      27.783   0.436  53.777  1.00  0.00     0.074 A 
HETATM   20 CL1  UNL     1      29.203   1.223  54.427  1.00  0.00    -0.081 Cl
HETATM   21  C19 UNL     1      26.540   1.020  53.888  1.00  0.00     0.056 A 
ENDBRANCH  12  14
ENDBRANCH   9  12
BRANCH   1  22
HETATM   22  N2  UNL     1      25.670   5.504  50.243  1.00  0.00    -0.324 N 
HETATM   23  C6  UNL     1      24.854   6.638  50.557  1.00  0.00     0.245 C 
HETATM   24  O1  UNL     1      23.830   6.107  51.120  1.00  0.00    -0.268 OA
HETATM   25  H11 UNL     1      26.621   5.563  49.764  1.00  0.00     0.169 HD
BRANCH  23  26
HETATM   26  C5  UNL     1      25.298   7.972  50.210  1.00  0.00     0.072 C 
BRANCH  26  27
HETATM   27  C4  UNL     1      26.027   9.034  49.987  1.00  0.00     0.008 C 
BRANCH  27  28
HETATM   28  C3  UNL     1      27.449   9.388  50.275  1.00  0.00     0.299 C 
BRANCH  28  29
HETATM   29  N1  UNL     1      28.182   9.608  49.042  1.00  0.00     0.083 N 
HETATM   30  C1  UNL     1      29.467   8.989  49.146  1.00  0.00     0.309 C 
HETATM   31  C2  UNL     1      28.295  11.017  48.752  1.00  0.00     0.309 C 
ENDBRANCH  28  29
ENDBRANCH  27  28
ENDBRANCH  26  27
ENDBRANCH  23  26
ENDBRANCH   1  22
TORSDOF 7
ENDMDL
MODEL 4
REMARK VINA RESULT:      -7.3      1.981      2.439
REMARK  7 active torsions:
REMARK  status: ('A' for Active; 'I' for Inactive)
REMARK    1  A    between atoms: N1_2  and  C3_4 
REMARK    2  A    between atoms: C3_4  and  C4_5 
REMARK    3  A    between atoms: C4_5  and  C5_6 
REMARK    4  A    between atoms: C5_6  and  C6_7 
REMARK       I    between atoms: C6_7  and  N2_9 
REMARK    5  A    between atoms: N2_9  and  C7_10 
REMARK    6  A    between atoms: C13_18  and  N5_19 
REMARK    7  A    between atoms: N5_19  and  C14_20 
ROOT
HETATM    1  C7  UNL     1      23.491   4.082  49.855  1.00  0.00     0.034 A 
HETATM    2  C8  UNL     1      23.176   3.089  49.001  1.00  0.00     0.034 A 
HETATM    3  C9  UNL     1      22.929   1.875  49.743  1.00  0.00     0.168 A 
HETATM    4  N3  UNL     1      21.736   1.113  49.526  1.00  0.00    -0.286 NA
HETATM    5  C10 UNL     1      21.171   0.470  50.521  1.00  0.00     0.136 C 
HETATM    6  C11 UNL     1      21.731   0.528  51.891  1.00  0.00     0.089 C 
HETATM    7  C12 UNL     1      21.176  -0.192  53.031  1.00  0.00     0.103 C 
HETATM    8  N4  UNL     1      20.753  -0.773  53.940  1.00  0.00    -0.191 NA
HETATM    9  C13 UNL     1      22.829   1.249  52.268  1.00  0.00     0.064 C 
HETATM   10  C20 UNL     1      23.056   2.234  51.156  1.00  0.00     0.001 A 
HETATM   11  C21 UNL     1      23.414   3.538  51.192  1.00  0.00     0.041 A 
ENDROOT
BRANCH   9  12
HETATM   12  N5  UNL     1      23.575   1.472  53.423  1.00  0.00    -0.354 N 
HETATM   13  H15 UNL     1      23.252   1.924  54.305  1.00  0.00     0.166 HD
BRANCH  12  14
HETATM   14  C14 UNL     1      24.929   1.004  53.330  1.00  0.00     0.034 A 
HETATM   15  C15 UNL     1      25.989   1.849  53.620  1.00  0.00     0.032 A 
HETATM   16  C16 UNL     1      27.319   1.484  53.562  1.00  0.00     0.046 A 
HETATM   17  C17 UNL     1      27.630   0.185  53.192  1.00  0.00     0.138 A 
HETATM   18  F1  UNL     1      28.922  -0.228  53.119  1.00  0.00    -0.204 F 
HETATM   19  C18 UNL     1      26.618  -0.703  52.893  1.00  0.00     0.074 A 
HETATM   20 CL1  UNL     1      26.988  -2.348  52.428  1.00  0.00    -0.081 Cl
HETATM   21  C19 UNL     1      25.312  -0.269  52.971  1.00  0.00     0.056 A 
ENDBRANCH  12  14
ENDBRANCH   9  12
BRANCH   1  22
HETATM   22  N2  UNL     1      23.741   5.268  49.131  1.00  0.00    -0.324 N 
HETATM   23  C6  UNL     1      25.137   5.587  49.101  1.00  0.00     0.245 C 
HETATM   24  O1  UNL     1      25.665   4.627  49.770  1.00  0.00    -0.268 OA
HETATM   25  H11 UNL     1      22.981   5.853  48.664  1.00  0.00     0.169 HD
BRANCH  23  26
HETATM   26  C5  UNL     1      25.596   6.776  48.414  1.00  0.00     0.072 C 
BRANCH  26  27
HETATM   27  C4  UNL     1      25.717   7.778  47.583  1.00  0.00     0.008 C 
BRANCH  27  28
HETATM   28  C3  UNL     1      26.864   8.348  46.815  1.00  0.00     0.299 C 
BRANCH  28  29
HETATM   29  N1  UNL     1      27.202   9.672  47.306  1.00  0.00     0.083 N 
HETATM   30  C1  UNL     1      28.130   9.545  48.388  1.00  0.00     0.309 C 
HETATM   31  C2  UNL     1      26.017  10.392  47.707  1.00  0.00     0.309 C 
ENDBRANCH  28  29
ENDBRANCH  27  28
ENDBRANCH  26  27
ENDBRANCH  23  26
ENDBRANCH   1  22
TORSDOF 7
ENDMDL
MODEL 5
REMARK VINA RESULT:      -7.3      5.812     11.202
REMARK  7 active torsions:
REMARK  status: ('A' for Active; 'I' for Inactive)
REMARK    1  A    between atoms: N1_2  and  C3_4 
REMARK    2  A    between atoms: C3_4  and  C4_5 
REMARK    3  A    between atoms: C4_5  and  C5_6 
REMARK    4  A    between atoms: C5_6  and  C6_7 
REMARK       I    between atoms: C6_7  and  N2_9 
REMARK    5  A    between atoms: N2_9  and  C7_10 
REMARK    6  A    between atoms: C13_18  and  N5_19 
REMARK    7  A    between atoms: N5_19  and  C14_20 
ROOT
HETATM    1  C7  UNL     1      28.710   7.261  47.944  1.00  0.00     0.034 A 
HETATM    2  C8  UNL     1      28.789   8.334  48.755  1.00  0.00     0.034 A 
HETATM    3  C9  UNL     1      29.939   9.129  48.392  1.00  0.00     0.168 A 
HETATM    4  N3  UNL     1      29.815  10.537  48.165  1.00  0.00    -0.286 NA
HETATM    5  C10 UNL     1      30.563  11.132  47.265  1.00  0.00     0.136 C 
HETATM    6  C11 UNL     1      31.535  10.369  46.448  1.00  0.00     0.089 C 
HETATM    7  C12 UNL     1      32.421  10.972  45.460  1.00  0.00     0.103 C 
HETATM    8  N4  UNL     1      33.142  11.442  44.684  1.00  0.00    -0.191 NA
HETATM    9  C13 UNL     1      31.734   9.018  46.509  1.00  0.00     0.064 C 
HETATM   10  C20 UNL     1      30.529   8.474  47.224  1.00  0.00     0.001 A 
HETATM   11  C21 UNL     1      29.798   7.358  46.997  1.00  0.00     0.041 A 
ENDROOT
BRANCH   9  12
HETATM   12  N5  UNL     1      32.554   8.064  45.912  1.00  0.00    -0.354 N 
HETATM   13  H15 UNL     1      32.511   7.722  44.929  1.00  0.00     0.166 HD
BRANCH  12  14
HETATM   14  C14 UNL     1      33.551   7.531  46.797  1.00  0.00     0.034 A 
HETATM   15  C15 UNL     1      34.408   8.375  47.485  1.00  0.00     0.032 A 
HETATM   16  C16 UNL     1      35.390   7.951  48.358  1.00  0.00     0.046 A 
HETATM   17  C17 UNL     1      35.538   6.590  48.572  1.00  0.00     0.138 A 
HETATM   18  F1  UNL     1      36.488   6.119  49.422  1.00  0.00    -0.204 F 
HETATM   19  C18 UNL     1      34.713   5.700  47.918  1.00  0.00     0.074 A 
HETATM   20 CL1  UNL     1      34.879   3.978  48.177  1.00  0.00    -0.081 Cl
HETATM   21  C19 UNL     1      33.755   6.194  47.059  1.00  0.00     0.056 A 
ENDBRANCH  12  14
ENDBRANCH   9  12
BRANCH   1  22
HETATM   22  N2  UNL     1      27.591   6.478  48.302  1.00  0.00    -0.324 N 
HETATM   23  C6  UNL     1      27.970   5.145  48.665  1.00  0.00     0.245 C 
HETATM   24  O1  UNL     1      29.246   5.163  48.527  1.00  0.00    -0.268 OA
HETATM   25  H11 UNL     1      26.587   6.838  48.303  1.00  0.00     0.169 HD
BRANCH  23  26
HETATM   26  C5  UNL     1      26.960   4.183  49.053  1.00  0.00     0.072 C 
BRANCH  26  27
HETATM   27  C4  UNL     1      26.280   3.262  49.685  1.00  0.00     0.008 C 
BRANCH  27  28
HETATM   28  C3  UNL     1      26.486   2.526  50.967  1.00  0.00     0.299 C 
BRANCH  28  29
HETATM   29  N1  UNL     1      25.357   2.722  51.857  1.00  0.00     0.083 N 
HETATM   30  C1  UNL     1      25.702   2.242  53.160  1.00  0.00     0.309 C 
HETATM   31  C2  UNL     1      24.176   2.068  51.347  1.00  0.00     0.309 C 
ENDBRANCH  28  29
ENDBRANCH  27  28
ENDBRANCH  26  27
ENDBRANCH  23  26
ENDBRANCH   1  22
TORSDOF 7
ENDMDL
MODEL 6
REMARK VINA RESULT:      -7.3      3.523      5.264
REMARK  7 active torsions:
REMARK  status: ('A' for Active; 'I' for Inactive)
REMARK    1  A    between atoms: N1_2  and  C3_4 
REMARK    2  A    between atoms: C3_4  and  C4_5 
REMARK    3  A    between atoms: C4_5  and  C5_6 
REMARK    4  A    between atoms: C5_6  and  C6_7 
REMARK       I    between atoms: C6_7  and  N2_9 
REMARK    5  A    between atoms: N2_9  and  C7_10 
REMARK    6  A    between atoms: C13_18  and  N5_19 
REMARK    7  A    between atoms: N5_19  and  C14_20 
ROOT
HETATM    1  C7  UNL     1      25.773   5.703  49.511  1.00  0.00     0.034 A 
HETATM    2  C8  UNL     1      24.848   6.675  49.388  1.00  0.00     0.034 A 
HETATM    3  C9  UNL     1      23.541   6.136  49.682  1.00  0.00     0.168 A 
HETATM    4  N3  UNL     1      22.675   6.786  50.619  1.00  0.00    -0.286 NA
HETATM    5  C10 UNL     1      21.867   6.079  51.376  1.00  0.00     0.136 C 
HETATM    6  C11 UNL     1      21.841   4.600  51.300  1.00  0.00     0.089 C 
HETATM    7  C12 UNL     1      20.944   3.759  52.083  1.00  0.00     0.103 C 
HETATM    8  N4  UNL     1      20.224   3.081  52.687  1.00  0.00    -0.191 NA
HETATM    9  C13 UNL     1      22.639   3.834  50.498  1.00  0.00     0.064 C 
HETATM   10  C20 UNL     1      23.757   4.742  50.071  1.00  0.00     0.001 A 
HETATM   11  C21 UNL     1      25.083   4.505  49.935  1.00  0.00     0.041 A 
ENDROOT
BRANCH   9  12
HETATM   12  N5  UNL     1      22.821   2.485  50.205  1.00  0.00    -0.354 N 
HETATM   13  H15 UNL     1      22.700   2.018  49.281  1.00  0.00     0.166 HD
BRANCH  12  14
HETATM   14  C14 UNL     1      23.220   1.700  51.339  1.00  0.00     0.034 A 
HETATM   15  C15 UNL     1      22.459   0.619  51.752  1.00  0.00     0.032 A 
HETATM   16  C16 UNL     1      22.769  -0.192  52.826  1.00  0.00     0.046 A 
HETATM   17  C17 UNL     1      23.920   0.083  53.549  1.00  0.00     0.138 A 
HETATM   18  F1  UNL     1      24.272  -0.682  54.614  1.00  0.00    -0.204 F 
HETATM   19  C18 UNL     1      24.719   1.147  53.185  1.00  0.00     0.074 A 
HETATM   20 CL1  UNL     1      26.178   1.508  54.079  1.00  0.00    -0.081 Cl
HETATM   21  C19 UNL     1      24.347   1.914  52.102  1.00  0.00     0.056 A 
ENDBRANCH  12  14
ENDBRANCH   9  12
BRANCH   1  22
HETATM   22  N2  UNL     1      27.051   6.225  49.215  1.00  0.00    -0.324 N 
HETATM   23  C6  UNL     1      27.916   5.227  48.658  1.00  0.00     0.245 C 
HETATM   24  O1  UNL     1      27.168   4.184  48.630  1.00  0.00    -0.268 OA
HETATM   25  H11 UNL     1      27.335   7.238  49.386  1.00  0.00     0.169 HD
BRANCH  23  26
HETATM   26  C5  UNL     1      29.277   5.565  48.298  1.00  0.00     0.072 C 
BRANCH  26  27
HETATM   27  C4  UNL     1      30.533   5.504  47.942  1.00  0.00     0.008 C 
BRANCH  27  28
HETATM   28  C3  UNL     1      31.818   5.443  48.700  1.00  0.00     0.299 C 
BRANCH  28  29
HETATM   29  N1  UNL     1      32.762   4.562  48.038  1.00  0.00     0.083 N 
HETATM   30  C1  UNL     1      34.083   5.086  48.202  1.00  0.00     0.309 C 
HETATM   31  C2  UNL     1      32.426   4.399  46.644  1.00  0.00     0.309 C 
ENDBRANCH  28  29
ENDBRANCH  27  28
ENDBRANCH  26  27
ENDBRANCH  23  26
ENDBRANCH   1  22
TORSDOF 7
ENDMDL
MODEL 7
REMARK VINA RESULT:      -7.3      3.322      7.543
REMARK  7 active torsions:
REMARK  status: ('A' for Active; 'I' for Inactive)
REMARK    1  A    between atoms: N1_2  and  C3_4 
REMARK    2  A    between atoms: C3_4  and  C4_5 
REMARK    3  A    between atoms: C4_5  and  C5_6 
REMARK    4  A    between atoms: C5_6  and  C6_7 
REMARK       I    between atoms: C6_7  and  N2_9 
REMARK    5  A    between atoms: N2_9  and  C7_10 
REMARK    6  A    between atoms: C13_18  and  N5_19 
REMARK    7  A    between atoms: N5_19  and  C14_20 
ROOT
HETATM    1  C7  UNL     1      20.902   1.691  51.710  1.00  0.00     0.034 A 
HETATM    2  C8  UNL     1      20.929   2.859  52.380  1.00  0.00     0.034 A 
HETATM    3  C9  UNL     1      22.238   3.456  52.255  1.00  0.00     0.168 A 
HETATM    4  N3  UNL     1      22.386   4.818  51.840  1.00  0.00    -0.286 NA
HETATM    5  C10 UNL     1      23.420   5.182  51.115  1.00  0.00     0.136 C 
HETATM    6  C11 UNL     1      24.444   4.200  50.690  1.00  0.00     0.089 C 
HETATM    7  C12 UNL     1      25.632   4.542  49.919  1.00  0.00     0.103 C 
HETATM    8  N4  UNL     1      26.589   4.806  49.320  1.00  0.00    -0.191 NA
HETATM    9  C13 UNL     1      24.418   2.860  50.961  1.00  0.00     0.064 C 
HETATM   10  C20 UNL     1      23.004   2.569  51.378  1.00  0.00     0.001 A 
HETATM   11  C21 UNL     1      22.198   1.521  51.091  1.00  0.00     0.041 A 
ENDROOT
BRANCH   9  12
HETATM   12  N5  UNL     1      25.213   1.741  50.726  1.00  0.00    -0.354 N 
HETATM   13  H15 UNL     1      25.305   1.208  49.836  1.00  0.00     0.166 HD
BRANCH  12  14
HETATM   14  C14 UNL     1      25.967   1.324  51.874  1.00  0.00     0.034 A 
HETATM   15  C15 UNL     1      25.614   0.179  52.572  1.00  0.00     0.032 A 
HETATM   16  C16 UNL     1      26.284  -0.298  53.681  1.00  0.00     0.046 A 
HETATM   17  C17 UNL     1      27.388   0.404  54.137  1.00  0.00     0.138 A 
HETATM   18  F1  UNL     1      28.084  -0.022  55.224  1.00  0.00    -0.204 F 
HETATM   19  C18 UNL     1      27.789   1.550  53.483  1.00  0.00     0.074 A 
HETATM   20 CL1  UNL     1      29.182   2.449  54.039  1.00  0.00    -0.081 Cl
HETATM   21  C19 UNL     1      27.072   1.969  52.383  1.00  0.00     0.056 A 
ENDBRANCH  12  14
ENDBRANCH   9  12
BRANCH   1  22
HETATM   22  N2  UNL     1      19.625   1.102  51.837  1.00  0.00    -0.324 N 
HETATM   23  C6  UNL     1      19.669  -0.093  52.626  1.00  0.00     0.245 C 
HETATM   24  O1  UNL     1      20.909  -0.182  52.942  1.00  0.00    -0.268 OA
HETATM   25  H11 UNL     1      18.739   1.500  51.398  1.00  0.00     0.169 HD
BRANCH  23  26
HETATM   26  C5  UNL     1      18.458  -0.851  52.863  1.00  0.00     0.072 C 
BRANCH  26  27
HETATM   27  C4  UNL     1      17.210  -1.205  53.027  1.00  0.00     0.008 C 
BRANCH  27  28
HETATM   28  C3  UNL     1      15.904  -0.563  52.694  1.00  0.00     0.299 C 
BRANCH  28  29
HETATM   29  N1  UNL     1      15.064  -1.473  51.938  1.00  0.00     0.083 N 
HETATM   30  C1  UNL     1      15.311  -2.812  52.380  1.00  0.00     0.309 C 
HETATM   31  C2  UNL     1      15.296  -1.334  50.520  1.00  0.00     0.309 C 
ENDBRANCH  28  29
ENDBRANCH  27  28
ENDBRANCH  26  27
ENDBRANCH  23  26
ENDBRANCH   1  22
TORSDOF 7
ENDMDL
MODEL 8
REMARK VINA RESULT:      -7.3      2.833      4.647
REMARK  7 active torsions:
REMARK  status: ('A' for Active; 'I' for Inactive)
REMARK    1  A    between atoms: N1_2  and  C3_4 
REMARK    2  A    between atoms: C3_4  and  C4_5 
REMARK    3  A    between atoms: C4_5  and  C5_6 
REMARK    4  A    between atoms: C5_6  and  C6_7 
REMARK       I    between atoms: C6_7  and  N2_9 
REMARK    5  A    between atoms: N2_9  and  C7_10 
REMARK    6  A    between atoms: C13_18  and  N5_19 
REMARK    7  A    between atoms: N5_19  and  C14_20 
ROOT
HETATM    1  C7  UNL     1      25.734   6.339  49.875  1.00  0.00     0.034 A 
HETATM    2  C8  UNL     1      25.377   5.756  48.713  1.00  0.00     0.034 A 
HETATM    3  C9  UNL     1      24.188   4.963  48.918  1.00  0.00     0.168 A 
HETATM    4  N3  UNL     1      23.053   5.109  48.058  1.00  0.00    -0.286 NA
HETATM    5  C10 UNL     1      21.838   4.961  48.534  1.00  0.00     0.136 C 
HETATM    6  C11 UNL     1      21.604   4.661  49.965  1.00  0.00     0.089 C 
HETATM    7  C12 UNL     1      20.286   4.447  50.549  1.00  0.00     0.103 C 
HETATM    8  N4  UNL     1      19.245   4.258  51.021  1.00  0.00    -0.191 NA
HETATM    9  C13 UNL     1      22.576   4.542  50.918  1.00  0.00     0.064 C 
HETATM   10  C20 UNL     1      23.801   5.168  50.314  1.00  0.00     0.001 A 
HETATM   11  C21 UNL     1      24.747   5.965  50.863  1.00  0.00     0.041 A 
ENDROOT
BRANCH   9  12
HETATM   12  N5  UNL     1      22.663   4.255  52.279  1.00  0.00    -0.354 N 
HETATM   13  H15 UNL     1      22.352   4.856  53.071  1.00  0.00     0.166 HD
BRANCH  12  14
HETATM   14  C14 UNL     1      23.252   2.976  52.558  1.00  0.00     0.034 A 
HETATM   15  C15 UNL     1      22.554   1.807  52.303  1.00  0.00     0.032 A 
HETATM   16  C16 UNL     1      23.043   0.537  52.535  1.00  0.00     0.046 A 
HETATM   17  C17 UNL     1      24.320   0.408  53.057  1.00  0.00     0.138 A 
HETATM   18  F1  UNL     1      24.851  -0.818  53.304  1.00  0.00    -0.204 F 
HETATM   19  C18 UNL     1      25.065   1.536  53.331  1.00  0.00     0.074 A 
HETATM   20 CL1  UNL     1      26.681   1.397  53.986  1.00  0.00    -0.081 Cl
HETATM   21  C19 UNL     1      24.513   2.772  53.075  1.00  0.00     0.056 A 
ENDBRANCH  12  14
ENDBRANCH   9  12
BRANCH   1  22
HETATM   22  N2  UNL     1      26.901   7.109  49.680  1.00  0.00    -0.324 N 
HETATM   23  C6  UNL     1      26.645   8.510  49.841  1.00  0.00     0.245 C 
HETATM   24  O1  UNL     1      25.393   8.541  50.121  1.00  0.00    -0.268 OA
HETATM   25  H11 UNL     1      27.855   6.697  49.442  1.00  0.00     0.169 HD
BRANCH  23  26
HETATM   26  C5  UNL     1      27.716   9.468  49.670  1.00  0.00     0.072 C 
BRANCH  26  27
HETATM   27  C4  UNL     1      28.863  10.034  49.396  1.00  0.00     0.008 C 
BRANCH  27  28
HETATM   28  C3  UNL     1      30.279   9.563  49.427  1.00  0.00     0.299 C 
BRANCH  28  29
HETATM   29  N1  UNL     1      30.375   8.198  48.945  1.00  0.00     0.083 N 
HETATM   30  C1  UNL     1      31.573   7.606  49.457  1.00  0.00     0.309 C 
HETATM   31  C2  UNL     1      30.339   8.156  47.503  1.00  0.00     0.309 C 
ENDBRANCH  28  29
ENDBRANCH  27  28
ENDBRANCH  26  27
ENDBRANCH  23  26
ENDBRANCH   1  22
TORSDOF 7
ENDMDL
MODEL 9
REMARK VINA RESULT:      -7.2      4.689      9.699
REMARK  7 active torsions:
REMARK  status: ('A' for Active; 'I' for Inactive)
REMARK    1  A    between atoms: N1_2  and  C3_4 
REMARK    2  A    between atoms: C3_4  and  C4_5 
REMARK    3  A    between atoms: C4_5  and  C5_6 
REMARK    4  A    between atoms: C5_6  and  C6_7 
REMARK       I    between atoms: C6_7  and  N2_9 
REMARK    5  A    between atoms: N2_9  and  C7_10 
REMARK    6  A    between atoms: C13_18  and  N5_19 
REMARK    7  A    between atoms: N5_19  and  C14_20 
ROOT
HETATM    1  C7  UNL     1      25.785   4.173  50.535  1.00  0.00     0.034 A 
HETATM    2  C8  UNL     1      26.739   3.667  49.729  1.00  0.00     0.034 A 
HETATM    3  C9  UNL     1      27.070   4.632  48.708  1.00  0.00     0.168 A 
HETATM    4  N3  UNL     1      28.432   4.995  48.456  1.00  0.00    -0.286 NA
HETATM    5  C10 UNL     1      28.734   6.219  48.086  1.00  0.00     0.136 C 
HETATM    6  C11 UNL     1      27.689   7.257  47.938  1.00  0.00     0.089 C 
HETATM    7  C12 UNL     1      27.950   8.621  47.494  1.00  0.00     0.103 C 
HETATM    8  N4  UNL     1      28.144   9.702  47.126  1.00  0.00    -0.191 NA
HETATM    9  C13 UNL     1      26.357   7.082  48.189  1.00  0.00     0.064 C 
HETATM   10  C20 UNL     1      26.271   5.822  49.004  1.00  0.00     0.001 A 
HETATM   11  C21 UNL     1      25.502   5.514  50.073  1.00  0.00     0.041 A 
ENDROOT
BRANCH   9  12
HETATM   12  N5  UNL     1      25.184   7.829  48.122  1.00  0.00    -0.354 N 
HETATM   13  H15 UNL     1      24.838   8.526  48.815  1.00  0.00     0.166 HD
BRANCH  12  14
HETATM   14  C14 UNL     1      24.406   7.570  46.943  1.00  0.00     0.034 A 
HETATM   15  C15 UNL     1      23.259   6.795  47.010  1.00  0.00     0.032 A 
HETATM   16  C16 UNL     1      22.451   6.500  45.931  1.00  0.00     0.046 A 
HETATM   17  C17 UNL     1      22.797   7.008  44.689  1.00  0.00     0.138 A 
HETATM   18  F1  UNL     1      22.036   6.749  43.594  1.00  0.00    -0.204 F 
HETATM   19  C18 UNL     1      23.927   7.788  44.559  1.00  0.00     0.074 A 
HETATM   20 CL1  UNL     1      24.380   8.444  43.002  1.00  0.00    -0.081 Cl
HETATM   21  C19 UNL     1      24.688   8.041  45.679  1.00  0.00     0.056 A 
ENDBRANCH  12  14
ENDBRANCH   9  12
BRANCH   1  22
HETATM   22  N2  UNL     1      25.454   3.228  51.530  1.00  0.00    -0.324 N 
HETATM   23  C6  UNL     1      24.227   2.551  51.231  1.00  0.00     0.245 C 
HETATM   24  O1  UNL     1      23.874   3.079  50.116  1.00  0.00    -0.268 OA
HETATM   25  H11 UNL     1      26.047   3.042  52.396  1.00  0.00     0.169 HD
BRANCH  23  26
HETATM   26  C5  UNL     1      23.711   1.549  52.140  1.00  0.00     0.072 C 
BRANCH  26  27
HETATM   27  C4  UNL     1      23.422   0.419  52.730  1.00  0.00     0.008 C 
BRANCH  27  28
HETATM   28  C3  UNL     1      24.216  -0.555  53.538  1.00  0.00     0.299 C 
BRANCH  28  29
HETATM   29  N1  UNL     1      25.617  -0.179  53.562  1.00  0.00     0.083 N 
HETATM   30  C1  UNL     1      26.368  -1.131  52.802  1.00  0.00     0.309 C 
HETATM   31  C2  UNL     1      26.103  -0.081  54.917  1.00  0.00     0.309 C 
ENDBRANCH  28  29
ENDBRANCH  27  28
ENDBRANCH  26  27
ENDBRANCH  23  26
ENDBRANCH   1  22
TORSDOF 7
ENDMDL
