MODEL 1
REMARK VINA RESULT:      -8.5      0.000      0.000
REMARK  7 active torsions:
REMARK  status: ('A' for Active; 'I' for Inactive)
REMARK    1  A    between atoms: C6_6  and  C7_7 
REMARK    2  A    between atoms: C7_7  and  N1_8 
REMARK    3  A    between atoms: N1_8  and  C8_9 
REMARK       I    between atoms: N1_8  and  C15_17 
REMARK    4  A    between atoms: C8_9  and  C9_10 
REMARK    5  A    between atoms: C12_13  and  O1_14 
REMARK    6  A    between atoms: C15_17  and  C16_19 
REMARK    7  A    between atoms: C21_24  and  O3_25 
ROOT
HETATM    1  N1  UNL     1      25.650   1.557  52.964  1.00  0.00    -0.339 N 
HETATM    2  C15 UNL     1      26.945   1.239  53.417  1.00  0.00     0.254 C 
HETATM    3  O2  UNL     1      27.029   2.331  54.027  1.00  0.00    -0.267 OA
ENDROOT
BRANCH   1   4
HETATM    4  C7  UNL     1      25.095   2.840  53.323  1.00  0.00     0.167 C 
BRANCH   4   5
HETATM    5  C6  UNL     1      24.283   3.510  52.291  1.00  0.00    -0.007 A 
HETATM    6  C5  UNL     1      22.896   3.607  52.464  1.00  0.00     0.011 A 
HETATM    7  C4  UNL     1      22.058   4.215  51.554  1.00  0.00     0.001 A 
HETATM    8  C3  UNL     1      22.570   4.779  50.384  1.00  0.00     0.009 A 
HETATM    9  C2  UNL     1      23.932   4.698  50.189  1.00  0.00    -0.028 A 
HETATM   10  C1  UNL     1      24.504   5.297  48.938  1.00  0.00     0.051 C 
HETATM   11  C21 UNL     1      24.726   4.082  51.123  1.00  0.00     0.079 A 
BRANCH  11  12
HETATM   12  O3  UNL     1      26.056   4.058  50.821  1.00  0.00    -0.360 OA
HETATM   13  H19 UNL     1      26.788   4.555  51.303  1.00  0.00     0.217 HD
ENDBRANCH  11  12
ENDBRANCH   4   5
ENDBRANCH   1   4
BRANCH   1  14
HETATM   14  C8  UNL     1      24.990   0.510  52.201  1.00  0.00     0.165 C 
BRANCH  14  15
HETATM   15  C9  UNL     1      23.877  -0.100  53.018  1.00  0.00    -0.040 A 
HETATM   16  C10 UNL     1      22.594  -0.030  52.454  1.00  0.00     0.011 A 
HETATM   17  C11 UNL     1      21.435  -0.519  53.019  1.00  0.00     0.037 A 
HETATM   18  C12 UNL     1      21.557  -1.130  54.251  1.00  0.00     0.065 A 
HETATM   19  C13 UNL     1      22.805  -1.215  54.832  1.00  0.00     0.037 A 
HETATM   20  C14 UNL     1      23.931  -0.722  54.246  1.00  0.00     0.011 A 
BRANCH  18  21
HETATM   21  O1  UNL     1      20.448  -1.653  54.899  1.00  0.00    -0.361 OA
HETATM   22  H13 UNL     1      19.721  -2.070  54.328  1.00  0.00     0.217 HD
ENDBRANCH  18  21
ENDBRANCH  14  15
ENDBRANCH   1  14
BRANCH   2  23
HETATM   23  C16 UNL     1      28.044   0.310  53.457  1.00  0.00     0.033 C 
HETATM   24  C17 UNL     1      29.228   0.806  53.711  1.00  0.00     0.018 C 
HETATM   25  C18 UNL     1      30.097  -0.390  53.678  1.00  0.00     0.013 C 
HETATM   26  C19 UNL     1      29.360  -1.407  53.296  1.00  0.00    -0.025 C 
HETATM   27  C20 UNL     1      28.072  -1.122  53.251  1.00  0.00     0.029 C 
ENDBRANCH   2  23
TORSDOF 7
ENDMDL
MODEL 2
REMARK VINA RESULT:      -8.4      2.025      5.016
REMARK  7 active torsions:
REMARK  status: ('A' for Active; 'I' for Inactive)
REMARK    1  A    between atoms: C6_6  and  C7_7 
REMARK    2  A    between atoms: C7_7  and  N1_8 
REMARK    3  A    between atoms: N1_8  and  C8_9 
REMARK       I    between atoms: N1_8  and  C15_17 
REMARK    4  A    between atoms: C8_9  and  C9_10 
REMARK    5  A    between atoms: C12_13  and  O1_14 
REMARK    6  A    between atoms: C15_17  and  C16_19 
REMARK    7  A    between atoms: C21_24  and  O3_25 
ROOT
HETATM    1  N1  UNL     1      23.806   2.288  51.792  1.00  0.00    -0.339 N 
HETATM    2  C15 UNL     1      22.914   1.269  52.179  1.00  0.00     0.254 C 
HETATM    3  O2  UNL     1      22.369   1.280  51.050  1.00  0.00    -0.267 OA
ENDROOT
BRANCH   1   4
HETATM    4  C7  UNL     1      23.680   2.839  50.463  1.00  0.00     0.167 C 
BRANCH   4   5
HETATM    5  C6  UNL     1      24.711   3.813  50.063  1.00  0.00    -0.007 A 
HETATM    6  C5  UNL     1      25.900   3.354  49.480  1.00  0.00     0.011 A 
HETATM    7  C4  UNL     1      26.918   4.189  49.073  1.00  0.00     0.001 A 
HETATM    8  C3  UNL     1      26.807   5.573  49.229  1.00  0.00     0.009 A 
HETATM    9  C2  UNL     1      25.647   6.050  49.801  1.00  0.00    -0.028 A 
HETATM   10  C1  UNL     1      25.507   7.533  49.979  1.00  0.00     0.051 C 
HETATM   11  C21 UNL     1      24.662   5.180  50.190  1.00  0.00     0.079 A 
BRANCH  11  12
HETATM   12  O3  UNL     1      23.563   5.767  50.746  1.00  0.00    -0.360 OA
HETATM   13  H19 UNL     1      23.549   6.361  51.559  1.00  0.00     0.217 HD
ENDBRANCH  11  12
ENDBRANCH   4   5
ENDBRANCH   1   4
BRANCH   1  14
HETATM   14  C8  UNL     1      24.801   2.647  52.788  1.00  0.00     0.165 C 
BRANCH  14  15
HETATM   15  C9  UNL     1      25.805   1.529  52.940  1.00  0.00    -0.040 A 
HETATM   16  C10 UNL     1      26.311   1.332  54.234  1.00  0.00     0.011 A 
HETATM   17  C11 UNL     1      27.232   0.375  54.605  1.00  0.00     0.037 A 
HETATM   18  C12 UNL     1      27.693  -0.459  53.606  1.00  0.00     0.065 A 
HETATM   19  C13 UNL     1      27.215  -0.291  52.324  1.00  0.00     0.037 A 
HETATM   20  C14 UNL     1      26.304   0.665  51.991  1.00  0.00     0.011 A 
BRANCH  18  21
HETATM   21  O1  UNL     1      28.621  -1.453  53.881  1.00  0.00    -0.361 OA
HETATM   22  H13 UNL     1      29.463  -1.481  53.317  1.00  0.00     0.217 HD
ENDBRANCH  18  21
ENDBRANCH  14  15
ENDBRANCH   1  14
BRANCH   2  23
HETATM   23  C16 UNL     1      22.445   0.359  53.192  1.00  0.00     0.033 C 
HETATM   24  C17 UNL     1      21.255   0.586  53.685  1.00  0.00     0.018 C 
HETATM   25  C18 UNL     1      21.096  -0.505  54.669  1.00  0.00     0.013 C 
HETATM   26  C19 UNL     1      22.233  -1.158  54.728  1.00  0.00    -0.025 C 
HETATM   27  C20 UNL     1      23.084  -0.795  53.786  1.00  0.00     0.029 C 
ENDBRANCH   2  23
TORSDOF 7
ENDMDL
MODEL 3
REMARK VINA RESULT:      -8.0      2.328      5.653
REMARK  7 active torsions:
REMARK  status: ('A' for Active; 'I' for Inactive)
REMARK    1  A    between atoms: C6_6  and  C7_7 
REMARK    2  A    between atoms: C7_7  and  N1_8 
REMARK    3  A    between atoms: N1_8  and  C8_9 
REMARK       I    between atoms: N1_8  and  C15_17 
REMARK    4  A    between atoms: C8_9  and  C9_10 
REMARK    5  A    between atoms: C12_13  and  O1_14 
REMARK    6  A    between atoms: C15_17  and  C16_19 
REMARK    7  A    between atoms: C21_24  and  O3_25 
ROOT
HETATM    1  N1  UNL     1      25.364   3.508  50.557  1.00  0.00    -0.339 N 
HETATM    2  C15 UNL     1      25.833   4.712  49.998  1.00  0.00     0.254 C 
HETATM    3  O2  UNL     1      24.915   5.360  50.553  1.00  0.00    -0.267 OA
ENDROOT
BRANCH   1   4
HETATM    4  C7  UNL     1      24.174   3.550  51.373  1.00  0.00     0.167 C 
BRANCH   4   5
HETATM    5  C6  UNL     1      23.260   2.401  51.252  1.00  0.00    -0.007 A 
HETATM    6  C5  UNL     1      22.491   2.254  50.090  1.00  0.00     0.011 A 
HETATM    7  C4  UNL     1      21.612   1.212  49.888  1.00  0.00     0.001 A 
HETATM    8  C3  UNL     1      21.442   0.226  50.862  1.00  0.00     0.009 A 
HETATM    9  C2  UNL     1      22.187   0.347  52.016  1.00  0.00    -0.028 A 
HETATM   10  C1  UNL     1      22.021  -0.701  53.076  1.00  0.00     0.051 C 
HETATM   11  C21 UNL     1      23.050   1.402  52.171  1.00  0.00     0.079 A 
BRANCH  11  12
HETATM   12  O3  UNL     1      23.730   1.418  53.354  1.00  0.00    -0.360 OA
HETATM   13  H19 UNL     1      24.056   0.616  53.869  1.00  0.00     0.217 HD
ENDBRANCH  11  12
ENDBRANCH   4   5
ENDBRANCH   1   4
BRANCH   1  14
HETATM   14  C8  UNL     1      26.178   2.338  50.272  1.00  0.00     0.165 C 
BRANCH  14  15
HETATM   15  C9  UNL     1      26.722   1.762  51.557  1.00  0.00    -0.040 A 
HETATM   16  C10 UNL     1      26.562   0.379  51.725  1.00  0.00     0.011 A 
HETATM   17  C11 UNL     1      26.980  -0.358  52.813  1.00  0.00     0.037 A 
HETATM   18  C12 UNL     1      27.610   0.339  53.825  1.00  0.00     0.065 A 
HETATM   19  C13 UNL     1      27.783   1.700  53.690  1.00  0.00     0.037 A 
HETATM   20  C14 UNL     1      27.358   2.397  52.601  1.00  0.00     0.011 A 
BRANCH  18  21
HETATM   21  O1  UNL     1      28.067  -0.314  54.961  1.00  0.00    -0.361 OA
HETATM   22  H13 UNL     1      27.380  -0.591  55.654  1.00  0.00     0.217 HD
ENDBRANCH  18  21
ENDBRANCH  14  15
ENDBRANCH   1  14
BRANCH   2  23
HETATM   23  C16 UNL     1      26.794   5.397  49.171  1.00  0.00     0.033 C 
HETATM   24  C17 UNL     1      26.494   6.615  48.803  1.00  0.00     0.018 C 
HETATM   25  C18 UNL     1      27.664   7.008  47.990  1.00  0.00     0.013 C 
HETATM   26  C19 UNL     1      28.440   5.956  47.875  1.00  0.00    -0.025 C 
HETATM   27  C20 UNL     1      28.070   4.956  48.653  1.00  0.00     0.029 C 
ENDBRANCH   2  23
TORSDOF 7
ENDMDL
MODEL 4
REMARK VINA RESULT:      -7.9      2.468      6.538
REMARK  7 active torsions:
REMARK  status: ('A' for Active; 'I' for Inactive)
REMARK    1  A    between atoms: C6_6  and  C7_7 
REMARK    2  A    between atoms: C7_7  and  N1_8 
REMARK    3  A    between atoms: N1_8  and  C8_9 
REMARK       I    between atoms: N1_8  and  C15_17 
REMARK    4  A    between atoms: C8_9  and  C9_10 
REMARK    5  A    between atoms: C12_13  and  O1_14 
REMARK    6  A    between atoms: C15_17  and  C16_19 
REMARK    7  A    between atoms: C21_24  and  O3_25 
ROOT
HETATM    1  N1  UNL     1      24.408   3.279  52.120  1.00  0.00    -0.339 N 
HETATM    2  C15 UNL     1      23.816   4.552  52.226  1.00  0.00     0.254 C 
HETATM    3  O2  UNL     1      23.836   4.488  53.478  1.00  0.00    -0.267 OA
ENDROOT
BRANCH   1   4
HETATM    4  C7  UNL     1      24.695   2.555  53.336  1.00  0.00     0.167 C 
BRANCH   4   5
HETATM    5  C6  UNL     1      25.691   1.474  53.229  1.00  0.00    -0.007 A 
HETATM    6  C5  UNL     1      25.282   0.203  52.803  1.00  0.00     0.011 A 
HETATM    7  C4  UNL     1      26.142  -0.867  52.673  1.00  0.00     0.001 A 
HETATM    8  C3  UNL     1      27.499  -0.728  52.968  1.00  0.00     0.009 A 
HETATM    9  C2  UNL     1      27.928   0.513  53.390  1.00  0.00    -0.028 A 
HETATM   10  C1  UNL     1      29.382   0.685  53.714  1.00  0.00     0.051 C 
HETATM   11  C21 UNL     1      27.035   1.547  53.505  1.00  0.00     0.079 A 
BRANCH  11  12
HETATM   12  O3  UNL     1      27.572   2.726  53.934  1.00  0.00    -0.360 OA
HETATM   13  H19 UNL     1      28.374   3.195  53.545  1.00  0.00     0.217 HD
ENDBRANCH  11  12
ENDBRANCH   4   5
ENDBRANCH   1   4
BRANCH   1  14
HETATM   14  C8  UNL     1      24.707   2.850  50.765  1.00  0.00     0.165 C 
BRANCH  14  15
HETATM   15  C9  UNL     1      23.425   2.582  50.014  1.00  0.00    -0.040 A 
HETATM   16  C10 UNL     1      23.236   3.326  48.839  1.00  0.00     0.011 A 
HETATM   17  C11 UNL     1      22.147   3.247  47.998  1.00  0.00     0.037 A 
HETATM   18  C12 UNL     1      21.156   2.353  48.352  1.00  0.00     0.065 A 
HETATM   19  C13 UNL     1      21.312   1.606  49.500  1.00  0.00     0.037 A 
HETATM   20  C14 UNL     1      22.402   1.709  50.310  1.00  0.00     0.011 A 
BRANCH  18  21
HETATM   21  O1  UNL     1      20.021   2.202  47.569  1.00  0.00    -0.361 OA
HETATM   22  H13 UNL     1      19.962   2.745  46.714  1.00  0.00     0.217 HD
ENDBRANCH  18  21
ENDBRANCH  14  15
ENDBRANCH   1  14
BRANCH   2  23
HETATM   23  C16 UNL     1      23.277   5.720  51.578  1.00  0.00     0.033 C 
HETATM   24  C17 UNL     1      21.982   5.752  51.398  1.00  0.00     0.018 C 
HETATM   25  C18 UNL     1      21.777   7.053  50.727  1.00  0.00     0.013 C 
HETATM   26  C19 UNL     1      22.960   7.567  50.485  1.00  0.00    -0.025 C 
HETATM   27  C20 UNL     1      23.940   6.900  51.067  1.00  0.00     0.029 C 
ENDBRANCH   2  23
TORSDOF 7
ENDMDL
MODEL 5
REMARK VINA RESULT:      -7.8      1.755      5.837
REMARK  7 active torsions:
REMARK  status: ('A' for Active; 'I' for Inactive)
REMARK    1  A    between atoms: C6_6  and  C7_7 
REMARK    2  A    between atoms: C7_7  and  N1_8 
REMARK    3  A    between atoms: N1_8  and  C8_9 
REMARK       I    between atoms: N1_8  and  C15_17 
REMARK    4  A    between atoms: C8_9  and  C9_10 
REMARK    5  A    between atoms: C12_13  and  O1_14 
REMARK    6  A    between atoms: C15_17  and  C16_19 
REMARK    7  A    between atoms: C21_24  and  O3_25 
ROOT
HETATM    1  N1  UNL     1      25.107   3.153  51.120  1.00  0.00    -0.339 N 
HETATM    2  C15 UNL     1      24.603   3.242  49.809  1.00  0.00     0.254 C 
HETATM    3  O2  UNL     1      25.739   3.018  49.327  1.00  0.00    -0.267 OA
ENDROOT
BRANCH   1   4
HETATM    4  C7  UNL     1      26.521   2.918  51.296  1.00  0.00     0.167 C 
BRANCH   4   5
HETATM    5  C6  UNL     1      26.891   1.679  52.002  1.00  0.00    -0.007 A 
HETATM    6  C5  UNL     1      26.525   0.441  51.456  1.00  0.00     0.011 A 
HETATM    7  C4  UNL     1      26.829  -0.768  52.044  1.00  0.00     0.001 A 
HETATM    8  C3  UNL     1      27.536  -0.815  53.247  1.00  0.00     0.009 A 
HETATM    9  C2  UNL     1      27.909   0.389  53.805  1.00  0.00    -0.028 A 
HETATM   10  C1  UNL     1      28.670   0.363  55.098  1.00  0.00     0.051 C 
HETATM   11  C21 UNL     1      27.583   1.567  53.183  1.00  0.00     0.079 A 
BRANCH  11  12
HETATM   12  O3  UNL     1      28.001   2.694  53.830  1.00  0.00    -0.360 OA
HETATM   13  H19 UNL     1      28.943   2.904  54.118  1.00  0.00     0.217 HD
ENDBRANCH  11  12
ENDBRANCH   4   5
ENDBRANCH   1   4
BRANCH   1  14
HETATM   14  C8  UNL     1      24.111   3.271  52.172  1.00  0.00     0.165 C 
BRANCH  14  15
HETATM   15  C9  UNL     1      23.424   1.944  52.384  1.00  0.00    -0.040 A 
HETATM   16  C10 UNL     1      23.904   1.168  53.450  1.00  0.00     0.011 A 
HETATM   17  C11 UNL     1      23.429  -0.070  53.827  1.00  0.00     0.037 A 
HETATM   18  C12 UNL     1      22.389  -0.587  53.081  1.00  0.00     0.065 A 
HETATM   19  C13 UNL     1      21.894   0.151  52.027  1.00  0.00     0.037 A 
HETATM   20  C14 UNL     1      22.386   1.373  51.681  1.00  0.00     0.011 A 
BRANCH  18  21
HETATM   21  O1  UNL     1      21.844  -1.826  53.383  1.00  0.00    -0.361 OA
HETATM   22  H13 UNL     1      22.464  -2.629  53.375  1.00  0.00     0.217 HD
ENDBRANCH  18  21
ENDBRANCH  14  15
ENDBRANCH   1  14
BRANCH   2  23
HETATM   23  C16 UNL     1      23.482   3.454  48.929  1.00  0.00     0.033 C 
HETATM   24  C17 UNL     1      23.076   4.688  48.776  1.00  0.00     0.018 C 
HETATM   25  C18 UNL     1      21.944   4.545  47.837  1.00  0.00     0.013 C 
HETATM   26  C19 UNL     1      21.742   3.262  47.648  1.00  0.00    -0.025 C 
HETATM   27  C20 UNL     1      22.695   2.510  48.167  1.00  0.00     0.029 C 
ENDBRANCH   2  23
TORSDOF 7
ENDMDL
MODEL 6
REMARK VINA RESULT:      -7.6      1.891      6.033
REMARK  7 active torsions:
REMARK  status: ('A' for Active; 'I' for Inactive)
REMARK    1  A    between atoms: C6_6  and  C7_7 
REMARK    2  A    between atoms: C7_7  and  N1_8 
REMARK    3  A    between atoms: N1_8  and  C8_9 
REMARK       I    between atoms: N1_8  and  C15_17 
REMARK    4  A    between atoms: C8_9  and  C9_10 
REMARK    5  A    between atoms: C12_13  and  O1_14 
REMARK    6  A    between atoms: C15_17  and  C16_19 
REMARK    7  A    between atoms: C21_24  and  O3_25 
ROOT
HETATM    1  N1  UNL     1      24.777   2.933  51.712  1.00  0.00    -0.339 N 
HETATM    2  C15 UNL     1      24.502   4.179  51.118  1.00  0.00     0.254 C 
HETATM    3  O2  UNL     1      23.780   4.513  52.087  1.00  0.00    -0.267 OA
ENDROOT
BRANCH   1   4
HETATM    4  C7  UNL     1      24.155   2.626  52.978  1.00  0.00     0.167 C 
BRANCH   4   5
HETATM    5  C6  UNL     1      23.217   1.490  52.984  1.00  0.00    -0.007 A 
HETATM    6  C5  UNL     1      23.604   0.282  53.580  1.00  0.00     0.011 A 
HETATM    7  C4  UNL     1      22.795  -0.832  53.634  1.00  0.00     0.001 A 
HETATM    8  C3  UNL     1      21.513  -0.806  53.080  1.00  0.00     0.009 A 
HETATM    9  C2  UNL     1      21.108   0.370  52.487  1.00  0.00    -0.028 A 
HETATM   10  C1  UNL     1      19.735   0.420  51.884  1.00  0.00     0.051 C 
HETATM   11  C21 UNL     1      21.949   1.453  52.457  1.00  0.00     0.079 A 
BRANCH  11  12
HETATM   12  O3  UNL     1      21.441   2.559  51.841  1.00  0.00    -0.360 OA
HETATM   13  H19 UNL     1      20.755   3.192  52.219  1.00  0.00     0.217 HD
ENDBRANCH  11  12
ENDBRANCH   4   5
ENDBRANCH   1   4
BRANCH   1  14
HETATM   14  C8  UNL     1      25.713   2.095  50.981  1.00  0.00     0.165 C 
BRANCH  14  15
HETATM   15  C9  UNL     1      26.688   1.453  51.938  1.00  0.00    -0.040 A 
HETATM   16  C10 UNL     1      26.656   0.052  51.997  1.00  0.00     0.011 A 
HETATM   17  C11 UNL     1      27.453  -0.742  52.795  1.00  0.00     0.037 A 
HETATM   18  C12 UNL     1      28.360  -0.090  53.607  1.00  0.00     0.065 A 
HETATM   19  C13 UNL     1      28.416   1.287  53.572  1.00  0.00     0.037 A 
HETATM   20  C14 UNL     1      27.614   2.042  52.771  1.00  0.00     0.011 A 
BRANCH  18  21
HETATM   21  O1  UNL     1      29.204  -0.802  54.445  1.00  0.00    -0.361 OA
HETATM   22  H13 UNL     1      29.517  -1.716  54.135  1.00  0.00     0.217 HD
ENDBRANCH  18  21
ENDBRANCH  14  15
ENDBRANCH   1  14
BRANCH   2  23
HETATM   23  C16 UNL     1      24.685   5.088  50.016  1.00  0.00     0.033 C 
HETATM   24  C17 UNL     1      23.658   5.275  49.227  1.00  0.00     0.018 C 
HETATM   25  C18 UNL     1      24.180   6.237  48.234  1.00  0.00     0.013 C 
HETATM   26  C19 UNL     1      25.459   6.405  48.476  1.00  0.00    -0.025 C 
HETATM   27  C20 UNL     1      25.845   5.850  49.609  1.00  0.00     0.029 C 
ENDBRANCH   2  23
TORSDOF 7
ENDMDL
MODEL 7
REMARK VINA RESULT:      -7.6      2.234      5.173
REMARK  7 active torsions:
REMARK  status: ('A' for Active; 'I' for Inactive)
REMARK    1  A    between atoms: C6_6  and  C7_7 
REMARK    2  A    between atoms: C7_7  and  N1_8 
REMARK    3  A    between atoms: N1_8  and  C8_9 
REMARK       I    between atoms: N1_8  and  C15_17 
REMARK    4  A    between atoms: C8_9  and  C9_10 
REMARK    5  A    between atoms: C12_13  and  O1_14 
REMARK    6  A    between atoms: C15_17  and  C16_19 
REMARK    7  A    between atoms: C21_24  and  O3_25 
ROOT
HETATM    1  N1  UNL     1      22.094   2.513  51.887  1.00  0.00    -0.339 N 
HETATM    2  C15 UNL     1      21.215   1.763  52.691  1.00  0.00     0.254 C 
HETATM    3  O2  UNL     1      20.478   2.762  52.867  1.00  0.00    -0.267 OA
ENDROOT
BRANCH   1   4
HETATM    4  C7  UNL     1      21.811   3.915  51.689  1.00  0.00     0.167 C 
BRANCH   4   5
HETATM    5  C6  UNL     1      22.666   4.620  50.718  1.00  0.00    -0.007 A 
HETATM    6  C5  UNL     1      22.509   4.362  49.350  1.00  0.00     0.011 A 
HETATM    7  C4  UNL     1      23.261   4.974  48.370  1.00  0.00     0.001 A 
HETATM    8  C3  UNL     1      24.244   5.907  48.708  1.00  0.00     0.009 A 
HETATM    9  C2  UNL     1      24.419   6.179  50.048  1.00  0.00    -0.028 A 
HETATM   10  C1  UNL     1      25.470   7.178  50.434  1.00  0.00     0.051 C 
HETATM   11  C21 UNL     1      23.646   5.545  50.986  1.00  0.00     0.079 A 
BRANCH  11  12
HETATM   12  O3  UNL     1      23.912   5.891  52.279  1.00  0.00    -0.360 OA
HETATM   13  H19 UNL     1      23.357   5.658  53.087  1.00  0.00     0.217 HD
ENDBRANCH  11  12
ENDBRANCH   4   5
ENDBRANCH   1   4
BRANCH   1  14
HETATM   14  C8  UNL     1      23.189   1.760  51.301  1.00  0.00     0.165 C 
BRANCH  14  15
HETATM   15  C9  UNL     1      24.314   1.623  52.299  1.00  0.00    -0.040 A 
HETATM   16  C10 UNL     1      24.852   0.336  52.445  1.00  0.00     0.011 A 
HETATM   17  C11 UNL     1      25.879  -0.020  53.292  1.00  0.00     0.037 A 
HETATM   18  C12 UNL     1      26.420   0.987  54.066  1.00  0.00     0.065 A 
HETATM   19  C13 UNL     1      25.914   2.264  53.946  1.00  0.00     0.037 A 
HETATM   20  C14 UNL     1      24.898   2.582  53.097  1.00  0.00     0.011 A 
BRANCH  18  21
HETATM   21  O1  UNL     1      27.458   0.727  54.949  1.00  0.00    -0.361 OA
HETATM   22  H13 UNL     1      27.792  -0.228  55.016  1.00  0.00     0.217 HD
ENDBRANCH  18  21
ENDBRANCH  14  15
ENDBRANCH   1  14
BRANCH   2  23
HETATM   23  C16 UNL     1      20.872   0.504  53.301  1.00  0.00     0.033 C 
HETATM   24  C17 UNL     1      21.724   0.013  54.164  1.00  0.00     0.018 C 
HETATM   25  C18 UNL     1      21.076  -1.248  54.582  1.00  0.00     0.013 C 
HETATM   26  C19 UNL     1      20.003  -1.409  53.843  1.00  0.00    -0.025 C 
HETATM   27  C20 UNL     1      19.716  -0.346  53.115  1.00  0.00     0.029 C 
ENDBRANCH   2  23
TORSDOF 7
ENDMDL
MODEL 8
REMARK VINA RESULT:      -7.5      1.781      5.958
REMARK  7 active torsions:
REMARK  status: ('A' for Active; 'I' for Inactive)
REMARK    1  A    between atoms: C6_6  and  C7_7 
REMARK    2  A    between atoms: C7_7  and  N1_8 
REMARK    3  A    between atoms: N1_8  and  C8_9 
REMARK       I    between atoms: N1_8  and  C15_17 
REMARK    4  A    between atoms: C8_9  and  C9_10 
REMARK    5  A    between atoms: C12_13  and  O1_14 
REMARK    6  A    between atoms: C15_17  and  C16_19 
REMARK    7  A    between atoms: C21_24  and  O3_25 
ROOT
HETATM    1  N1  UNL     1      25.025   3.136  51.508  1.00  0.00    -0.339 N 
HETATM    2  C15 UNL     1      24.751   4.336  50.825  1.00  0.00     0.254 C 
HETATM    3  O2  UNL     1      25.542   4.024  49.903  1.00  0.00    -0.267 OA
ENDROOT
BRANCH   1   4
HETATM    4  C7  UNL     1      25.992   2.228  50.938  1.00  0.00     0.167 C 
BRANCH   4   5
HETATM    5  C6  UNL     1      26.699   1.351  51.887  1.00  0.00    -0.007 A 
HETATM    6  C5  UNL     1      26.341  -0.001  51.971  1.00  0.00     0.011 A 
HETATM    7  C4  UNL     1      26.946  -0.896  52.827  1.00  0.00     0.001 A 
HETATM    8  C3  UNL     1      27.976  -0.482  53.675  1.00  0.00     0.009 A 
HETATM    9  C2  UNL     1      28.348   0.844  53.612  1.00  0.00    -0.028 A 
HETATM   10  C1  UNL     1      29.452   1.311  54.515  1.00  0.00     0.051 C 
HETATM   11  C21 UNL     1      27.716   1.696  52.744  1.00  0.00     0.079 A 
BRANCH  11  12
HETATM   12  O3  UNL     1      28.166   2.984  52.773  1.00  0.00    -0.360 OA
HETATM   13  H19 UNL     1      28.960   3.329  53.287  1.00  0.00     0.217 HD
ENDBRANCH  11  12
ENDBRANCH   4   5
ENDBRANCH   1   4
BRANCH   1  14
HETATM   14  C8  UNL     1      24.250   2.926  52.720  1.00  0.00     0.165 C 
BRANCH  14  15
HETATM   15  C9  UNL     1      23.026   2.098  52.413  1.00  0.00    -0.040 A 
HETATM   16  C10 UNL     1      21.812   2.799  52.346  1.00  0.00     0.011 A 
HETATM   17  C11 UNL     1      20.575   2.251  52.080  1.00  0.00     0.037 A 
HETATM   18  C12 UNL     1      20.537   0.888  51.863  1.00  0.00     0.065 A 
HETATM   19  C13 UNL     1      21.712   0.170  51.922  1.00  0.00     0.037 A 
HETATM   20  C14 UNL     1      22.919   0.743  52.186  1.00  0.00     0.011 A 
BRANCH  18  21
HETATM   21  O1  UNL     1      19.339   0.245  51.588  1.00  0.00    -0.361 OA
HETATM   22  H13 UNL     1      18.625   0.249  52.308  1.00  0.00     0.217 HD
ENDBRANCH  18  21
ENDBRANCH  14  15
ENDBRANCH   1  14
BRANCH   2  23
HETATM   23  C16 UNL     1      24.040   5.587  50.765  1.00  0.00     0.033 C 
HETATM   24  C17 UNL     1      22.804   5.545  50.339  1.00  0.00     0.018 C 
HETATM   25  C18 UNL     1      22.388   6.961  50.404  1.00  0.00     0.013 C 
HETATM   26  C19 UNL     1      23.441   7.671  50.734  1.00  0.00    -0.025 C 
HETATM   27  C20 UNL     1      24.470   6.928  51.096  1.00  0.00     0.029 C 
ENDBRANCH   2  23
TORSDOF 7
ENDMDL
MODEL 9
REMARK VINA RESULT:      -7.5      7.050      9.415
REMARK  7 active torsions:
REMARK  status: ('A' for Active; 'I' for Inactive)
REMARK    1  A    between atoms: C6_6  and  C7_7 
REMARK    2  A    between atoms: C7_7  and  N1_8 
REMARK    3  A    between atoms: N1_8  and  C8_9 
REMARK       I    between atoms: N1_8  and  C15_17 
REMARK    4  A    between atoms: C8_9  and  C9_10 
REMARK    5  A    between atoms: C12_13  and  O1_14 
REMARK    6  A    between atoms: C15_17  and  C16_19 
REMARK    7  A    between atoms: C21_24  and  O3_25 
ROOT
HETATM    1  N1  UNL     1      31.074   6.619  48.293  1.00  0.00    -0.339 N 
HETATM    2  C15 UNL     1      31.901   5.479  48.277  1.00  0.00     0.254 C 
HETATM    3  O2  UNL     1      32.548   5.901  49.265  1.00  0.00    -0.267 OA
ENDROOT
BRANCH   1   4
HETATM    4  C7  UNL     1      31.335   7.641  49.279  1.00  0.00     0.167 C 
BRANCH   4   5
HETATM    5  C6  UNL     1      31.446   9.020  48.774  1.00  0.00    -0.007 A 
HETATM    6  C5  UNL     1      32.396   9.317  47.788  1.00  0.00     0.011 A 
HETATM    7  C4  UNL     1      32.571  10.577  47.256  1.00  0.00     0.001 A 
HETATM    8  C3  UNL     1      31.783  11.646  47.688  1.00  0.00     0.009 A 
HETATM    9  C2  UNL     1      30.840  11.381  48.658  1.00  0.00    -0.028 A 
HETATM   10  C1  UNL     1      29.983  12.515  49.138  1.00  0.00     0.051 C 
HETATM   11  C21 UNL     1      30.704  10.111  49.158  1.00  0.00     0.079 A 
BRANCH  11  12
HETATM   12  O3  UNL     1      29.741   9.970  50.114  1.00  0.00    -0.360 OA
HETATM   13  H19 UNL     1      28.759  10.168  50.009  1.00  0.00     0.217 HD
ENDBRANCH  11  12
ENDBRANCH   4   5
ENDBRANCH   1   4
BRANCH   1  14
HETATM   14  C8  UNL     1      30.000   6.615  47.314  1.00  0.00     0.165 C 
BRANCH  14  15
HETATM   15  C9  UNL     1      28.674   6.402  48.003  1.00  0.00    -0.040 A 
HETATM   16  C10 UNL     1      28.358   5.074  48.327  1.00  0.00     0.011 A 
HETATM   17  C11 UNL     1      27.208   4.646  48.956  1.00  0.00     0.037 A 
HETATM   18  C12 UNL     1      26.289   5.620  49.292  1.00  0.00     0.065 A 
HETATM   19  C13 UNL     1      26.570   6.935  48.987  1.00  0.00     0.037 A 
HETATM   20  C14 UNL     1      27.717   7.324  48.365  1.00  0.00     0.011 A 
BRANCH  18  21
HETATM   21  O1  UNL     1      25.101   5.289  49.927  1.00  0.00    -0.361 OA
HETATM   22  H13 UNL     1      24.281   5.145  49.349  1.00  0.00     0.217 HD
ENDBRANCH  18  21
ENDBRANCH  14  15
ENDBRANCH   1  14
BRANCH   2  23
HETATM   23  C16 UNL     1      32.251   4.218  47.678  1.00  0.00     0.033 C 
HETATM   24  C17 UNL     1      33.485   3.812  47.833  1.00  0.00     0.018 C 
HETATM   25  C18 UNL     1      33.498   2.521  47.113  1.00  0.00     0.013 C 
HETATM   26  C19 UNL     1      32.331   2.381  46.527  1.00  0.00    -0.025 C 
HETATM   27  C20 UNL     1      31.454   3.293  46.902  1.00  0.00     0.029 C 
ENDBRANCH   2  23
TORSDOF 7
ENDMDL
