MODEL 1
REMARK VINA RESULT:      -7.0      0.000      0.000
REMARK  7 active torsions:
REMARK  status: ('A' for Active; 'I' for Inactive)
REMARK    1  A    between atoms: C2_2  and  C3_3 
REMARK    2  A    between atoms: C3_3  and  N1_4 
REMARK    3  A    between atoms: N1_4  and  C4_5 
REMARK    4  A    between atoms: C4_5  and  O1_6 
REMARK    5  A    between atoms: O1_6  and  C5_7 
REMARK    6  A    between atoms: C10_14  and  N4_15 
REMARK    7  A    between atoms: N4_15  and  C11_16 
ROOT
HETATM    1  C4  UNL     1      24.543   1.364  52.478  1.00  0.00     0.150 C 
HETATM    2  C7  UNL     1      25.778   1.609  52.883  1.00  0.00     0.058 A 
HETATM    3  C8  UNL     1      26.249   1.282  54.244  1.00  0.00     0.197 A 
HETATM    4  N2  UNL     1      27.639   1.660  54.371  1.00  0.00    -0.278 NA
HETATM    5  C9  UNL     1      28.378   2.182  53.493  1.00  0.00     0.229 A 
HETATM    6  N3  UNL     1      27.912   2.485  52.193  1.00  0.00    -0.224 NA
HETATM    7  C10 UNL     1      26.661   2.209  51.900  1.00  0.00     0.141 A 
ENDROOT
BRANCH   1   8
HETATM    8  N1  UNL     1      23.400   0.777  53.142  1.00  0.00    -0.367 N 
HETATM    9  H6  UNL     1      22.534   1.262  53.499  1.00  0.00     0.161 HD
BRANCH   8  10
HETATM   10  C3  UNL     1      23.456  -0.645  53.361  1.00  0.00     0.148 C 
BRANCH  10  11
HETATM   11  C2  UNL     1      22.503  -1.041  54.458  1.00  0.00    -0.018 C 
HETATM   12  C1  UNL     1      21.388  -0.391  54.777  1.00  0.00     0.008 C 
ENDBRANCH  10  11
ENDBRANCH   8  10
ENDBRANCH   1   8
BRANCH   1  13
HETATM   13  O1  UNL     1      23.907   1.575  51.290  1.00  0.00    -0.336 OA
BRANCH  13  14
HETATM   14  C5  UNL     1      22.646   2.158  51.058  1.00  0.00     0.173 C 
HETATM   15  C6  UNL     1      22.298   1.796  49.610  1.00  0.00     0.034 C 
ENDBRANCH  13  14
ENDBRANCH   1  13
BRANCH   7  16
HETATM   16  N4  UNL     1      26.332   2.573  50.563  1.00  0.00    -0.340 N 
HETATM   17  H15 UNL     1      26.165   1.743  49.940  1.00  0.00     0.167 HD
BRANCH  16  18
HETATM   18  C11 UNL     1      26.229   3.889  50.040  1.00  0.00     0.035 A 
HETATM   19  C12 UNL     1      27.164   4.293  49.116  1.00  0.00     0.029 A 
HETATM   20  C13 UNL     1      27.151   5.551  48.560  1.00  0.00     0.004 A 
HETATM   21  C14 UNL     1      26.186   6.486  48.908  1.00  0.00     0.019 A 
HETATM   22  C15 UNL     1      25.246   6.053  49.851  1.00  0.00     0.013 A 
HETATM   23 BR1  UNL     1      23.936   7.354  50.311  1.00  0.00    -0.051 Br
HETATM   24  C16 UNL     1      25.260   4.795  50.404  1.00  0.00     0.048 A 
ENDBRANCH  16  18
ENDBRANCH   7  16
TORSDOF 7
ENDMDL
MODEL 2
REMARK VINA RESULT:      -7.0      2.278      6.098
REMARK  7 active torsions:
REMARK  status: ('A' for Active; 'I' for Inactive)
REMARK    1  A    between atoms: C2_2  and  C3_3 
REMARK    2  A    between atoms: C3_3  and  N1_4 
REMARK    3  A    between atoms: N1_4  and  C4_5 
REMARK    4  A    between atoms: C4_5  and  O1_6 
REMARK    5  A    between atoms: O1_6  and  C5_7 
REMARK    6  A    between atoms: C10_14  and  N4_15 
REMARK    7  A    between atoms: N4_15  and  C11_16 
ROOT
HETATM    1  C4  UNL     1      26.219   2.319  51.858  1.00  0.00     0.150 C 
HETATM    2  C7  UNL     1      26.937   1.700  52.782  1.00  0.00     0.058 A 
HETATM    3  C8  UNL     1      28.162   2.287  53.361  1.00  0.00     0.197 A 
HETATM    4  N2  UNL     1      28.706   1.376  54.344  1.00  0.00    -0.278 NA
HETATM    5  C9  UNL     1      28.248   0.254  54.692  1.00  0.00     0.229 A 
HETATM    6  N3  UNL     1      27.071  -0.291  54.128  1.00  0.00    -0.224 NA
HETATM    7  C10 UNL     1      26.441   0.406  53.210  1.00  0.00     0.141 A 
ENDROOT
BRANCH   1   8
HETATM    8  N1  UNL     1      26.374   3.597  51.201  1.00  0.00    -0.367 N 
HETATM    9  H6  UNL     1      26.233   4.561  51.609  1.00  0.00     0.161 HD
BRANCH   8  10
HETATM   10  C3  UNL     1      26.750   3.555  49.812  1.00  0.00     0.148 C 
BRANCH  10  11
HETATM   11  C2  UNL     1      26.438   4.870  49.147  1.00  0.00    -0.018 C 
HETATM   12  C1  UNL     1      27.328   5.661  48.557  1.00  0.00     0.008 C 
ENDBRANCH  10  11
ENDBRANCH   8  10
ENDBRANCH   1   8
BRANCH   1  13
HETATM   13  O1  UNL     1      25.076   1.973  51.200  1.00  0.00    -0.336 OA
BRANCH  13  14
HETATM   14  C5  UNL     1      23.820   2.611  51.221  1.00  0.00     0.173 C 
HETATM   15  C6  UNL     1      23.083   2.084  49.985  1.00  0.00     0.034 C 
ENDBRANCH  13  14
ENDBRANCH   1  13
BRANCH   7  16
HETATM   16  N4  UNL     1      25.280  -0.268  52.731  1.00  0.00    -0.340 N 
HETATM   17  H15 UNL     1      25.383  -0.613  51.743  1.00  0.00     0.167 HD
BRANCH  16  18
HETATM   18  C11 UNL     1      24.069  -0.486  53.440  1.00  0.00     0.035 A 
HETATM   19  C12 UNL     1      24.149  -1.007  54.709  1.00  0.00     0.029 A 
HETATM   20  C13 UNL     1      23.032  -1.262  55.471  1.00  0.00     0.004 A 
HETATM   21  C14 UNL     1      21.755  -1.006  54.990  1.00  0.00     0.019 A 
HETATM   22  C15 UNL     1      21.699  -0.478  53.694  1.00  0.00     0.013 A 
HETATM   23 BR1  UNL     1      19.937  -0.137  53.059  1.00  0.00    -0.051 Br
HETATM   24  C16 UNL     1      22.817  -0.222  52.937  1.00  0.00     0.048 A 
ENDBRANCH  16  18
ENDBRANCH   7  16
TORSDOF 7
ENDMDL
MODEL 3
REMARK VINA RESULT:      -6.9      2.683      4.996
REMARK  7 active torsions:
REMARK  status: ('A' for Active; 'I' for Inactive)
REMARK    1  A    between atoms: C2_2  and  C3_3 
REMARK    2  A    between atoms: C3_3  and  N1_4 
REMARK    3  A    between atoms: N1_4  and  C4_5 
REMARK    4  A    between atoms: C4_5  and  O1_6 
REMARK    5  A    between atoms: O1_6  and  C5_7 
REMARK    6  A    between atoms: C10_14  and  N4_15 
REMARK    7  A    between atoms: N4_15  and  C11_16 
ROOT
HETATM    1  C4  UNL     1      25.673  -0.246  53.489  1.00  0.00     0.150 C 
HETATM    2  C7  UNL     1      24.480  -0.494  54.005  1.00  0.00     0.058 A 
HETATM    3  C8  UNL     1      24.292  -1.339  55.202  1.00  0.00     0.197 A 
HETATM    4  N2  UNL     1      22.883  -1.407  55.519  1.00  0.00    -0.278 NA
HETATM    5  C9  UNL     1      21.928  -0.853  54.910  1.00  0.00     0.229 A 
HETATM    6  N3  UNL     1      22.127  -0.045  53.767  1.00  0.00    -0.224 NA
HETATM    7  C10 UNL     1      23.355   0.127  53.333  1.00  0.00     0.141 A 
ENDROOT
BRANCH   1   8
HETATM    8  N1  UNL     1      27.004  -0.661  53.871  1.00  0.00    -0.367 N 
HETATM    9  H6  UNL     1      27.601  -0.289  54.658  1.00  0.00     0.161 HD
BRANCH   8  10
HETATM   10  C3  UNL     1      27.599  -1.699  53.071  1.00  0.00     0.148 C 
BRANCH  10  11
HETATM   11  C2  UNL     1      29.101  -1.644  53.178  1.00  0.00    -0.018 C 
HETATM   12  C1  UNL     1      29.794  -0.652  53.728  1.00  0.00     0.008 C 
ENDBRANCH  10  11
ENDBRANCH   8  10
ENDBRANCH   1   8
BRANCH   1  13
HETATM   13  O1  UNL     1      26.073   0.492  52.414  1.00  0.00    -0.336 OA
BRANCH  13  14
HETATM   14  C5  UNL     1      26.900   1.631  52.386  1.00  0.00     0.173 C 
HETATM   15  C6  UNL     1      26.656   2.271  51.015  1.00  0.00     0.034 C 
ENDBRANCH  13  14
ENDBRANCH   1  13
BRANCH   7  16
HETATM   16  N4  UNL     1      23.402   0.957  52.175  1.00  0.00    -0.340 N 
HETATM   17  H15 UNL     1      23.833   0.479  51.344  1.00  0.00     0.167 HD
BRANCH  16  18
HETATM   18  C11 UNL     1      22.945   2.297  52.069  1.00  0.00     0.035 A 
HETATM   19  C12 UNL     1      23.654   3.275  52.726  1.00  0.00     0.029 A 
HETATM   20  C13 UNL     1      23.286   4.600  52.691  1.00  0.00     0.004 A 
HETATM   21  C14 UNL     1      22.167   5.020  51.985  1.00  0.00     0.019 A 
HETATM   22  C15 UNL     1      21.459   4.008  51.326  1.00  0.00     0.013 A 
HETATM   23 BR1  UNL     1      19.930   4.611  50.367  1.00  0.00    -0.051 Br
HETATM   24  C16 UNL     1      21.832   2.685  51.361  1.00  0.00     0.048 A 
ENDBRANCH  16  18
ENDBRANCH   7  16
TORSDOF 7
ENDMDL
MODEL 4
REMARK VINA RESULT:      -6.5      2.883      6.983
REMARK  7 active torsions:
REMARK  status: ('A' for Active; 'I' for Inactive)
REMARK    1  A    between atoms: C2_2  and  C3_3 
REMARK    2  A    between atoms: C3_3  and  N1_4 
REMARK    3  A    between atoms: N1_4  and  C4_5 
REMARK    4  A    between atoms: C4_5  and  O1_6 
REMARK    5  A    between atoms: O1_6  and  C5_7 
REMARK    6  A    between atoms: C10_14  and  N4_15 
REMARK    7  A    between atoms: N4_15  and  C11_16 
ROOT
HETATM    1  C4  UNL     1      25.327   3.082  51.167  1.00  0.00     0.150 C 
HETATM    2  C7  UNL     1      24.138   3.597  51.437  1.00  0.00     0.058 A 
HETATM    3  C8  UNL     1      23.853   5.042  51.321  1.00  0.00     0.197 A 
HETATM    4  N2  UNL     1      22.471   5.283  51.672  1.00  0.00    -0.278 NA
HETATM    5  C9  UNL     1      21.606   4.435  52.024  1.00  0.00     0.229 A 
HETATM    6  N3  UNL     1      21.896   3.055  52.126  1.00  0.00    -0.224 NA
HETATM    7  C10 UNL     1      23.115   2.653  51.843  1.00  0.00     0.141 A 
ENDROOT
BRANCH   1   8
HETATM    8  N1  UNL     1      26.569   3.679  50.729  1.00  0.00    -0.367 N 
HETATM    9  H6  UNL     1      27.343   4.082  51.324  1.00  0.00     0.161 HD
BRANCH   8  10
HETATM   10  C3  UNL     1      26.771   3.751  49.306  1.00  0.00     0.148 C 
BRANCH  10  11
HETATM   11  C2  UNL     1      27.124   5.158  48.900  1.00  0.00    -0.018 C 
HETATM   12  C1  UNL     1      26.249   6.131  48.666  1.00  0.00     0.008 C 
ENDBRANCH  10  11
ENDBRANCH   8  10
ENDBRANCH   1   8
BRANCH   1  13
HETATM   13  O1  UNL     1      25.804   1.805  51.202  1.00  0.00    -0.336 OA
BRANCH  13  14
HETATM   14  C5  UNL     1      26.829   1.269  52.005  1.00  0.00     0.173 C 
HETATM   15  C6  UNL     1      26.601  -0.247  51.987  1.00  0.00     0.034 C 
ENDBRANCH  13  14
ENDBRANCH   1  13
BRANCH   7  16
HETATM   16  N4  UNL     1      23.261   1.244  51.995  1.00  0.00    -0.340 N 
HETATM   17  H15 UNL     1      24.049   0.848  51.423  1.00  0.00     0.167 HD
BRANCH  16  18
HETATM   18  C11 UNL     1      22.467   0.388  52.804  1.00  0.00     0.035 A 
HETATM   19  C12 UNL     1      23.077  -0.259  53.853  1.00  0.00     0.029 A 
HETATM   20  C13 UNL     1      22.394  -1.114  54.686  1.00  0.00     0.004 A 
HETATM   21  C14 UNL     1      21.041  -1.371  54.507  1.00  0.00     0.019 A 
HETATM   22  C15 UNL     1      20.443  -0.704  53.431  1.00  0.00     0.013 A 
HETATM   23 BR1  UNL     1      18.590  -1.076  53.207  1.00  0.00    -0.051 Br
HETATM   24  C16 UNL     1      21.127   0.152  52.602  1.00  0.00     0.048 A 
ENDBRANCH  16  18
ENDBRANCH   7  16
TORSDOF 7
ENDMDL
MODEL 5
REMARK VINA RESULT:      -6.5      1.568      1.982
REMARK  7 active torsions:
REMARK  status: ('A' for Active; 'I' for Inactive)
REMARK    1  A    between atoms: C2_2  and  C3_3 
REMARK    2  A    between atoms: C3_3  and  N1_4 
REMARK    3  A    between atoms: N1_4  and  C4_5 
REMARK    4  A    between atoms: C4_5  and  O1_6 
REMARK    5  A    between atoms: O1_6  and  C5_7 
REMARK    6  A    between atoms: C10_14  and  N4_15 
REMARK    7  A    between atoms: N4_15  and  C11_16 
ROOT
HETATM    1  C4  UNL     1      23.845   0.244  53.269  1.00  0.00     0.150 C 
HETATM    2  C7  UNL     1      25.089   0.327  53.709  1.00  0.00     0.058 A 
HETATM    3  C8  UNL     1      25.808  -0.828  54.285  1.00  0.00     0.197 A 
HETATM    4  N2  UNL     1      27.143  -0.419  54.660  1.00  0.00    -0.278 NA
HETATM    5  C9  UNL     1      27.662   0.723  54.537  1.00  0.00     0.229 A 
HETATM    6  N3  UNL     1      26.961   1.818  53.981  1.00  0.00    -0.224 NA
HETATM    7  C10 UNL     1      25.723   1.626  53.583  1.00  0.00     0.141 A 
ENDROOT
BRANCH   1   8
HETATM    8  N1  UNL     1      22.905  -0.852  53.211  1.00  0.00    -0.367 N 
HETATM    9  H6  UNL     1      22.616  -1.419  52.368  1.00  0.00     0.161 HD
BRANCH   8  10
HETATM   10  C3  UNL     1      22.267  -1.208  54.452  1.00  0.00     0.148 C 
BRANCH  10  11
HETATM   11  C2  UNL     1      20.804  -1.485  54.226  1.00  0.00    -0.018 C 
HETATM   12  C1  UNL     1      19.967  -0.693  53.564  1.00  0.00     0.008 C 
ENDBRANCH  10  11
ENDBRANCH   8  10
ENDBRANCH   1   8
BRANCH   1  13
HETATM   13  O1  UNL     1      23.006   1.163  52.709  1.00  0.00    -0.336 OA
BRANCH  13  14
HETATM   14  C5  UNL     1      22.343   1.108  51.468  1.00  0.00     0.173 C 
HETATM   15  C6  UNL     1      21.288   2.218  51.528  1.00  0.00     0.034 C 
ENDBRANCH  13  14
ENDBRANCH   1  13
BRANCH   7  16
HETATM   16  N4  UNL     1      25.142   2.814  53.052  1.00  0.00    -0.340 N 
HETATM   17  H15 UNL     1      24.557   3.335  53.753  1.00  0.00     0.167 HD
BRANCH  16  18
HETATM   18  C11 UNL     1      25.279   3.311  51.729  1.00  0.00     0.035 A 
HETATM   19  C12 UNL     1      26.327   2.846  50.970  1.00  0.00     0.029 A 
HETATM   20  C13 UNL     1      26.547   3.275  49.681  1.00  0.00     0.004 A 
HETATM   21  C14 UNL     1      25.716   4.208  49.077  1.00  0.00     0.019 A 
HETATM   22  C15 UNL     1      24.658   4.669  49.870  1.00  0.00     0.013 A 
HETATM   23 BR1  UNL     1      23.535   5.948  49.019  1.00  0.00    -0.051 Br
HETATM   24  C16 UNL     1      24.439   4.237  51.156  1.00  0.00     0.048 A 
ENDBRANCH  16  18
ENDBRANCH   7  16
TORSDOF 7
ENDMDL
MODEL 6
REMARK VINA RESULT:      -6.2      3.377      6.184
REMARK  7 active torsions:
REMARK  status: ('A' for Active; 'I' for Inactive)
REMARK    1  A    between atoms: C2_2  and  C3_3 
REMARK    2  A    between atoms: C3_3  and  N1_4 
REMARK    3  A    between atoms: N1_4  and  C4_5 
REMARK    4  A    between atoms: C4_5  and  O1_6 
REMARK    5  A    between atoms: O1_6  and  C5_7 
REMARK    6  A    between atoms: C10_14  and  N4_15 
REMARK    7  A    between atoms: N4_15  and  C11_16 
ROOT
HETATM    1  C4  UNL     1      24.776   0.446  53.098  1.00  0.00     0.150 C 
HETATM    2  C7  UNL     1      23.858  -0.251  53.746  1.00  0.00     0.058 A 
HETATM    3  C8  UNL     1      24.156  -1.006  54.981  1.00  0.00     0.197 A 
HETATM    4  N2  UNL     1      22.948  -1.649  55.449  1.00  0.00    -0.278 NA
HETATM    5  C9  UNL     1      21.800  -1.603  54.930  1.00  0.00     0.229 A 
HETATM    6  N3  UNL     1      21.532  -0.873  53.749  1.00  0.00    -0.224 NA
HETATM    7  C10 UNL     1      22.522  -0.223  53.181  1.00  0.00     0.141 A 
ENDROOT
BRANCH   1   8
HETATM    8  N1  UNL     1      26.183   0.670  53.348  1.00  0.00    -0.367 N 
HETATM    9  H6  UNL     1      26.635   1.491  53.833  1.00  0.00     0.161 HD
BRANCH   8  10
HETATM   10  C3  UNL     1      27.083  -0.342  52.860  1.00  0.00     0.148 C 
BRANCH  10  11
HETATM   11  C2  UNL     1      28.239  -0.513  53.811  1.00  0.00    -0.018 C 
HETATM   12  C1  UNL     1      29.443  -0.969  53.480  1.00  0.00     0.008 C 
ENDBRANCH  10  11
ENDBRANCH   8  10
ENDBRANCH   1   8
BRANCH   1  13
HETATM   13  O1  UNL     1      24.724   1.204  51.966  1.00  0.00    -0.336 OA
BRANCH  13  14
HETATM   14  C5  UNL     1      25.146   2.534  51.777  1.00  0.00     0.173 C 
HETATM   15  C6  UNL     1      24.101   3.392  52.499  1.00  0.00     0.034 C 
ENDBRANCH  13  14
ENDBRANCH   1  13
BRANCH   7  16
HETATM   16  N4  UNL     1      22.106   0.460  52.002  1.00  0.00    -0.340 N 
HETATM   17  H15 UNL     1      22.865   0.531  51.278  1.00  0.00     0.167 HD
BRANCH  16  18
HETATM   18  C11 UNL     1      20.827   1.025  51.751  1.00  0.00     0.035 A 
HETATM   19  C12 UNL     1      20.604   2.321  52.149  1.00  0.00     0.029 A 
HETATM   20  C13 UNL     1      19.396   2.951  51.958  1.00  0.00     0.004 A 
HETATM   21  C14 UNL     1      18.330   2.301  51.349  1.00  0.00     0.019 A 
HETATM   22  C15 UNL     1      18.580   0.982  50.954  1.00  0.00     0.013 A 
HETATM   23 BR1  UNL     1      17.104   0.115  50.123  1.00  0.00    -0.051 Br
HETATM   24  C16 UNL     1      19.789   0.356  51.144  1.00  0.00     0.048 A 
ENDBRANCH  16  18
ENDBRANCH   7  16
TORSDOF 7
ENDMDL
MODEL 7
REMARK VINA RESULT:      -6.2      1.873      3.789
REMARK  7 active torsions:
REMARK  status: ('A' for Active; 'I' for Inactive)
REMARK    1  A    between atoms: C2_2  and  C3_3 
REMARK    2  A    between atoms: C3_3  and  N1_4 
REMARK    3  A    between atoms: N1_4  and  C4_5 
REMARK    4  A    between atoms: C4_5  and  O1_6 
REMARK    5  A    between atoms: O1_6  and  C5_7 
REMARK    6  A    between atoms: C10_14  and  N4_15 
REMARK    7  A    between atoms: N4_15  and  C11_16 
ROOT
HETATM    1  C4  UNL     1      23.115   1.260  51.856  1.00  0.00     0.150 C 
HETATM    2  C7  UNL     1      22.780   1.569  50.614  1.00  0.00     0.058 A 
HETATM    3  C8  UNL     1      21.669   0.905  49.902  1.00  0.00     0.197 A 
HETATM    4  N2  UNL     1      21.550   1.469  48.575  1.00  0.00    -0.278 NA
HETATM    5  C9  UNL     1      22.251   2.382  48.061  1.00  0.00     0.229 A 
HETATM    6  N3  UNL     1      23.309   3.009  48.759  1.00  0.00    -0.224 NA
HETATM    7  C10 UNL     1      23.562   2.617  49.987  1.00  0.00     0.141 A 
ENDROOT
BRANCH   1   8
HETATM    8  N1  UNL     1      22.579   0.304  52.799  1.00  0.00    -0.367 N 
HETATM    9  H6  UNL     1      22.928  -0.670  53.008  1.00  0.00     0.161 HD
BRANCH   8  10
HETATM   10  C3  UNL     1      21.414   0.721  53.534  1.00  0.00     0.148 C 
BRANCH  10  11
HETATM   11  C2  UNL     1      20.793  -0.455  54.239  1.00  0.00    -0.018 C 
HETATM   12  C1  UNL     1      21.289  -1.688  54.257  1.00  0.00     0.008 C 
ENDBRANCH  10  11
ENDBRANCH   8  10
ENDBRANCH   1   8
BRANCH   1  13
HETATM   13  O1  UNL     1      24.082   1.736  52.692  1.00  0.00    -0.336 OA
BRANCH  13  14
HETATM   14  C5  UNL     1      25.145   1.038  53.296  1.00  0.00     0.173 C 
HETATM   15  C6  UNL     1      26.104   2.123  53.797  1.00  0.00     0.034 C 
ENDBRANCH  13  14
ENDBRANCH   1  13
BRANCH   7  16
HETATM   16  N4  UNL     1      24.654   3.330  50.561  1.00  0.00    -0.340 N 
HETATM   17  H15 UNL     1      24.805   3.104  51.577  1.00  0.00     0.167 HD
BRANCH  16  18
HETATM   18  C11 UNL     1      25.495   4.270  49.908  1.00  0.00     0.035 A 
HETATM   19  C12 UNL     1      26.668   3.813  49.356  1.00  0.00     0.029 A 
HETATM   20  C13 UNL     1      27.551   4.647  48.711  1.00  0.00     0.004 A 
HETATM   21  C14 UNL     1      27.301   6.007  48.585  1.00  0.00     0.019 A 
HETATM   22  C15 UNL     1      26.102   6.450  49.157  1.00  0.00     0.013 A 
HETATM   23 BR1  UNL     1      25.784   8.317  48.971  1.00  0.00    -0.051 Br
HETATM   24  C16 UNL     1      25.221   5.613  49.799  1.00  0.00     0.048 A 
ENDBRANCH  16  18
ENDBRANCH   7  16
TORSDOF 7
ENDMDL
MODEL 8
REMARK VINA RESULT:      -6.1      1.782      2.522
REMARK  7 active torsions:
REMARK  status: ('A' for Active; 'I' for Inactive)
REMARK    1  A    between atoms: C2_2  and  C3_3 
REMARK    2  A    between atoms: C3_3  and  N1_4 
REMARK    3  A    between atoms: N1_4  and  C4_5 
REMARK    4  A    between atoms: C4_5  and  O1_6 
REMARK    5  A    between atoms: O1_6  and  C5_7 
REMARK    6  A    between atoms: C10_14  and  N4_15 
REMARK    7  A    between atoms: N4_15  and  C11_16 
ROOT
HETATM    1  C4  UNL     1      23.672   2.324  50.992  1.00  0.00     0.150 C 
HETATM    2  C7  UNL     1      24.799   2.174  51.668  1.00  0.00     0.058 A 
HETATM    3  C8  UNL     1      24.841   1.590  53.024  1.00  0.00     0.197 A 
HETATM    4  N2  UNL     1      26.212   1.555  53.485  1.00  0.00    -0.278 NA
HETATM    5  C9  UNL     1      27.241   1.943  52.869  1.00  0.00     0.229 A 
HETATM    6  N3  UNL     1      27.183   2.497  51.569  1.00  0.00    -0.224 NA
HETATM    7  C10 UNL     1      26.007   2.608  50.993  1.00  0.00     0.141 A 
ENDROOT
BRANCH   1   8
HETATM    8  N1  UNL     1      22.297   2.007  51.310  1.00  0.00    -0.367 N 
HETATM    9  H6  UNL     1      21.682   1.268  50.876  1.00  0.00     0.161 HD
BRANCH   8  10
HETATM   10  C3  UNL     1      21.682   2.811  52.334  1.00  0.00     0.148 C 
BRANCH  10  11
HETATM   11  C2  UNL     1      20.598   3.672  51.740  1.00  0.00    -0.018 C 
HETATM   12  C1  UNL     1      20.800   4.771  51.020  1.00  0.00     0.008 C 
ENDBRANCH  10  11
ENDBRANCH   8  10
ENDBRANCH   1   8
BRANCH   1  13
HETATM   13  O1  UNL     1      23.405   2.825  49.752  1.00  0.00    -0.336 OA
BRANCH  13  14
HETATM   14  C5  UNL     1      22.594   2.280  48.738  1.00  0.00     0.173 C 
HETATM   15  C6  UNL     1      22.317   3.443  47.778  1.00  0.00     0.034 C 
ENDBRANCH  13  14
ENDBRANCH   1  13
BRANCH   7  16
HETATM   16  N4  UNL     1      26.102   3.187  49.694  1.00  0.00    -0.340 N 
HETATM   17  H15 UNL     1      25.910   2.499  48.922  1.00  0.00     0.167 HD
BRANCH  16  18
HETATM   18  C11 UNL     1      26.422   4.535  49.384  1.00  0.00     0.035 A 
HETATM   19  C12 UNL     1      27.569   4.778  48.667  1.00  0.00     0.029 A 
HETATM   20  C13 UNL     1      27.967   6.050  48.326  1.00  0.00     0.004 A 
HETATM   21  C14 UNL     1      27.225   7.163  48.696  1.00  0.00     0.019 A 
HETATM   22  C15 UNL     1      26.063   6.892  49.428  1.00  0.00     0.013 A 
HETATM   23 BR1  UNL     1      25.065   8.435  49.923  1.00  0.00    -0.051 Br
HETATM   24  C16 UNL     1      25.666   5.619  49.764  1.00  0.00     0.048 A 
ENDBRANCH  16  18
ENDBRANCH   7  16
TORSDOF 7
ENDMDL
MODEL 9
REMARK VINA RESULT:      -5.9      3.197      5.472
REMARK  7 active torsions:
REMARK  status: ('A' for Active; 'I' for Inactive)
REMARK    1  A    between atoms: C2_2  and  C3_3 
REMARK    2  A    between atoms: C3_3  and  N1_4 
REMARK    3  A    between atoms: N1_4  and  C4_5 
REMARK    4  A    between atoms: C4_5  and  O1_6 
REMARK    5  A    between atoms: O1_6  and  C5_7 
REMARK    6  A    between atoms: C10_14  and  N4_15 
REMARK    7  A    between atoms: N4_15  and  C11_16 
ROOT
HETATM    1  C4  UNL     1      23.242   2.634  51.209  1.00  0.00     0.150 C 
HETATM    2  C7  UNL     1      24.367   3.064  50.661  1.00  0.00     0.058 A 
HETATM    3  C8  UNL     1      24.389   3.899  49.442  1.00  0.00     0.197 A 
HETATM    4  N2  UNL     1      25.760   4.210  49.104  1.00  0.00    -0.278 NA
HETATM    5  C9  UNL     1      26.804   3.855  49.715  1.00  0.00     0.229 A 
HETATM    6  N3  UNL     1      26.764   3.058  50.882  1.00  0.00    -0.224 NA
HETATM    7  C10 UNL     1      25.591   2.678  51.336  1.00  0.00     0.141 A 
ENDROOT
BRANCH   1   8
HETATM    8  N1  UNL     1      21.854   2.814  50.849  1.00  0.00    -0.367 N 
HETATM    9  H6  UNL     1      21.275   2.240  50.178  1.00  0.00     0.161 HD
BRANCH   8  10
HETATM   10  C3  UNL     1      21.177   3.924  51.467  1.00  0.00     0.148 C 
BRANCH  10  11
HETATM   11  C2  UNL     1      19.727   3.588  51.699  1.00  0.00    -0.018 C 
HETATM   12  C1  UNL     1      19.239   2.360  51.850  1.00  0.00     0.008 C 
ENDBRANCH  10  11
ENDBRANCH   8  10
ENDBRANCH   1   8
BRANCH   1  13
HETATM   13  O1  UNL     1      22.991   1.871  52.311  1.00  0.00    -0.336 OA
BRANCH  13  14
HETATM   14  C5  UNL     1      22.437   0.578  52.380  1.00  0.00     0.173 C 
HETATM   15  C6  UNL     1      21.827   0.477  53.782  1.00  0.00     0.034 C 
ENDBRANCH  13  14
ENDBRANCH   1  13
BRANCH   7  16
HETATM   16  N4  UNL     1      25.706   1.878  52.510  1.00  0.00    -0.340 N 
HETATM   17  H15 UNL     1      25.149   2.253  53.319  1.00  0.00     0.167 HD
BRANCH  16  18
HETATM   18  C11 UNL     1      26.473   0.693  52.661  1.00  0.00     0.035 A 
HETATM   19  C12 UNL     1      25.872  -0.508  52.366  1.00  0.00     0.029 A 
HETATM   20  C13 UNL     1      26.531  -1.709  52.489  1.00  0.00     0.004 A 
HETATM   21  C14 UNL     1      27.848  -1.771  52.924  1.00  0.00     0.019 A 
HETATM   22  C15 UNL     1      28.438  -0.537  53.220  1.00  0.00     0.013 A 
HETATM   23 BR1  UNL     1      30.242  -0.649  53.814  1.00  0.00    -0.051 Br
HETATM   24  C16 UNL     1      27.778   0.662  53.094  1.00  0.00     0.048 A 
ENDBRANCH  16  18
ENDBRANCH   7  16
TORSDOF 7
ENDMDL
