MODEL 1
REMARK VINA RESULT:      -7.7      0.000      0.000
REMARK  8 active torsions:
REMARK  status: ('A' for Active; 'I' for Inactive)
REMARK    1  A    between atoms: C2_2  and  C3_3 
REMARK    2  A    between atoms: C2_2  and  N2_9 
REMARK    3  A    between atoms: C4_4  and  C5_5 
REMARK    4  A    between atoms: C5_5  and  N1_6 
REMARK    5  A    between atoms: N2_9  and  C8_10 
REMARK    6  A    between atoms: N3_17  and  O1_18 
REMARK    7  A    between atoms: O1_18  and  N4_19 
REMARK    8  A    between atoms: N4_19  and  C15_20 
ROOT
HETATM    1  C8  UNL     1      26.805   5.534  49.018  1.00  0.00     0.029 A 
HETATM    2  C9  UNL     1      27.105   4.199  49.308  1.00  0.00     0.031 A 
HETATM    3  C10 UNL     1      26.130   3.239  49.474  1.00  0.00     0.034 A 
HETATM    4  C11 UNL     1      24.797   3.573  49.357  1.00  0.00     0.068 A 
HETATM    5  C12 UNL     1      24.450   4.878  49.072  1.00  0.00    -0.007 A 
HETATM    6  C13 UNL     1      25.456   5.808  48.913  1.00  0.00     0.040 A 
HETATM    7  C14 UNL     1      23.004   4.549  49.088  1.00  0.00     0.199 A 
HETATM    8  N3  UNL     1      23.426   3.197  49.390  1.00  0.00    -0.229 N 
ENDROOT
BRANCH   8   9
HETATM    9  O1  UNL     1      22.745   2.025  49.619  1.00  0.00    -0.154 OA
BRANCH   9  10
HETATM   10  N4  UNL     1      22.725   1.894  50.964  1.00  0.00    -0.242 N 
HETATM   11  H21 UNL     1      22.103   2.719  51.115  1.00  0.00     0.197 HD
BRANCH  10  12
HETATM   12  C15 UNL     1      23.245   1.066  51.997  1.00  0.00     0.058 A 
HETATM   13  C16 UNL     1      24.593   1.196  52.256  1.00  0.00     0.034 A 
HETATM   14  C17 UNL     1      25.044   0.369  53.268  1.00  0.00     0.046 A 
HETATM   15  C18 UNL     1      24.216  -0.508  53.955  1.00  0.00     0.138 A 
HETATM   16  F1  UNL     1      24.823  -1.251  54.923  1.00  0.00    -0.204 F 
HETATM   17  C19 UNL     1      22.876  -0.577  53.633  1.00  0.00     0.074 A 
HETATM   18 CL1  UNL     1      21.878  -1.704  54.535  1.00  0.00    -0.081 Cl
HETATM   19  C20 UNL     1      22.355   0.223  52.629  1.00  0.00     0.058 A 
ENDBRANCH  10  12
ENDBRANCH   9  10
ENDBRANCH   8   9
BRANCH   1  20
HETATM   20  N2  UNL     1      27.810   6.529  48.845  1.00  0.00    -0.382 N 
HETATM   21  H15 UNL     1      27.848   7.266  49.608  1.00  0.00     0.160 HD
BRANCH  20  22
HETATM   22  C2  UNL     1      28.722   6.554  47.717  1.00  0.00     0.100 C 
HETATM   23  C1  UNL     1      28.654   7.814  46.907  1.00  0.00     0.036 C 
BRANCH  22  24
HETATM   24  C3  UNL     1      30.096   6.302  48.250  1.00  0.00    -0.005 C 
HETATM   25  C4  UNL     1      30.747   5.245  47.781  1.00  0.00     0.001 C 
BRANCH  25  26
HETATM   26  C5  UNL     1      32.106   4.839  48.187  1.00  0.00     0.298 C 
BRANCH  26  27
HETATM   27  N1  UNL     1      32.872   4.325  47.047  1.00  0.00     0.083 N 
HETATM   28  C6  UNL     1      34.183   3.966  47.583  1.00  0.00     0.309 C 
HETATM   29  C7  UNL     1      32.178   3.139  46.563  1.00  0.00     0.309 C 
ENDBRANCH  26  27
ENDBRANCH  25  26
ENDBRANCH  22  24
ENDBRANCH  20  22
ENDBRANCH   1  20
TORSDOF 8
ENDMDL
MODEL 2
REMARK VINA RESULT:      -7.6      4.459      8.330
REMARK  8 active torsions:
REMARK  status: ('A' for Active; 'I' for Inactive)
REMARK    1  A    between atoms: C2_2  and  C3_3 
REMARK    2  A    between atoms: C2_2  and  N2_9 
REMARK    3  A    between atoms: C4_4  and  C5_5 
REMARK    4  A    between atoms: C5_5  and  N1_6 
REMARK    5  A    between atoms: N2_9  and  C8_10 
REMARK    6  A    between atoms: N3_17  and  O1_18 
REMARK    7  A    between atoms: O1_18  and  N4_19 
REMARK    8  A    between atoms: N4_19  and  C15_20 
ROOT
HETATM    1  C8  UNL     1      25.092   3.520  50.223  1.00  0.00     0.029 A 
HETATM    2  C9  UNL     1      26.283   3.225  49.553  1.00  0.00     0.031 A 
HETATM    3  C10 UNL     1      27.108   4.204  49.041  1.00  0.00     0.034 A 
HETATM    4  C11 UNL     1      26.776   5.535  49.178  1.00  0.00     0.068 A 
HETATM    5  C12 UNL     1      25.610   5.877  49.830  1.00  0.00    -0.007 A 
HETATM    6  C13 UNL     1      24.812   4.868  50.328  1.00  0.00     0.040 A 
HETATM    7  C14 UNL     1      25.862   7.324  49.629  1.00  0.00     0.199 A 
HETATM    8  N3  UNL     1      27.072   6.907  48.949  1.00  0.00    -0.229 N 
ENDROOT
BRANCH   8   9
HETATM    9  O1  UNL     1      28.090   7.593  48.330  1.00  0.00    -0.154 OA
BRANCH   9  10
HETATM   10  N4  UNL     1      29.215   7.172  48.947  1.00  0.00    -0.242 N 
HETATM   11  H21 UNL     1      28.891   7.448  49.900  1.00  0.00     0.197 HD
BRANCH  10  12
HETATM   12  C15 UNL     1      30.470   6.568  48.657  1.00  0.00     0.058 A 
HETATM   13  C16 UNL     1      31.581   7.204  49.171  1.00  0.00     0.034 A 
HETATM   14  C17 UNL     1      32.771   6.574  48.858  1.00  0.00     0.046 A 
HETATM   15  C18 UNL     1      32.838   5.414  48.100  1.00  0.00     0.138 A 
HETATM   16  F1  UNL     1      34.093   4.925  47.886  1.00  0.00    -0.204 F 
HETATM   17  C19 UNL     1      31.677   4.841  47.623  1.00  0.00     0.074 A 
HETATM   18 CL1  UNL     1      31.825   3.375  46.669  1.00  0.00    -0.081 Cl
HETATM   19  C20 UNL     1      30.448   5.417  47.897  1.00  0.00     0.058 A 
ENDBRANCH  10  12
ENDBRANCH   9  10
ENDBRANCH   8   9
BRANCH   1  20
HETATM   20  N2  UNL     1      24.236   2.511  50.753  1.00  0.00    -0.382 N 
HETATM   21  H15 UNL     1      23.593   2.050  50.045  1.00  0.00     0.160 HD
BRANCH  20  22
HETATM   22  C2  UNL     1      24.227   2.129  52.153  1.00  0.00     0.100 C 
HETATM   23  C1  UNL     1      22.865   1.791  52.681  1.00  0.00     0.036 C 
BRANCH  22  24
HETATM   24  C3  UNL     1      25.189   0.996  52.311  1.00  0.00    -0.005 C 
HETATM   25  C4  UNL     1      26.411   1.290  52.736  1.00  0.00     0.001 C 
BRANCH  25  26
HETATM   26  C5  UNL     1      27.491   0.308  52.952  1.00  0.00     0.298 C 
BRANCH  26  27
HETATM   27  N1  UNL     1      28.480   0.806  53.914  1.00  0.00     0.083 N 
HETATM   28  C6  UNL     1      29.708   0.066  53.634  1.00  0.00     0.309 C 
HETATM   29  C7  UNL     1      28.668   2.224  53.642  1.00  0.00     0.309 C 
ENDBRANCH  26  27
ENDBRANCH  25  26
ENDBRANCH  22  24
ENDBRANCH  20  22
ENDBRANCH   1  20
TORSDOF 8
ENDMDL
MODEL 3
REMARK VINA RESULT:      -7.6      2.497      2.828
REMARK  8 active torsions:
REMARK  status: ('A' for Active; 'I' for Inactive)
REMARK    1  A    between atoms: C2_2  and  C3_3 
REMARK    2  A    between atoms: C2_2  and  N2_9 
REMARK    3  A    between atoms: C4_4  and  C5_5 
REMARK    4  A    between atoms: C5_5  and  N1_6 
REMARK    5  A    between atoms: N2_9  and  C8_10 
REMARK    6  A    between atoms: N3_17  and  O1_18 
REMARK    7  A    between atoms: O1_18  and  N4_19 
REMARK    8  A    between atoms: N4_19  and  C15_20 
ROOT
HETATM    1  C8  UNL     1      27.582   6.134  48.355  1.00  0.00     0.029 A 
HETATM    2  C9  UNL     1      27.740   4.760  48.561  1.00  0.00     0.031 A 
HETATM    3  C10 UNL     1      26.890   4.028  49.362  1.00  0.00     0.034 A 
HETATM    4  C11 UNL     1      25.831   4.642  49.997  1.00  0.00     0.068 A 
HETATM    5  C12 UNL     1      25.633   5.996  49.825  1.00  0.00    -0.007 A 
HETATM    6  C13 UNL     1      26.506   6.693  49.016  1.00  0.00     0.040 A 
HETATM    7  C14 UNL     1      24.440   5.984  50.705  1.00  0.00     0.199 A 
HETATM    8  N3  UNL     1      24.699   4.566  50.854  1.00  0.00    -0.229 N 
ENDROOT
BRANCH   8   9
HETATM    9  O1  UNL     1      24.077   3.563  51.559  1.00  0.00    -0.154 OA
BRANCH   9  10
HETATM   10  N4  UNL     1      25.014   3.118  52.425  1.00  0.00    -0.242 N 
HETATM   11  H21 UNL     1      24.899   3.918  53.085  1.00  0.00     0.197 HD
BRANCH  10  12
HETATM   12  C15 UNL     1      25.923   2.039  52.603  1.00  0.00     0.058 A 
HETATM   13  C16 UNL     1      25.593   0.857  51.973  1.00  0.00     0.034 A 
HETATM   14  C17 UNL     1      26.511  -0.155  52.181  1.00  0.00     0.046 A 
HETATM   15  C18 UNL     1      27.654   0.005  52.950  1.00  0.00     0.138 A 
HETATM   16  F1  UNL     1      28.452  -1.096  53.050  1.00  0.00    -0.204 F 
HETATM   17  C19 UNL     1      27.912   1.222  53.547  1.00  0.00     0.074 A 
HETATM   18 CL1  UNL     1      29.373   1.365  54.509  1.00  0.00    -0.081 Cl
HETATM   19  C20 UNL     1      27.036   2.282  53.383  1.00  0.00     0.058 A 
ENDBRANCH  10  12
ENDBRANCH   9  10
ENDBRANCH   8   9
BRANCH   1  20
HETATM   20  N2  UNL     1      28.459   6.895  47.528  1.00  0.00    -0.382 N 
HETATM   21  H15 UNL     1      28.192   6.926  46.500  1.00  0.00     0.160 HD
BRANCH  20  22
HETATM   22  C2  UNL     1      29.633   7.582  48.031  1.00  0.00     0.100 C 
HETATM   23  C1  UNL     1      29.323   8.690  48.992  1.00  0.00     0.036 C 
BRANCH  22  24
HETATM   24  C3  UNL     1      30.528   6.548  48.636  1.00  0.00    -0.005 C 
HETATM   25  C4  UNL     1      31.291   5.845  47.809  1.00  0.00     0.001 C 
BRANCH  25  26
HETATM   26  C5  UNL     1      32.234   4.787  48.221  1.00  0.00     0.298 C 
BRANCH  26  27
HETATM   27  N1  UNL     1      32.905   4.190  47.061  1.00  0.00     0.083 N 
HETATM   28  C6  UNL     1      34.135   3.597  47.581  1.00  0.00     0.309 C 
HETATM   29  C7  UNL     1      32.023   3.157  46.538  1.00  0.00     0.309 C 
ENDBRANCH  26  27
ENDBRANCH  25  26
ENDBRANCH  22  24
ENDBRANCH  20  22
ENDBRANCH   1  20
TORSDOF 8
ENDMDL
MODEL 4
REMARK VINA RESULT:      -7.5      2.663      3.199
REMARK  8 active torsions:
REMARK  status: ('A' for Active; 'I' for Inactive)
REMARK    1  A    between atoms: C2_2  and  C3_3 
REMARK    2  A    between atoms: C2_2  and  N2_9 
REMARK    3  A    between atoms: C4_4  and  C5_5 
REMARK    4  A    between atoms: C5_5  and  N1_6 
REMARK    5  A    between atoms: N2_9  and  C8_10 
REMARK    6  A    between atoms: N3_17  and  O1_18 
REMARK    7  A    between atoms: O1_18  and  N4_19 
REMARK    8  A    between atoms: N4_19  and  C15_20 
ROOT
HETATM    1  C8  UNL     1      26.156   5.591  49.639  1.00  0.00     0.029 A 
HETATM    2  C9  UNL     1      26.759   4.370  49.324  1.00  0.00     0.031 A 
HETATM    3  C10 UNL     1      26.267   3.163  49.770  1.00  0.00     0.034 A 
HETATM    4  C11 UNL     1      25.136   3.121  50.558  1.00  0.00     0.068 A 
HETATM    5  C12 UNL     1      24.505   4.300  50.897  1.00  0.00    -0.007 A 
HETATM    6  C13 UNL     1      25.030   5.487  50.430  1.00  0.00     0.040 A 
HETATM    7  C14 UNL     1      23.469   3.579  51.677  1.00  0.00     0.199 A 
HETATM    8  N3  UNL     1      24.175   2.374  51.294  1.00  0.00    -0.229 N 
ENDROOT
BRANCH   8   9
HETATM    9  O1  UNL     1      23.975   1.040  51.557  1.00  0.00    -0.154 OA
BRANCH   9  10
HETATM   10  N4  UNL     1      24.773   0.772  52.614  1.00  0.00    -0.242 N 
HETATM   11  H21 UNL     1      24.029   0.952  53.323  1.00  0.00     0.197 HD
BRANCH  10  12
HETATM   12  C15 UNL     1      26.107   0.382  52.914  1.00  0.00     0.058 A 
HETATM   13  C16 UNL     1      26.432  -0.930  52.639  1.00  0.00     0.034 A 
HETATM   14  C17 UNL     1      27.740  -1.252  52.951  1.00  0.00     0.046 A 
HETATM   15  C18 UNL     1      28.637  -0.341  53.488  1.00  0.00     0.138 A 
HETATM   16  F1  UNL     1      29.888  -0.826  53.735  1.00  0.00    -0.204 F 
HETATM   17  C19 UNL     1      28.232   0.955  53.734  1.00  0.00     0.074 A 
HETATM   18 CL1  UNL     1      29.411   2.062  54.415  1.00  0.00    -0.081 Cl
HETATM   19  C20 UNL     1      26.935   1.349  53.447  1.00  0.00     0.058 A 
ENDBRANCH  10  12
ENDBRANCH   9  10
ENDBRANCH   8   9
BRANCH   1  20
HETATM   20  N2  UNL     1      26.662   6.842  49.180  1.00  0.00    -0.382 N 
HETATM   21  H15 UNL     1      26.474   7.666  49.823  1.00  0.00     0.160 HD
BRANCH  20  22
HETATM   22  C2  UNL     1      27.381   7.000  47.930  1.00  0.00     0.100 C 
HETATM   23  C1  UNL     1      26.757   7.987  46.990  1.00  0.00     0.036 C 
BRANCH  22  24
HETATM   24  C3  UNL     1      28.791   7.364  48.271  1.00  0.00    -0.005 C 
HETATM   25  C4  UNL     1      29.739   6.492  47.951  1.00  0.00     0.001 C 
BRANCH  25  26
HETATM   26  C5  UNL     1      31.180   6.677  48.206  1.00  0.00     0.298 C 
BRANCH  26  27
HETATM   27  N1  UNL     1      31.827   5.408  48.555  1.00  0.00     0.083 N 
HETATM   28  C6  UNL     1      31.573   4.514  47.428  1.00  0.00     0.309 C 
HETATM   29  C7  UNL     1      33.254   5.673  48.682  1.00  0.00     0.309 C 
ENDBRANCH  26  27
ENDBRANCH  25  26
ENDBRANCH  22  24
ENDBRANCH  20  22
ENDBRANCH   1  20
TORSDOF 8
ENDMDL
MODEL 5
REMARK VINA RESULT:      -7.5      5.428      9.824
REMARK  8 active torsions:
REMARK  status: ('A' for Active; 'I' for Inactive)
REMARK    1  A    between atoms: C2_2  and  C3_3 
REMARK    2  A    between atoms: C2_2  and  N2_9 
REMARK    3  A    between atoms: C4_4  and  C5_5 
REMARK    4  A    between atoms: C5_5  and  N1_6 
REMARK    5  A    between atoms: N2_9  and  C8_10 
REMARK    6  A    between atoms: N3_17  and  O1_18 
REMARK    7  A    between atoms: O1_18  and  N4_19 
REMARK    8  A    between atoms: N4_19  and  C15_20 
ROOT
HETATM    1  C8  UNL     1      20.872  -0.001  53.482  1.00  0.00     0.029 A 
HETATM    2  C9  UNL     1      22.048  -0.751  53.391  1.00  0.00     0.031 A 
HETATM    3  C10 UNL     1      23.236  -0.216  52.940  1.00  0.00     0.034 A 
HETATM    4  C11 UNL     1      23.302   1.106  52.556  1.00  0.00     0.068 A 
HETATM    5  C12 UNL     1      22.167   1.887  52.627  1.00  0.00    -0.007 A 
HETATM    6  C13 UNL     1      20.999   1.314  53.084  1.00  0.00     0.040 A 
HETATM    7  C14 UNL     1      22.893   3.075  52.114  1.00  0.00     0.199 A 
HETATM    8  N3  UNL     1      24.051   2.207  52.056  1.00  0.00    -0.229 N 
ENDROOT
BRANCH   8   9
HETATM    9  O1  UNL     1      25.354   2.398  51.663  1.00  0.00    -0.154 OA
BRANCH   9  10
HETATM   10  N4  UNL     1      26.095   2.013  52.724  1.00  0.00    -0.242 N 
HETATM   11  H21 UNL     1      25.562   2.594  53.408  1.00  0.00     0.197 HD
BRANCH  10  12
HETATM   12  C15 UNL     1      27.198   1.176  53.052  1.00  0.00     0.058 A 
HETATM   13  C16 UNL     1      28.299   1.809  53.592  1.00  0.00     0.034 A 
HETATM   14  C17 UNL     1      29.339   0.948  53.890  1.00  0.00     0.046 A 
HETATM   15  C18 UNL     1      29.278  -0.420  53.666  1.00  0.00     0.138 A 
HETATM   16  F1  UNL     1      30.393  -1.121  54.018  1.00  0.00    -0.204 F 
HETATM   17  C19 UNL     1      28.138  -0.974  53.121  1.00  0.00     0.074 A 
HETATM   18 CL1  UNL     1      28.120  -2.709  52.860  1.00  0.00    -0.081 Cl
HETATM   19  C20 UNL     1      27.056  -0.172  52.797  1.00  0.00     0.058 A 
ENDBRANCH  10  12
ENDBRANCH   9  10
ENDBRANCH   8   9
BRANCH   1  20
HETATM   20  N2  UNL     1      19.642  -0.551  53.948  1.00  0.00    -0.382 N 
HETATM   21  H15 UNL     1      19.402  -0.322  54.957  1.00  0.00     0.160 HD
BRANCH  20  22
HETATM   22  C2  UNL     1      18.769  -1.364  53.123  1.00  0.00     0.100 C 
HETATM   23  C1  UNL     1      18.059  -2.449  53.876  1.00  0.00     0.036 C 
BRANCH  22  24
HETATM   24  C3  UNL     1      17.816  -0.440  52.437  1.00  0.00    -0.005 C 
HETATM   25  C4  UNL     1      18.081  -0.117  51.177  1.00  0.00     0.001 C 
BRANCH  25  26
HETATM   26  C5  UNL     1      17.257   0.778  50.341  1.00  0.00     0.298 C 
BRANCH  26  27
HETATM   27  N1  UNL     1      17.391   2.175  50.764  1.00  0.00     0.083 N 
HETATM   28  C6  UNL     1      17.763   2.916  49.560  1.00  0.00     0.309 C 
HETATM   29  C7  UNL     1      16.086   2.607  51.243  1.00  0.00     0.309 C 
ENDBRANCH  26  27
ENDBRANCH  25  26
ENDBRANCH  22  24
ENDBRANCH  20  22
ENDBRANCH   1  20
TORSDOF 8
ENDMDL
MODEL 6
REMARK VINA RESULT:      -7.4      2.729      3.295
REMARK  8 active torsions:
REMARK  status: ('A' for Active; 'I' for Inactive)
REMARK    1  A    between atoms: C2_2  and  C3_3 
REMARK    2  A    between atoms: C2_2  and  N2_9 
REMARK    3  A    between atoms: C4_4  and  C5_5 
REMARK    4  A    between atoms: C5_5  and  N1_6 
REMARK    5  A    between atoms: N2_9  and  C8_10 
REMARK    6  A    between atoms: N3_17  and  O1_18 
REMARK    7  A    between atoms: O1_18  and  N4_19 
REMARK    8  A    between atoms: N4_19  and  C15_20 
ROOT
HETATM    1  C8  UNL     1      27.773   7.140  48.053  1.00  0.00     0.029 A 
HETATM    2  C9  UNL     1      28.436   5.909  48.058  1.00  0.00     0.031 A 
HETATM    3  C10 UNL     1      27.913   4.787  48.663  1.00  0.00     0.034 A 
HETATM    4  C11 UNL     1      26.689   4.845  49.296  1.00  0.00     0.068 A 
HETATM    5  C12 UNL     1      25.996   6.037  49.318  1.00  0.00    -0.007 A 
HETATM    6  C13 UNL     1      26.554   7.136  48.701  1.00  0.00     0.040 A 
HETATM    7  C14 UNL     1      24.880   5.431  50.086  1.00  0.00     0.199 A 
HETATM    8  N3  UNL     1      25.654   4.208  50.035  1.00  0.00    -0.229 N 
ENDROOT
BRANCH   8   9
HETATM    9  O1  UNL     1      25.447   2.940  50.524  1.00  0.00    -0.154 OA
BRANCH   9  10
HETATM   10  N4  UNL     1      26.342   2.805  51.526  1.00  0.00    -0.242 N 
HETATM   11  H21 UNL     1      26.415   3.830  51.706  1.00  0.00     0.197 HD
BRANCH  10  12
HETATM   12  C15 UNL     1      27.053   1.800  52.239  1.00  0.00     0.058 A 
HETATM   13  C16 UNL     1      28.050   2.246  53.083  1.00  0.00     0.034 A 
HETATM   14  C17 UNL     1      28.706   1.228  53.749  1.00  0.00     0.046 A 
HETATM   15  C18 UNL     1      28.391  -0.113  53.583  1.00  0.00     0.138 A 
HETATM   16  F1  UNL     1      29.138  -0.986  54.317  1.00  0.00    -0.204 F 
HETATM   17  C19 UNL     1      27.378  -0.475  52.718  1.00  0.00     0.074 A 
HETATM   18 CL1  UNL     1      27.025  -2.186  52.548  1.00  0.00    -0.081 Cl
HETATM   19  C20 UNL     1      26.677   0.492  52.017  1.00  0.00     0.058 A 
ENDBRANCH  10  12
ENDBRANCH   9  10
ENDBRANCH   8   9
BRANCH   1  20
HETATM   20  N2  UNL     1      28.311   8.303  47.428  1.00  0.00    -0.382 N 
HETATM   21  H15 UNL     1      28.154   8.362  46.379  1.00  0.00     0.160 HD
BRANCH  20  22
HETATM   22  C2  UNL     1      29.023   9.339  48.151  1.00  0.00     0.100 C 
HETATM   23  C1  UNL     1      28.180  10.073  49.149  1.00  0.00     0.036 C 
BRANCH  22  24
HETATM   24  C3  UNL     1      30.216   8.698  48.786  1.00  0.00    -0.005 C 
HETATM   25  C4  UNL     1      31.249   8.423  48.001  1.00  0.00     0.001 C 
BRANCH  25  26
HETATM   26  C5  UNL     1      32.508   7.795  48.447  1.00  0.00     0.298 C 
BRANCH  26  27
HETATM   27  N1  UNL     1      32.429   6.332  48.377  1.00  0.00     0.083 N 
HETATM   28  C6  UNL     1      32.144   6.021  46.978  1.00  0.00     0.309 C 
HETATM   29  C7  UNL     1      33.734   5.812  48.758  1.00  0.00     0.309 C 
ENDBRANCH  26  27
ENDBRANCH  25  26
ENDBRANCH  22  24
ENDBRANCH  20  22
ENDBRANCH   1  20
TORSDOF 8
ENDMDL
MODEL 7
REMARK VINA RESULT:      -7.3      1.686      2.378
REMARK  8 active torsions:
REMARK  status: ('A' for Active; 'I' for Inactive)
REMARK    1  A    between atoms: C2_2  and  C3_3 
REMARK    2  A    between atoms: C2_2  and  N2_9 
REMARK    3  A    between atoms: C4_4  and  C5_5 
REMARK    4  A    between atoms: C5_5  and  N1_6 
REMARK    5  A    between atoms: N2_9  and  C8_10 
REMARK    6  A    between atoms: N3_17  and  O1_18 
REMARK    7  A    between atoms: O1_18  and  N4_19 
REMARK    8  A    between atoms: N4_19  and  C15_20 
ROOT
HETATM    1  C8  UNL     1      28.337   6.599  47.931  1.00  0.00     0.029 A 
HETATM    2  C9  UNL     1      27.291   7.378  48.435  1.00  0.00     0.031 A 
HETATM    3  C10 UNL     1      26.260   6.844  49.179  1.00  0.00     0.034 A 
HETATM    4  C11 UNL     1      26.229   5.493  49.455  1.00  0.00     0.068 A 
HETATM    5  C12 UNL     1      27.238   4.683  48.979  1.00  0.00    -0.007 A 
HETATM    6  C13 UNL     1      28.251   5.256  48.239  1.00  0.00     0.040 A 
HETATM    7  C14 UNL     1      26.627   3.478  49.590  1.00  0.00     0.199 A 
HETATM    8  N3  UNL     1      25.592   4.375  50.060  1.00  0.00    -0.229 N 
ENDROOT
BRANCH   8   9
HETATM    9  O1  UNL     1      24.448   4.190  50.799  1.00  0.00    -0.154 OA
BRANCH   9  10
HETATM   10  N4  UNL     1      24.872   3.664  51.968  1.00  0.00    -0.242 N 
HETATM   11  H21 UNL     1      25.201   4.577  52.352  1.00  0.00     0.197 HD
BRANCH  10  12
HETATM   12  C15 UNL     1      24.954   2.417  52.649  1.00  0.00     0.058 A 
HETATM   13  C16 UNL     1      26.108   2.197  53.373  1.00  0.00     0.034 A 
HETATM   14  C17 UNL     1      26.133   0.972  54.013  1.00  0.00     0.046 A 
HETATM   15  C18 UNL     1      25.096   0.054  53.932  1.00  0.00     0.138 A 
HETATM   16  F1  UNL     1      25.284  -1.105  54.625  1.00  0.00    -0.204 F 
HETATM   17  C19 UNL     1      23.975   0.353  53.186  1.00  0.00     0.074 A 
HETATM   18 CL1  UNL     1      22.696  -0.848  53.121  1.00  0.00    -0.081 Cl
HETATM   19  C20 UNL     1      23.880   1.562  52.517  1.00  0.00     0.058 A 
ENDBRANCH  10  12
ENDBRANCH   9  10
ENDBRANCH   8   9
BRANCH   1  20
HETATM   20  N2  UNL     1      29.404   7.148  47.162  1.00  0.00    -0.382 N 
HETATM   21  H15 UNL     1      29.155   7.394  46.160  1.00  0.00     0.160 HD
BRANCH  20  22
HETATM   22  C2  UNL     1      30.739   7.361  47.689  1.00  0.00     0.100 C 
HETATM   23  C1  UNL     1      30.783   7.537  49.177  1.00  0.00     0.036 C 
BRANCH  22  24
HETATM   24  C3  UNL     1      31.586   6.217  47.233  1.00  0.00    -0.005 C 
HETATM   25  C4  UNL     1      32.077   5.412  48.167  1.00  0.00     0.001 C 
BRANCH  25  26
HETATM   26  C5  UNL     1      32.929   4.236  47.908  1.00  0.00     0.298 C 
BRANCH  26  27
HETATM   27  N1  UNL     1      34.255   4.634  47.424  1.00  0.00     0.083 N 
HETATM   28  C6  UNL     1      34.902   5.300  48.551  1.00  0.00     0.309 C 
HETATM   29  C7  UNL     1      34.970   3.414  47.075  1.00  0.00     0.309 C 
ENDBRANCH  26  27
ENDBRANCH  25  26
ENDBRANCH  22  24
ENDBRANCH  20  22
ENDBRANCH   1  20
TORSDOF 8
ENDMDL
MODEL 8
REMARK VINA RESULT:      -7.3      3.434      4.059
REMARK  8 active torsions:
REMARK  status: ('A' for Active; 'I' for Inactive)
REMARK    1  A    between atoms: C2_2  and  C3_3 
REMARK    2  A    between atoms: C2_2  and  N2_9 
REMARK    3  A    between atoms: C4_4  and  C5_5 
REMARK    4  A    between atoms: C5_5  and  N1_6 
REMARK    5  A    between atoms: N2_9  and  C8_10 
REMARK    6  A    between atoms: N3_17  and  O1_18 
REMARK    7  A    between atoms: O1_18  and  N4_19 
REMARK    8  A    between atoms: N4_19  and  C15_20 
ROOT
HETATM    1  C8  UNL     1      26.028   5.702  49.574  1.00  0.00     0.029 A 
HETATM    2  C9  UNL     1      26.662   4.492  49.277  1.00  0.00     0.031 A 
HETATM    3  C10 UNL     1      26.200   3.279  49.740  1.00  0.00     0.034 A 
HETATM    4  C11 UNL     1      25.070   3.220  50.529  1.00  0.00     0.068 A 
HETATM    5  C12 UNL     1      24.409   4.387  50.850  1.00  0.00    -0.007 A 
HETATM    6  C13 UNL     1      24.904   5.580  50.367  1.00  0.00     0.040 A 
HETATM    7  C14 UNL     1      23.392   3.652  51.640  1.00  0.00     0.199 A 
HETATM    8  N3  UNL     1      24.129   2.459  51.275  1.00  0.00    -0.229 N 
ENDROOT
BRANCH   8   9
HETATM    9  O1  UNL     1      23.962   1.124  51.557  1.00  0.00    -0.154 OA
BRANCH   9  10
HETATM   10  N4  UNL     1      24.775   0.889  52.610  1.00  0.00    -0.242 N 
HETATM   11  H21 UNL     1      24.045   1.105  53.324  1.00  0.00     0.197 HD
BRANCH  10  12
HETATM   12  C15 UNL     1      26.111   0.498  52.903  1.00  0.00     0.058 A 
HETATM   13  C16 UNL     1      26.435  -0.812  52.616  1.00  0.00     0.034 A 
HETATM   14  C17 UNL     1      27.745  -1.136  52.921  1.00  0.00     0.046 A 
HETATM   15  C18 UNL     1      28.643  -0.228  53.462  1.00  0.00     0.138 A 
HETATM   16  F1  UNL     1      29.895  -0.714  53.701  1.00  0.00    -0.204 F 
HETATM   17  C19 UNL     1      28.238   1.066  53.719  1.00  0.00     0.074 A 
HETATM   18 CL1  UNL     1      29.419   2.169  54.404  1.00  0.00    -0.081 Cl
HETATM   19  C20 UNL     1      26.941   1.461  53.439  1.00  0.00     0.058 A 
ENDBRANCH  10  12
ENDBRANCH   9  10
ENDBRANCH   8   9
BRANCH   1  20
HETATM   20  N2  UNL     1      26.502   6.959  49.097  1.00  0.00    -0.382 N 
HETATM   21  H15 UNL     1      26.305   7.784  49.735  1.00  0.00     0.160 HD
BRANCH  20  22
HETATM   22  C2  UNL     1      27.203   7.120  47.838  1.00  0.00     0.100 C 
HETATM   23  C1  UNL     1      26.540   8.074  46.891  1.00  0.00     0.036 C 
BRANCH  22  24
HETATM   24  C3  UNL     1      28.605   7.529  48.157  1.00  0.00    -0.005 C 
HETATM   25  C4  UNL     1      28.769   8.644  48.858  1.00  0.00     0.001 C 
BRANCH  25  26
HETATM   26  C5  UNL     1      30.072   9.204  49.267  1.00  0.00     0.298 C 
BRANCH  26  27
HETATM   27  N1  UNL     1      30.567  10.175  48.286  1.00  0.00     0.083 N 
HETATM   28  C6  UNL     1      30.712  11.432  49.016  1.00  0.00     0.309 C 
HETATM   29  C7  UNL     1      31.866   9.700  47.829  1.00  0.00     0.309 C 
ENDBRANCH  26  27
ENDBRANCH  25  26
ENDBRANCH  22  24
ENDBRANCH  20  22
ENDBRANCH   1  20
TORSDOF 8
ENDMDL
MODEL 9
REMARK VINA RESULT:      -7.2      1.983      2.872
REMARK  8 active torsions:
REMARK  status: ('A' for Active; 'I' for Inactive)
REMARK    1  A    between atoms: C2_2  and  C3_3 
REMARK    2  A    between atoms: C2_2  and  N2_9 
REMARK    3  A    between atoms: C4_4  and  C5_5 
REMARK    4  A    between atoms: C5_5  and  N1_6 
REMARK    5  A    between atoms: N2_9  and  C8_10 
REMARK    6  A    between atoms: N3_17  and  O1_18 
REMARK    7  A    between atoms: O1_18  and  N4_19 
REMARK    8  A    between atoms: N4_19  and  C15_20 
ROOT
HETATM    1  C8  UNL     1      28.862   6.691  47.838  1.00  0.00     0.029 A 
HETATM    2  C9  UNL     1      27.834   7.548  48.242  1.00  0.00     0.031 A 
HETATM    3  C10 UNL     1      26.706   7.098  48.894  1.00  0.00     0.034 A 
HETATM    4  C11 UNL     1      26.554   5.756  49.175  1.00  0.00     0.068 A 
HETATM    5  C12 UNL     1      27.540   4.871  48.795  1.00  0.00    -0.007 A 
HETATM    6  C13 UNL     1      28.653   5.362  48.145  1.00  0.00     0.040 A 
HETATM    7  C14 UNL     1      26.793   3.720  49.356  1.00  0.00     0.199 A 
HETATM    8  N3  UNL     1      25.787   4.694  49.727  1.00  0.00    -0.229 N 
ENDROOT
BRANCH   8   9
HETATM    9  O1  UNL     1      24.572   4.600  50.363  1.00  0.00    -0.154 OA
BRANCH   9  10
HETATM   10  N4  UNL     1      24.816   3.865  51.470  1.00  0.00    -0.242 N 
HETATM   11  H21 UNL     1      25.402   4.599  51.924  1.00  0.00     0.197 HD
BRANCH  10  12
HETATM   12  C15 UNL     1      24.520   2.594  52.035  1.00  0.00     0.058 A 
HETATM   13  C16 UNL     1      23.240   2.432  52.522  1.00  0.00     0.034 A 
HETATM   14  C17 UNL     1      23.008   1.179  53.059  1.00  0.00     0.046 A 
HETATM   15  C18 UNL     1      23.973   0.183  53.102  1.00  0.00     0.138 A 
HETATM   16  F1  UNL     1      23.576  -0.994  53.665  1.00  0.00    -0.204 F 
HETATM   17  C19 UNL     1      25.231   0.427  52.591  1.00  0.00     0.074 A 
HETATM   18 CL1  UNL     1      26.410  -0.871  52.674  1.00  0.00    -0.081 Cl
HETATM   19  C20 UNL     1      25.535   1.660  52.038  1.00  0.00     0.058 A 
ENDBRANCH  10  12
ENDBRANCH   9  10
ENDBRANCH   8   9
BRANCH   1  20
HETATM   20  N2  UNL     1      30.030   7.153  47.163  1.00  0.00    -0.382 N 
HETATM   21  H15 UNL     1      29.916   7.298  46.118  1.00  0.00     0.160 HD
BRANCH  20  22
HETATM   22  C2  UNL     1      31.289   7.411  47.836  1.00  0.00     0.100 C 
HETATM   23  C1  UNL     1      31.136   7.896  49.246  1.00  0.00     0.036 C 
BRANCH  22  24
HETATM   24  C3  UNL     1      32.100   6.158  47.757  1.00  0.00    -0.005 C 
HETATM   25  C4  UNL     1      32.487   5.758  46.553  1.00  0.00     0.001 C 
BRANCH  25  26
HETATM   26  C5  UNL     1      33.291   4.551  46.279  1.00  0.00     0.298 C 
BRANCH  26  27
HETATM   27  N1  UNL     1      33.328   3.659  47.442  1.00  0.00     0.083 N 
HETATM   28  C6  UNL     1      32.731   2.403  46.994  1.00  0.00     0.309 C 
HETATM   29  C7  UNL     1      34.728   3.461  47.788  1.00  0.00     0.309 C 
ENDBRANCH  26  27
ENDBRANCH  25  26
ENDBRANCH  22  24
ENDBRANCH  20  22
ENDBRANCH   1  20
TORSDOF 8
ENDMDL
