MODEL 1
REMARK VINA RESULT:      -7.8      0.000      0.000
REMARK  7 active torsions:
REMARK  status: ('A' for Active; 'I' for Inactive)
REMARK    1  A    between atoms: O1_2  and  C2_3 
REMARK    2  A    between atoms: C6_9  and  C7_10 
REMARK    3  A    between atoms: N3_13  and  C10_14 
REMARK    4  A    between atoms: C10_14  and  N4_16 
REMARK    5  A    between atoms: N4_16  and  C11_17 
REMARK    6  A    between atoms: C11_17  and  C12_18 
REMARK    7  A    between atoms: C21_27  and  O2_28 
ROOT
HETATM    1  C7  UNL     1      23.170   2.647  52.684  1.00  0.00     0.058 C 
HETATM    2  C8  UNL     1      22.541   1.258  52.513  1.00  0.00     0.032 C 
HETATM    3  C9  UNL     1      22.634   1.147  50.992  1.00  0.00     0.126 C 
HETATM    4  N3  UNL     1      22.335   2.486  50.535  1.00  0.00    -0.358 N 
HETATM    5  C18 UNL     1      22.341   3.414  51.676  1.00  0.00     0.136 C 
ENDROOT
BRANCH   1   6
HETATM    6  C6  UNL     1      24.569   2.665  52.151  1.00  0.00     0.054 A 
HETATM    7  N2  UNL     1      24.942   3.438  51.114  1.00  0.00    -0.245 NA
HETATM    8  C5  UNL     1      26.196   3.440  50.653  1.00  0.00     0.234 A 
HETATM    9  N1  UNL     1      27.150   2.669  51.206  1.00  0.00    -0.241 NA
HETATM   10  C4  UNL     1      26.872   1.850  52.262  1.00  0.00     0.073 A 
HETATM   11  C3  UNL     1      27.831   1.049  52.848  1.00  0.00     0.072 A 
HETATM   12  C19 UNL     1      25.567   1.877  52.708  1.00  0.00     0.021 A 
HETATM   13  C2  UNL     1      27.513   0.233  53.915  1.00  0.00     0.103 A 
HETATM   14  C21 UNL     1      26.214   0.226  54.397  1.00  0.00     0.102 A 
HETATM   15  C20 UNL     1      25.296   1.048  53.772  1.00  0.00     0.055 A 
BRANCH  13  16
HETATM   16  O1  UNL     1      28.448  -0.590  54.534  1.00  0.00    -0.353 OA
HETATM   17  C1  UNL     1      29.620  -0.943  53.785  1.00  0.00     0.210 C 
ENDBRANCH  13  16
BRANCH  14  18
HETATM   18  O2  UNL     1      25.898  -0.582  55.455  1.00  0.00    -0.353 OA
HETATM   19  C22 UNL     1      24.643  -1.189  55.531  1.00  0.00     0.210 C 
ENDBRANCH  14  18
ENDBRANCH   1   6
BRANCH   4  20
HETATM   20  C10 UNL     1      22.064   2.917  49.185  1.00  0.00     0.170 C 
HETATM   21  S1  UNL     1      20.670   2.326  48.535  1.00  0.00    -0.041 SA
BRANCH  20  22
HETATM   22  N4  UNL     1      22.948   3.787  48.504  1.00  0.00    -0.363 N 
HETATM   23  H11 UNL     1      23.865   3.342  48.246  1.00  0.00     0.162 HD
BRANCH  22  24
HETATM   24  C11 UNL     1      22.865   5.144  48.091  1.00  0.00     0.160 C 
BRANCH  24  25
HETATM   25  C12 UNL     1      23.722   5.985  48.969  1.00  0.00    -0.041 A 
HETATM   26  C13 UNL     1      25.008   6.131  48.471  1.00  0.00     0.009 A 
HETATM   27  C14 UNL     1      25.995   6.853  49.101  1.00  0.00     0.001 A 
HETATM   28  C15 UNL     1      25.702   7.473  50.303  1.00  0.00     0.000 A 
HETATM   29  C16 UNL     1      24.436   7.330  50.795  1.00  0.00     0.001 A 
HETATM   30  C17 UNL     1      23.453   6.607  50.161  1.00  0.00     0.009 A 
ENDBRANCH  24  25
ENDBRANCH  22  24
ENDBRANCH  20  22
ENDBRANCH   4  20
TORSDOF 7
ENDMDL
MODEL 2
REMARK VINA RESULT:      -7.6      1.814      3.039
REMARK  7 active torsions:
REMARK  status: ('A' for Active; 'I' for Inactive)
REMARK    1  A    between atoms: O1_2  and  C2_3 
REMARK    2  A    between atoms: C6_9  and  C7_10 
REMARK    3  A    between atoms: N3_13  and  C10_14 
REMARK    4  A    between atoms: C10_14  and  N4_16 
REMARK    5  A    between atoms: N4_16  and  C11_17 
REMARK    6  A    between atoms: C11_17  and  C12_18 
REMARK    7  A    between atoms: C21_27  and  O2_28 
ROOT
HETATM    1  C7  UNL     1      23.518   4.117  52.740  1.00  0.00     0.058 C 
HETATM    2  C8  UNL     1      22.193   4.870  52.563  1.00  0.00     0.032 C 
HETATM    3  C9  UNL     1      21.836   4.386  51.159  1.00  0.00     0.126 C 
HETATM    4  N3  UNL     1      23.112   4.353  50.478  1.00  0.00    -0.358 N 
HETATM    5  C18 UNL     1      24.201   4.521  51.451  1.00  0.00     0.136 C 
ENDROOT
BRANCH   1   6
HETATM    6  C6  UNL     1      23.306   2.638  52.636  1.00  0.00     0.054 A 
HETATM    7  N2  UNL     1      22.156   2.098  52.189  1.00  0.00    -0.245 NA
HETATM    8  C5  UNL     1      21.986   0.775  52.104  1.00  0.00     0.234 A 
HETATM    9  N1  UNL     1      22.959  -0.082  52.460  1.00  0.00    -0.241 NA
HETATM   10  C4  UNL     1      24.160   0.365  52.927  1.00  0.00     0.073 A 
HETATM   11  C3  UNL     1      25.175  -0.493  53.300  1.00  0.00     0.072 A 
HETATM   12  C19 UNL     1      24.297   1.737  53.000  1.00  0.00     0.021 A 
HETATM   13  C2  UNL     1      26.378  -0.002  53.767  1.00  0.00     0.103 A 
HETATM   14  C21 UNL     1      26.560   1.368  53.858  1.00  0.00     0.102 A 
HETATM   15  C20 UNL     1      25.511   2.179  53.471  1.00  0.00     0.055 A 
BRANCH  13  16
HETATM   16  O1  UNL     1      27.426  -0.831  54.153  1.00  0.00    -0.353 OA
HETATM   17  C1  UNL     1      28.036  -1.647  53.141  1.00  0.00     0.210 C 
ENDBRANCH  13  16
BRANCH  14  18
HETATM   18  O2  UNL     1      27.753   1.855  54.321  1.00  0.00    -0.353 OA
HETATM   19  C22 UNL     1      28.653   2.467  53.448  1.00  0.00     0.210 C 
ENDBRANCH  14  18
ENDBRANCH   1   6
BRANCH   4  20
HETATM   20  C10 UNL     1      23.352   4.183  49.065  1.00  0.00     0.170 C 
HETATM   21  S1  UNL     1      22.885   2.726  48.453  1.00  0.00    -0.041 SA
BRANCH  20  22
HETATM   22  N4  UNL     1      23.941   5.213  48.295  1.00  0.00    -0.363 N 
HETATM   23  H11 UNL     1      23.853   5.071  47.258  1.00  0.00     0.162 HD
BRANCH  22  24
HETATM   24  C11 UNL     1      24.632   6.411  48.624  1.00  0.00     0.160 C 
BRANCH  24  25
HETATM   25  C12 UNL     1      26.095   6.203  48.455  1.00  0.00    -0.041 A 
HETATM   26  C13 UNL     1      26.719   7.285  47.854  1.00  0.00     0.009 A 
HETATM   27  C14 UNL     1      28.065   7.337  47.578  1.00  0.00     0.001 A 
HETATM   28  C15 UNL     1      28.856   6.251  47.915  1.00  0.00     0.000 A 
HETATM   29  C16 UNL     1      28.243   5.184  48.507  1.00  0.00     0.001 A 
HETATM   30  C17 UNL     1      26.896   5.139  48.780  1.00  0.00     0.009 A 
ENDBRANCH  24  25
ENDBRANCH  22  24
ENDBRANCH  20  22
ENDBRANCH   4  20
TORSDOF 7
ENDMDL
MODEL 3
REMARK VINA RESULT:      -7.5      4.068      7.114
REMARK  7 active torsions:
REMARK  status: ('A' for Active; 'I' for Inactive)
REMARK    1  A    between atoms: O1_2  and  C2_3 
REMARK    2  A    between atoms: C6_9  and  C7_10 
REMARK    3  A    between atoms: N3_13  and  C10_14 
REMARK    4  A    between atoms: C10_14  and  N4_16 
REMARK    5  A    between atoms: N4_16  and  C11_17 
REMARK    6  A    between atoms: C11_17  and  C12_18 
REMARK    7  A    between atoms: C21_27  and  O2_28 
ROOT
HETATM    1  C7  UNL     1      22.359   1.820  49.965  1.00  0.00     0.058 C 
HETATM    2  C8  UNL     1      21.922   3.273  50.200  1.00  0.00     0.032 C 
HETATM    3  C9  UNL     1      20.875   3.028  51.285  1.00  0.00     0.126 C 
HETATM    4  N3  UNL     1      20.231   1.803  50.864  1.00  0.00    -0.358 N 
HETATM    5  C18 UNL     1      20.998   1.185  49.773  1.00  0.00     0.136 C 
ENDROOT
BRANCH   1   6
HETATM    6  C6  UNL     1      22.908   1.221  51.223  1.00  0.00     0.054 A 
HETATM    7  N2  UNL     1      22.187   0.406  52.015  1.00  0.00    -0.245 NA
HETATM    8  C5  UNL     1      22.695  -0.119  53.134  1.00  0.00     0.234 A 
HETATM    9  N1  UNL     1      23.955   0.143  53.524  1.00  0.00    -0.241 NA
HETATM   10  C4  UNL     1      24.767   0.959  52.791  1.00  0.00     0.073 A 
HETATM   11  C3  UNL     1      26.063   1.245  53.168  1.00  0.00     0.072 A 
HETATM   12  C19 UNL     1      24.206   1.480  51.643  1.00  0.00     0.021 A 
HETATM   13  C2  UNL     1      26.855   2.076  52.399  1.00  0.00     0.103 A 
HETATM   14  C21 UNL     1      26.334   2.622  51.238  1.00  0.00     0.102 A 
HETATM   15  C20 UNL     1      25.031   2.302  50.910  1.00  0.00     0.055 A 
BRANCH  13  16
HETATM   16  O1  UNL     1      28.166   2.390  52.743  1.00  0.00    -0.353 OA
HETATM   17  C1  UNL     1      28.857   1.487  53.619  1.00  0.00     0.210 C 
ENDBRANCH  13  16
BRANCH  14  18
HETATM   18  O2  UNL     1      27.118   3.446  50.477  1.00  0.00    -0.353 OA
HETATM   19  C22 UNL     1      26.589   4.089  49.357  1.00  0.00     0.210 C 
ENDBRANCH  14  18
ENDBRANCH   1   6
BRANCH   4  20
HETATM   20  C10 UNL     1      19.020   1.219  51.391  1.00  0.00     0.170 C 
HETATM   21  S1  UNL     1      17.698   2.201  51.342  1.00  0.00    -0.041 SA
BRANCH  20  22
HETATM   22  N4  UNL     1      19.007  -0.102  51.897  1.00  0.00    -0.363 N 
HETATM   23  H11 UNL     1      19.287  -0.829  51.191  1.00  0.00     0.162 HD
BRANCH  22  24
HETATM   24  C11 UNL     1      18.696  -0.665  53.164  1.00  0.00     0.160 C 
BRANCH  24  25
HETATM   25  C12 UNL     1      17.594  -1.653  53.012  1.00  0.00    -0.041 A 
HETATM   26  C13 UNL     1      17.872  -2.857  53.640  1.00  0.00     0.009 A 
HETATM   27  C14 UNL     1      17.019  -3.936  53.638  1.00  0.00     0.001 A 
HETATM   28  C15 UNL     1      15.809  -3.828  52.973  1.00  0.00     0.000 A 
HETATM   29  C16 UNL     1      15.534  -2.642  52.354  1.00  0.00     0.001 A 
HETATM   30  C17 UNL     1      16.391  -1.567  52.359  1.00  0.00     0.009 A 
ENDBRANCH  24  25
ENDBRANCH  22  24
ENDBRANCH  20  22
ENDBRANCH   4  20
TORSDOF 7
ENDMDL
MODEL 4
REMARK VINA RESULT:      -7.3      3.570      7.193
REMARK  7 active torsions:
REMARK  status: ('A' for Active; 'I' for Inactive)
REMARK    1  A    between atoms: O1_2  and  C2_3 
REMARK    2  A    between atoms: C6_9  and  C7_10 
REMARK    3  A    between atoms: N3_13  and  C10_14 
REMARK    4  A    between atoms: C10_14  and  N4_16 
REMARK    5  A    between atoms: N4_16  and  C11_17 
REMARK    6  A    between atoms: C11_17  and  C12_18 
REMARK    7  A    between atoms: C21_27  and  O2_28 
ROOT
HETATM    1  C7  UNL     1      23.051   4.257  50.307  1.00  0.00     0.058 C 
HETATM    2  C8  UNL     1      22.884   5.068  51.598  1.00  0.00     0.032 C 
HETATM    3  C9  UNL     1      23.672   4.164  52.545  1.00  0.00     0.126 C 
HETATM    4  N3  UNL     1      23.327   2.830  52.104  1.00  0.00    -0.358 N 
HETATM    5  C18 UNL     1      22.619   2.898  50.817  1.00  0.00     0.136 C 
ENDROOT
BRANCH   1   6
HETATM    6  C6  UNL     1      24.499   4.111  49.954  1.00  0.00     0.054 A 
HETATM    7  N2  UNL     1      25.192   2.979  50.178  1.00  0.00    -0.245 NA
HETATM    8  C5  UNL     1      26.484   2.869  49.856  1.00  0.00     0.234 A 
HETATM    9  N1  UNL     1      27.156   3.888  49.290  1.00  0.00    -0.241 NA
HETATM   10  C4  UNL     1      26.544   5.077  49.024  1.00  0.00     0.073 A 
HETATM   11  C3  UNL     1      27.210   6.138  48.444  1.00  0.00     0.072 A 
HETATM   12  C19 UNL     1      25.210   5.151  49.370  1.00  0.00     0.021 A 
HETATM   13  C2  UNL     1      26.556   7.328  48.189  1.00  0.00     0.103 A 
HETATM   14  C21 UNL     1      25.216   7.447  48.521  1.00  0.00     0.102 A 
HETATM   15  C20 UNL     1      24.601   6.354  49.098  1.00  0.00     0.055 A 
BRANCH  13  16
HETATM   16  O1  UNL     1      27.189   8.421  47.607  1.00  0.00    -0.353 OA
HETATM   17  C1  UNL     1      28.073   9.194  48.434  1.00  0.00     0.210 C 
ENDBRANCH  13  16
BRANCH  14  18
HETATM   18  O2  UNL     1      24.568   8.626  48.268  1.00  0.00    -0.353 OA
HETATM   19  C22 UNL     1      23.181   8.711  48.397  1.00  0.00     0.210 C 
ENDBRANCH  14  18
ENDBRANCH   1   6
BRANCH   4  20
HETATM   20  C10 UNL     1      23.605   1.581  52.772  1.00  0.00     0.170 C 
HETATM   21  S1  UNL     1      22.272   0.735  53.241  1.00  0.00    -0.041 SA
BRANCH  20  22
HETATM   22  N4  UNL     1      24.934   1.147  52.985  1.00  0.00    -0.363 N 
HETATM   23  H11 UNL     1      25.551   1.873  53.429  1.00  0.00     0.162 HD
BRANCH  22  24
HETATM   24  C11 UNL     1      25.623  -0.069  52.727  1.00  0.00     0.160 C 
BRANCH  24  25
HETATM   25  C12 UNL     1      27.063   0.094  53.062  1.00  0.00    -0.041 A 
HETATM   26  C13 UNL     1      27.750  -1.110  53.050  1.00  0.00     0.009 A 
HETATM   27  C14 UNL     1      29.090  -1.230  53.335  1.00  0.00     0.001 A 
HETATM   28  C15 UNL     1      29.807  -0.090  53.655  1.00  0.00     0.000 A 
HETATM   29  C16 UNL     1      29.132   1.097  53.667  1.00  0.00     0.001 A 
HETATM   30  C17 UNL     1      27.792   1.211  53.382  1.00  0.00     0.009 A 
ENDBRANCH  24  25
ENDBRANCH  22  24
ENDBRANCH  20  22
ENDBRANCH   4  20
TORSDOF 7
ENDMDL
MODEL 5
REMARK VINA RESULT:      -7.3      3.753      7.309
REMARK  7 active torsions:
REMARK  status: ('A' for Active; 'I' for Inactive)
REMARK    1  A    between atoms: O1_2  and  C2_3 
REMARK    2  A    between atoms: C6_9  and  C7_10 
REMARK    3  A    between atoms: N3_13  and  C10_14 
REMARK    4  A    between atoms: C10_14  and  N4_16 
REMARK    5  A    between atoms: N4_16  and  C11_17 
REMARK    6  A    between atoms: C11_17  and  C12_18 
REMARK    7  A    between atoms: C21_27  and  O2_28 
ROOT
HETATM    1  C7  UNL     1      23.790   6.218  49.185  1.00  0.00     0.058 C 
HETATM    2  C8  UNL     1      23.745   7.099  50.441  1.00  0.00     0.032 C 
HETATM    3  C9  UNL     1      23.672   5.996  51.496  1.00  0.00     0.126 C 
HETATM    4  N3  UNL     1      22.811   5.005  50.890  1.00  0.00    -0.358 N 
HETATM    5  C18 UNL     1      22.600   5.327  49.471  1.00  0.00     0.136 C 
ENDROOT
BRANCH   1   6
HETATM    6  C6  UNL     1      24.984   5.315  49.212  1.00  0.00     0.054 A 
HETATM    7  N2  UNL     1      24.928   4.049  49.667  1.00  0.00    -0.245 NA
HETATM    8  C5  UNL     1      26.005   3.258  49.683  1.00  0.00     0.234 A 
HETATM    9  N1  UNL     1      27.201   3.691  49.244  1.00  0.00    -0.241 NA
HETATM   10  C4  UNL     1      27.362   4.958  48.765  1.00  0.00     0.073 A 
HETATM   11  C3  UNL     1      28.577   5.428  48.309  1.00  0.00     0.072 A 
HETATM   12  C19 UNL     1      26.226   5.743  48.764  1.00  0.00     0.021 A 
HETATM   13  C2  UNL     1      28.701   6.717  47.831  1.00  0.00     0.103 A 
HETATM   14  C21 UNL     1      27.588   7.541  47.811  1.00  0.00     0.102 A 
HETATM   15  C20 UNL     1      26.398   7.019  48.280  1.00  0.00     0.055 A 
BRANCH  13  16
HETATM   16  O1  UNL     1      29.906   7.229  47.362  1.00  0.00    -0.353 OA
HETATM   17  C1  UNL     1      30.890   7.608  48.336  1.00  0.00     0.210 C 
ENDBRANCH  13  16
BRANCH  14  18
HETATM   18  O2  UNL     1      27.711   8.819  47.337  1.00  0.00    -0.353 OA
HETATM   19  C22 UNL     1      27.629   9.906  48.209  1.00  0.00     0.210 C 
ENDBRANCH  14  18
ENDBRANCH   1   6
BRANCH   4  20
HETATM   20  C10 UNL     1      22.215   3.851  51.521  1.00  0.00     0.170 C 
HETATM   21  S1  UNL     1      20.574   3.905  51.657  1.00  0.00    -0.041 SA
BRANCH  20  22
HETATM   22  N4  UNL     1      23.012   2.772  51.971  1.00  0.00    -0.363 N 
HETATM   23  H11 UNL     1      23.652   3.021  52.767  1.00  0.00     0.162 HD
BRANCH  22  24
HETATM   24  C11 UNL     1      23.135   1.412  51.577  1.00  0.00     0.160 C 
BRANCH  24  25
HETATM   25  C12 UNL     1      22.878   0.530  52.747  1.00  0.00    -0.041 A 
HETATM   26  C13 UNL     1      21.532   0.460  53.071  1.00  0.00     0.009 A 
HETATM   27  C14 UNL     1      21.034  -0.280  54.118  1.00  0.00     0.001 A 
HETATM   28  C15 UNL     1      21.917  -1.001  54.903  1.00  0.00     0.000 A 
HETATM   29  C16 UNL     1      23.244  -0.933  54.586  1.00  0.00     0.001 A 
HETATM   30  C17 UNL     1      23.735  -0.191  53.537  1.00  0.00     0.009 A 
ENDBRANCH  24  25
ENDBRANCH  22  24
ENDBRANCH  20  22
ENDBRANCH   4  20
TORSDOF 7
ENDMDL
MODEL 6
REMARK VINA RESULT:      -7.2      1.835      2.414
REMARK  7 active torsions:
REMARK  status: ('A' for Active; 'I' for Inactive)
REMARK    1  A    between atoms: O1_2  and  C2_3 
REMARK    2  A    between atoms: C6_9  and  C7_10 
REMARK    3  A    between atoms: N3_13  and  C10_14 
REMARK    4  A    between atoms: C10_14  and  N4_16 
REMARK    5  A    between atoms: N4_16  and  C11_17 
REMARK    6  A    between atoms: C11_17  and  C12_18 
REMARK    7  A    between atoms: C21_27  and  O2_28 
ROOT
HETATM    1  C7  UNL     1      22.833   3.329  51.628  1.00  0.00     0.058 C 
HETATM    2  C8  UNL     1      21.912   2.418  50.806  1.00  0.00     0.032 C 
HETATM    3  C9  UNL     1      22.383   2.813  49.407  1.00  0.00     0.126 C 
HETATM    4  N3  UNL     1      22.609   4.237  49.516  1.00  0.00    -0.358 N 
HETATM    5  C18 UNL     1      22.562   4.643  50.928  1.00  0.00     0.136 C 
ENDROOT
BRANCH   1   6
HETATM    6  C6  UNL     1      24.272   3.016  51.354  1.00  0.00     0.054 A 
HETATM    7  N2  UNL     1      25.055   3.803  50.594  1.00  0.00    -0.245 NA
HETATM    8  C5  UNL     1      26.337   3.507  50.361  1.00  0.00     0.234 A 
HETATM    9  N1  UNL     1      26.908   2.404  50.877  1.00  0.00    -0.241 NA
HETATM   10  C4  UNL     1      26.198   1.541  51.660  1.00  0.00     0.073 A 
HETATM   11  C3  UNL     1      26.759   0.402  52.202  1.00  0.00     0.072 A 
HETATM   12  C19 UNL     1      24.879   1.882  51.877  1.00  0.00     0.021 A 
HETATM   13  C2  UNL     1      26.009  -0.448  52.991  1.00  0.00     0.103 A 
HETATM   14  C21 UNL     1      24.679  -0.145  53.236  1.00  0.00     0.102 A 
HETATM   15  C20 UNL     1      24.171   1.006  52.667  1.00  0.00     0.055 A 
BRANCH  13  16
HETATM   16  O1  UNL     1      26.535  -1.605  53.556  1.00  0.00    -0.353 OA
HETATM   17  C1  UNL     1      27.344  -2.444  52.718  1.00  0.00     0.210 C 
ENDBRANCH  13  16
BRANCH  14  18
HETATM   18  O2  UNL     1      23.936  -0.988  54.017  1.00  0.00    -0.353 OA
HETATM   19  C22 UNL     1      22.579  -0.740  54.230  1.00  0.00     0.210 C 
ENDBRANCH  14  18
ENDBRANCH   1   6
BRANCH   4  20
HETATM   20  C10 UNL     1      22.851   5.175  48.445  1.00  0.00     0.170 C 
HETATM   21  S1  UNL     1      21.860   5.007  47.140  1.00  0.00    -0.041 SA
BRANCH  20  22
HETATM   22  N4  UNL     1      23.867   6.154  48.548  1.00  0.00    -0.363 N 
HETATM   23  H11 UNL     1      24.561   5.966  49.314  1.00  0.00     0.162 HD
BRANCH  22  24
HETATM   24  C11 UNL     1      24.156   7.348  47.833  1.00  0.00     0.160 C 
BRANCH  24  25
HETATM   25  C12 UNL     1      25.621   7.443  47.594  1.00  0.00    -0.041 A 
HETATM   26  C13 UNL     1      26.339   6.514  48.331  1.00  0.00     0.009 A 
HETATM   27  C14 UNL     1      27.709   6.403  48.296  1.00  0.00     0.001 A 
HETATM   28  C15 UNL     1      28.426   7.262  47.481  1.00  0.00     0.000 A 
HETATM   29  C16 UNL     1      27.720   8.177  46.754  1.00  0.00     0.001 A 
HETATM   30  C17 UNL     1      26.350   8.284  46.793  1.00  0.00     0.009 A 
ENDBRANCH  24  25
ENDBRANCH  22  24
ENDBRANCH  20  22
ENDBRANCH   4  20
TORSDOF 7
ENDMDL
MODEL 7
REMARK VINA RESULT:      -7.1      3.777      7.329
REMARK  7 active torsions:
REMARK  status: ('A' for Active; 'I' for Inactive)
REMARK    1  A    between atoms: O1_2  and  C2_3 
REMARK    2  A    between atoms: C6_9  and  C7_10 
REMARK    3  A    between atoms: N3_13  and  C10_14 
REMARK    4  A    between atoms: C10_14  and  N4_16 
REMARK    5  A    between atoms: N4_16  and  C11_17 
REMARK    6  A    between atoms: C11_17  and  C12_18 
REMARK    7  A    between atoms: C21_27  and  O2_28 
ROOT
HETATM    1  C7  UNL     1      24.037   6.453  48.965  1.00  0.00     0.058 C 
HETATM    2  C8  UNL     1      24.022   7.436  50.142  1.00  0.00     0.032 C 
HETATM    3  C9  UNL     1      24.079   6.428  51.289  1.00  0.00     0.126 C 
HETATM    4  N3  UNL     1      23.238   5.345  50.829  1.00  0.00    -0.358 N 
HETATM    5  C18 UNL     1      22.920   5.530  49.405  1.00  0.00     0.136 C 
ENDROOT
BRANCH   1   6
HETATM    6  C6  UNL     1      25.280   5.617  48.987  1.00  0.00     0.054 A 
HETATM    7  N2  UNL     1      25.290   4.340  49.411  1.00  0.00    -0.245 NA
HETATM    8  C5  UNL     1      26.410   3.611  49.422  1.00  0.00     0.234 A 
HETATM    9  N1  UNL     1      27.584   4.120  49.009  1.00  0.00    -0.241 NA
HETATM   10  C4  UNL     1      27.679   5.406  48.562  1.00  0.00     0.073 A 
HETATM   11  C3  UNL     1      28.871   5.954  48.133  1.00  0.00     0.072 A 
HETATM   12  C19 UNL     1      26.501   6.125  48.565  1.00  0.00     0.021 A 
HETATM   13  C2  UNL     1      28.928   7.259  47.687  1.00  0.00     0.103 A 
HETATM   14  C21 UNL     1      27.770   8.020  47.672  1.00  0.00     0.102 A 
HETATM   15  C20 UNL     1      26.607   7.420  48.113  1.00  0.00     0.055 A 
BRANCH  13  16
HETATM   16  O1  UNL     1      30.108   7.850  47.247  1.00  0.00    -0.353 OA
HETATM   17  C1  UNL     1      31.135   8.089  48.221  1.00  0.00     0.210 C 
ENDBRANCH  13  16
BRANCH  14  18
HETATM   18  O2  UNL     1      27.826   9.314  47.230  1.00  0.00    -0.353 OA
HETATM   19  C22 UNL     1      27.775  10.373  48.138  1.00  0.00     0.210 C 
ENDBRANCH  14  18
ENDBRANCH   1   6
BRANCH   4  20
HETATM   20  C10 UNL     1      22.750   4.222  51.593  1.00  0.00     0.170 C 
HETATM   21  S1  UNL     1      21.139   4.263  51.934  1.00  0.00    -0.041 SA
BRANCH  20  22
HETATM   22  N4  UNL     1      23.619   3.180  51.997  1.00  0.00    -0.363 N 
HETATM   23  H11 UNL     1      24.636   3.391  51.837  1.00  0.00     0.162 HD
BRANCH  22  24
HETATM   24  C11 UNL     1      23.412   1.899  52.577  1.00  0.00     0.160 C 
BRANCH  24  25
HETATM   25  C12 UNL     1      24.677   1.119  52.522  1.00  0.00    -0.041 A 
HETATM   26  C13 UNL     1      24.600  -0.067  53.235  1.00  0.00     0.009 A 
HETATM   27  C14 UNL     1      25.638  -0.962  53.348  1.00  0.00     0.001 A 
HETATM   28  C15 UNL     1      26.836  -0.674  52.718  1.00  0.00     0.000 A 
HETATM   29  C16 UNL     1      26.914   0.493  52.014  1.00  0.00     0.001 A 
HETATM   30  C17 UNL     1      25.872   1.384  51.905  1.00  0.00     0.009 A 
ENDBRANCH  24  25
ENDBRANCH  22  24
ENDBRANCH  20  22
ENDBRANCH   4  20
TORSDOF 7
ENDMDL
MODEL 8
REMARK VINA RESULT:      -6.8      4.548      8.062
REMARK  7 active torsions:
REMARK  status: ('A' for Active; 'I' for Inactive)
REMARK    1  A    between atoms: O1_2  and  C2_3 
REMARK    2  A    between atoms: C6_9  and  C7_10 
REMARK    3  A    between atoms: N3_13  and  C10_14 
REMARK    4  A    between atoms: C10_14  and  N4_16 
REMARK    5  A    between atoms: N4_16  and  C11_17 
REMARK    6  A    between atoms: C11_17  and  C12_18 
REMARK    7  A    between atoms: C21_27  and  O2_28 
ROOT
HETATM    1  C7  UNL     1      25.475   7.543  48.279  1.00  0.00     0.058 C 
HETATM    2  C8  UNL     1      25.413   8.533  49.451  1.00  0.00     0.032 C 
HETATM    3  C9  UNL     1      25.457   7.531  50.603  1.00  0.00     0.126 C 
HETATM    4  N3  UNL     1      24.647   6.431  50.127  1.00  0.00    -0.358 N 
HETATM    5  C18 UNL     1      24.363   6.604  48.695  1.00  0.00     0.136 C 
ENDROOT
BRANCH   1   6
HETATM    6  C6  UNL     1      26.731   6.730  48.338  1.00  0.00     0.054 A 
HETATM    7  N2  UNL     1      26.728   5.405  48.576  1.00  0.00    -0.245 NA
HETATM    8  C5  UNL     1      27.861   4.696  48.624  1.00  0.00     0.234 A 
HETATM    9  N1  UNL     1      29.060   5.275  48.436  1.00  0.00    -0.241 NA
HETATM   10  C4  UNL     1      29.169   6.612  48.190  1.00  0.00     0.073 A 
HETATM   11  C3  UNL     1      30.388   7.231  47.994  1.00  0.00     0.072 A 
HETATM   12  C19 UNL     1      27.979   7.308  48.147  1.00  0.00     0.021 A 
HETATM   13  C2  UNL     1      30.458   8.587  47.747  1.00  0.00     0.103 A 
HETATM   14  C21 UNL     1      29.288   9.327  47.695  1.00  0.00     0.102 A 
HETATM   15  C20 UNL     1      28.099   8.656  47.899  1.00  0.00     0.055 A 
BRANCH  13  16
HETATM   16  O1  UNL     1      31.665   9.250  47.545  1.00  0.00    -0.353 OA
HETATM   17  C1  UNL     1      32.759   8.489  47.013  1.00  0.00     0.210 C 
ENDBRANCH  13  16
BRANCH  14  18
HETATM   18  O2  UNL     1      29.358  10.672  47.451  1.00  0.00    -0.353 OA
HETATM   19  C22 UNL     1      29.233  11.588  48.496  1.00  0.00     0.210 C 
ENDBRANCH  14  18
ENDBRANCH   1   6
BRANCH   4  20
HETATM   20  C10 UNL     1      24.158   5.304  50.885  1.00  0.00     0.170 C 
HETATM   21  S1  UNL     1      22.591   5.427  51.377  1.00  0.00    -0.041 SA
BRANCH  20  22
HETATM   22  N4  UNL     1      24.990   4.193  51.160  1.00  0.00    -0.363 N 
HETATM   23  H11 UNL     1      25.591   4.314  52.013  1.00  0.00     0.162 HD
BRANCH  22  24
HETATM   24  C11 UNL     1      25.191   2.937  50.525  1.00  0.00     0.160 C 
BRANCH  24  25
HETATM   25  C12 UNL     1      25.180   1.856  51.548  1.00  0.00    -0.041 A 
HETATM   26  C13 UNL     1      26.407   1.223  51.664  1.00  0.00     0.009 A 
HETATM   27  C14 UNL     1      26.655   0.185  52.531  1.00  0.00     0.001 A 
HETATM   28  C15 UNL     1      25.627  -0.265  53.341  1.00  0.00     0.000 A 
HETATM   29  C16 UNL     1      24.417   0.358  53.228  1.00  0.00     0.001 A 
HETATM   30  C17 UNL     1      24.175   1.395  52.359  1.00  0.00     0.009 A 
ENDBRANCH  24  25
ENDBRANCH  22  24
ENDBRANCH  20  22
ENDBRANCH   4  20
TORSDOF 7
ENDMDL
MODEL 9
REMARK VINA RESULT:      -6.6      9.328     11.662
REMARK  7 active torsions:
REMARK  status: ('A' for Active; 'I' for Inactive)
REMARK    1  A    between atoms: O1_2  and  C2_3 
REMARK    2  A    between atoms: C6_9  and  C7_10 
REMARK    3  A    between atoms: N3_13  and  C10_14 
REMARK    4  A    between atoms: C10_14  and  N4_16 
REMARK    5  A    between atoms: N4_16  and  C11_17 
REMARK    6  A    between atoms: C11_17  and  C12_18 
REMARK    7  A    between atoms: C21_27  and  O2_28 
ROOT
HETATM    1  C7  UNL     1      33.009   3.759  47.294  1.00  0.00     0.058 C 
HETATM    2  C8  UNL     1      34.320   3.018  46.999  1.00  0.00     0.032 C 
HETATM    3  C9  UNL     1      34.924   4.004  46.000  1.00  0.00     0.126 C 
HETATM    4  N3  UNL     1      33.783   4.446  45.228  1.00  0.00    -0.358 N 
HETATM    5  C18 UNL     1      32.540   3.998  45.875  1.00  0.00     0.136 C 
ENDROOT
BRANCH   1   6
HETATM    6  C6  UNL     1      33.282   5.117  47.862  1.00  0.00     0.054 A 
HETATM    7  N2  UNL     1      34.527   5.556  48.130  1.00  0.00    -0.245 NA
HETATM    8  C5  UNL     1      34.750   6.773  48.636  1.00  0.00     0.234 A 
HETATM    9  N1  UNL     1      33.739   7.619  48.903  1.00  0.00    -0.241 NA
HETATM   10  C4  UNL     1      32.442   7.268  48.668  1.00  0.00     0.073 A 
HETATM   11  C3  UNL     1      31.386   8.117  48.933  1.00  0.00     0.072 A 
HETATM   12  C19 UNL     1      32.253   6.005  48.144  1.00  0.00     0.021 A 
HETATM   13  C2  UNL     1      30.086   7.725  48.681  1.00  0.00     0.103 A 
HETATM   14  C21 UNL     1      29.848   6.466  48.155  1.00  0.00     0.102 A 
HETATM   15  C20 UNL     1      30.942   5.659  47.911  1.00  0.00     0.055 A 
BRANCH  13  16
HETATM   16  O1  UNL     1      28.994   8.549  48.933  1.00  0.00    -0.353 OA
HETATM   17  C1  UNL     1      28.860   9.736  48.137  1.00  0.00     0.210 C 
ENDBRANCH  13  16
BRANCH  14  18
HETATM   18  O2  UNL     1      28.560   6.078  47.906  1.00  0.00    -0.353 OA
HETATM   19  C22 UNL     1      28.000   5.002  48.597  1.00  0.00     0.210 C 
ENDBRANCH  14  18
ENDBRANCH   1   6
BRANCH   4  20
HETATM   20  C10 UNL     1      33.790   5.212  44.005  1.00  0.00     0.170 C 
HETATM   21  S1  UNL     1      33.848   6.845  44.210  1.00  0.00    -0.041 SA
BRANCH  20  22
HETATM   22  N4  UNL     1      33.754   4.572  42.743  1.00  0.00    -0.363 N 
HETATM   23  H11 UNL     1      34.471   3.812  42.633  1.00  0.00     0.162 HD
BRANCH  22  24
HETATM   24  C11 UNL     1      32.951   4.737  41.582  1.00  0.00     0.160 C 
BRANCH  24  25
HETATM   25  C12 UNL     1      33.132   3.566  40.682  1.00  0.00    -0.041 A 
HETATM   26  C13 UNL     1      31.963   3.219  40.024  1.00  0.00     0.009 A 
HETATM   27  C14 UNL     1      31.864   2.166  39.144  1.00  0.00     0.001 A 
HETATM   28  C15 UNL     1      32.989   1.400  38.893  1.00  0.00     0.000 A 
HETATM   29  C16 UNL     1      34.142   1.742  39.541  1.00  0.00     0.001 A 
HETATM   30  C17 UNL     1      34.234   2.795  40.420  1.00  0.00     0.009 A 
ENDBRANCH  24  25
ENDBRANCH  22  24
ENDBRANCH  20  22
ENDBRANCH   4  20
TORSDOF 7
ENDMDL
