MODEL 1
REMARK VINA RESULT:      -7.9      0.000      0.000
REMARK  4 active torsions:
REMARK  status: ('A' for Active; 'I' for Inactive)
REMARK    1  A    between atoms: C6_8  and  N3_9 
REMARK    2  A    between atoms: N3_9  and  C7_10 
REMARK    3  A    between atoms: C14_18  and  N4_19 
REMARK    4  A    between atoms: N4_19  and  C15_20 
ROOT
HETATM    1  N1  UNL     1      19.843   0.134  52.994  1.00  0.00    -0.191 NA
HETATM    2  C1  UNL     1      20.929  -0.076  53.349  1.00  0.00     0.103 C 
HETATM    3  C2  UNL     1      22.287  -0.322  53.807  1.00  0.00     0.089 A 
HETATM    4  C3  UNL     1      22.544  -1.080  54.932  1.00  0.00     0.144 A 
HETATM    5  N2  UNL     1      23.829  -1.272  55.305  1.00  0.00    -0.239 NA
HETATM    6  C4  UNL     1      24.816  -0.719  54.570  1.00  0.00     0.159 A 
HETATM    7  C5  UNL     1      24.612   0.051  53.432  1.00  0.00     0.040 A 
HETATM    8  C6  UNL     1      23.287   0.252  53.042  1.00  0.00     0.069 A 
HETATM    9  C13 UNL     1      25.816   0.413  52.992  1.00  0.00     0.039 A 
HETATM   10  C14 UNL     1      26.872  -0.139  53.875  1.00  0.00     0.234 A 
HETATM   11  N5  UNL     1      26.059  -0.859  54.866  1.00  0.00    -0.240 NA
ENDROOT
BRANCH   8  12
HETATM   12  N3  UNL     1      23.104   1.035  51.887  1.00  0.00    -0.354 N 
HETATM   13  H2  UNL     1      22.855   0.332  51.146  1.00  0.00     0.166 HD
BRANCH  12  14
HETATM   14  C7  UNL     1      23.204   2.417  51.665  1.00  0.00     0.033 A 
HETATM   15  C8  UNL     1      22.294   3.249  52.307  1.00  0.00     0.029 A 
HETATM   16  C9  UNL     1      22.440   4.605  52.051  1.00  0.00     0.004 A 
HETATM   17  C10 UNL     1      23.421   5.073  51.219  1.00  0.00     0.019 A 
HETATM   18  C11 UNL     1      24.322   4.217  50.586  1.00  0.00     0.013 A 
HETATM   19 BR1  UNL     1      25.671   4.910  49.435  1.00  0.00    -0.051 Br
HETATM   20  C12 UNL     1      24.207   2.849  50.818  1.00  0.00     0.048 A 
ENDBRANCH  12  14
ENDBRANCH   8  12
BRANCH  10  21
HETATM   21  N4  UNL     1      27.627   0.881  54.567  1.00  0.00    -0.342 N 
HETATM   22  H9  UNL     1      26.917   1.470  55.085  1.00  0.00     0.164 HD
BRANCH  21  23
HETATM   23  C15 UNL     1      29.043   1.034  54.534  1.00  0.00     0.350 C 
HETATM   24  O1  UNL     1      29.328   2.192  54.916  1.00  0.00    -0.284 OA
ENDBRANCH  21  23
ENDBRANCH  10  21
TORSDOF 4
ENDMDL
MODEL 2
REMARK VINA RESULT:      -7.8      1.703      1.839
REMARK  4 active torsions:
REMARK  status: ('A' for Active; 'I' for Inactive)
REMARK    1  A    between atoms: C6_8  and  N3_9 
REMARK    2  A    between atoms: N3_9  and  C7_10 
REMARK    3  A    between atoms: C14_18  and  N4_19 
REMARK    4  A    between atoms: N4_19  and  C15_20 
ROOT
HETATM    1  N1  UNL     1      20.528  -0.033  54.201  1.00  0.00    -0.191 NA
HETATM    2  C1  UNL     1      21.679  -0.195  54.195  1.00  0.00     0.103 C 
HETATM    3  C2  UNL     1      23.120  -0.380  54.201  1.00  0.00     0.089 A 
HETATM    4  C3  UNL     1      23.750  -1.119  55.183  1.00  0.00     0.144 A 
HETATM    5  N2  UNL     1      25.094  -1.254  55.132  1.00  0.00    -0.239 NA
HETATM    6  C4  UNL     1      25.775  -0.665  54.127  1.00  0.00     0.159 A 
HETATM    7  C5  UNL     1      25.192   0.087  53.117  1.00  0.00     0.040 A 
HETATM    8  C6  UNL     1      23.804   0.230  53.164  1.00  0.00     0.069 A 
HETATM    9  C13 UNL     1      26.180   0.496  52.323  1.00  0.00     0.039 A 
HETATM   10  C14 UNL     1      27.482  -0.005  52.825  1.00  0.00     0.234 A 
HETATM   11  N5  UNL     1      27.053  -0.751  54.016  1.00  0.00    -0.240 NA
ENDROOT
BRANCH   8  12
HETATM   12  N3  UNL     1      23.235   0.996  52.130  1.00  0.00    -0.354 N 
HETATM   13  H2  UNL     1      23.134   0.312  51.339  1.00  0.00     0.166 HD
BRANCH  12  14
HETATM   14  C7  UNL     1      22.855   2.346  52.063  1.00  0.00     0.033 A 
HETATM   15  C8  UNL     1      23.681   3.287  52.666  1.00  0.00     0.029 A 
HETATM   16  C9  UNL     1      23.257   4.605  52.568  1.00  0.00     0.004 A 
HETATM   17  C10 UNL     1      22.100   4.936  51.916  1.00  0.00     0.019 A 
HETATM   18  C11 UNL     1      21.288   3.972  51.318  1.00  0.00     0.013 A 
HETATM   19 BR1  UNL     1      19.687   4.476  50.421  1.00  0.00    -0.051 Br
HETATM   20  C12 UNL     1      21.681   2.639  51.396  1.00  0.00     0.048 A 
ENDBRANCH  12  14
ENDBRANCH   8  12
BRANCH  10  21
HETATM   21  N4  UNL     1      28.374   1.051  53.251  1.00  0.00    -0.342 N 
HETATM   22  H9  UNL     1      28.351   1.779  52.484  1.00  0.00     0.164 HD
BRANCH  21  23
HETATM   23  C15 UNL     1      29.118   1.072  54.465  1.00  0.00     0.350 C 
HETATM   24  O1  UNL     1      29.320   2.266  54.788  1.00  0.00    -0.284 OA
ENDBRANCH  21  23
ENDBRANCH  10  21
TORSDOF 4
ENDMDL
MODEL 3
REMARK VINA RESULT:      -7.5      1.589      2.034
REMARK  4 active torsions:
REMARK  status: ('A' for Active; 'I' for Inactive)
REMARK    1  A    between atoms: C6_8  and  N3_9 
REMARK    2  A    between atoms: N3_9  and  C7_10 
REMARK    3  A    between atoms: C14_18  and  N4_19 
REMARK    4  A    between atoms: N4_19  and  C15_20 
ROOT
HETATM    1  N1  UNL     1      20.056   2.751  52.579  1.00  0.00    -0.191 NA
HETATM    2  C1  UNL     1      20.971   2.053  52.736  1.00  0.00     0.103 C 
HETATM    3  C2  UNL     1      22.115   1.183  52.955  1.00  0.00     0.089 A 
HETATM    4  C3  UNL     1      21.961  -0.171  53.180  1.00  0.00     0.144 A 
HETATM    5  N2  UNL     1      23.065  -0.926  53.376  1.00  0.00    -0.239 NA
HETATM    6  C4  UNL     1      24.278  -0.335  53.347  1.00  0.00     0.159 A 
HETATM    7  C5  UNL     1      24.487   1.019  53.125  1.00  0.00     0.040 A 
HETATM    8  C6  UNL     1      23.351   1.804  52.922  1.00  0.00     0.069 A 
HETATM    9  C13 UNL     1      25.804   1.216  53.170  1.00  0.00     0.039 A 
HETATM   10  C14 UNL     1      26.505  -0.064  53.434  1.00  0.00     0.234 A 
HETATM   11  N5  UNL     1      25.369  -0.991  53.525  1.00  0.00    -0.240 NA
ENDROOT
BRANCH   8  12
HETATM   12  N3  UNL     1      23.588   3.173  52.699  1.00  0.00    -0.354 N 
HETATM   13  H2  UNL     1      23.557   3.592  53.664  1.00  0.00     0.166 HD
BRANCH  12  14
HETATM   14  C7  UNL     1      23.819   3.906  51.525  1.00  0.00     0.033 A 
HETATM   15  C8  UNL     1      24.122   3.203  50.365  1.00  0.00     0.029 A 
HETATM   16  C9  UNL     1      24.341   3.978  49.236  1.00  0.00     0.004 A 
HETATM   17  C10 UNL     1      24.259   5.344  49.281  1.00  0.00     0.019 A 
HETATM   18  C11 UNL     1      23.954   6.027  50.458  1.00  0.00     0.013 A 
HETATM   19 BR1  UNL     1      23.852   7.928  50.477  1.00  0.00    -0.051 Br
HETATM   20  C12 UNL     1      23.728   5.282  51.612  1.00  0.00     0.048 A 
ENDBRANCH  12  14
ENDBRANCH   8  12
BRANCH  10  21
HETATM   21  N4  UNL     1      27.205  -0.081  54.698  1.00  0.00    -0.342 N 
HETATM   22  H9  UNL     1      26.470  -0.264  55.437  1.00  0.00     0.164 HD
BRANCH  21  23
HETATM   23  C15 UNL     1      28.605   0.115  54.877  1.00  0.00     0.350 C 
HETATM   24  O1  UNL     1      28.827   1.345  54.967  1.00  0.00    -0.284 OA
ENDBRANCH  21  23
ENDBRANCH  10  21
TORSDOF 4
ENDMDL
MODEL 4
REMARK VINA RESULT:      -7.2      3.384      5.652
REMARK  4 active torsions:
REMARK  status: ('A' for Active; 'I' for Inactive)
REMARK    1  A    between atoms: C6_8  and  N3_9 
REMARK    2  A    between atoms: N3_9  and  C7_10 
REMARK    3  A    between atoms: C14_18  and  N4_19 
REMARK    4  A    between atoms: N4_19  and  C15_20 
ROOT
HETATM    1  N1  UNL     1      22.949  -1.765  55.686  1.00  0.00    -0.191 NA
HETATM    2  C1  UNL     1      22.547  -0.995  54.914  1.00  0.00     0.103 C 
HETATM    3  C2  UNL     1      22.036  -0.049  53.937  1.00  0.00     0.089 A 
HETATM    4  C3  UNL     1      20.764   0.479  54.038  1.00  0.00     0.144 A 
HETATM    5  N2  UNL     1      20.348   1.355  53.097  1.00  0.00    -0.239 NA
HETATM    6  C4  UNL     1      21.185   1.686  52.092  1.00  0.00     0.159 A 
HETATM    7  C5  UNL     1      22.471   1.185  51.944  1.00  0.00     0.040 A 
HETATM    8  C6  UNL     1      22.907   0.280  52.913  1.00  0.00     0.069 A 
HETATM    9  C13 UNL     1      22.975   1.742  50.844  1.00  0.00     0.039 A 
HETATM   10  C14 UNL     1      21.981   2.654  50.229  1.00  0.00     0.234 A 
HETATM   11  N5  UNL     1      20.856   2.512  51.163  1.00  0.00    -0.240 NA
ENDROOT
BRANCH   8  12
HETATM   12  N3  UNL     1      24.213  -0.214  52.743  1.00  0.00    -0.354 N 
HETATM   13  H2  UNL     1      24.071  -1.133  52.252  1.00  0.00     0.166 HD
BRANCH  12  14
HETATM   14  C7  UNL     1      25.467   0.307  53.099  1.00  0.00     0.033 A 
HETATM   15  C8  UNL     1      25.541   1.652  53.441  1.00  0.00     0.029 A 
HETATM   16  C9  UNL     1      26.805   2.112  53.785  1.00  0.00     0.004 A 
HETATM   17  C10 UNL     1      27.892   1.281  53.783  1.00  0.00     0.019 A 
HETATM   18  C11 UNL     1      27.790  -0.067  53.435  1.00  0.00     0.013 A 
HETATM   19 BR1  UNL     1      29.330  -1.188  53.445  1.00  0.00    -0.051 Br
HETATM   20  C12 UNL     1      26.539  -0.564  53.084  1.00  0.00     0.048 A 
ENDBRANCH  12  14
ENDBRANCH   8  12
BRANCH  10  21
HETATM   21  N4  UNL     1      21.541   2.221  48.922  1.00  0.00    -0.342 N 
HETATM   22  H9  UNL     1      20.485   2.161  48.974  1.00  0.00     0.164 HD
BRANCH  21  23
HETATM   23  C15 UNL     1      22.385   1.939  47.810  1.00  0.00     0.350 C 
HETATM   24  O1  UNL     1      22.254   2.857  46.967  1.00  0.00    -0.284 OA
ENDBRANCH  21  23
ENDBRANCH  10  21
TORSDOF 4
ENDMDL
MODEL 5
REMARK VINA RESULT:      -7.2      3.180      4.679
REMARK  4 active torsions:
REMARK  status: ('A' for Active; 'I' for Inactive)
REMARK    1  A    between atoms: C6_8  and  N3_9 
REMARK    2  A    between atoms: N3_9  and  C7_10 
REMARK    3  A    between atoms: C14_18  and  N4_19 
REMARK    4  A    between atoms: N4_19  and  C15_20 
ROOT
HETATM    1  N1  UNL     1      22.491   4.870  48.289  1.00  0.00    -0.191 NA
HETATM    2  C1  UNL     1      22.979   4.328  49.193  1.00  0.00     0.103 C 
HETATM    3  C2  UNL     1      23.593   3.670  50.334  1.00  0.00     0.089 A 
HETATM    4  C3  UNL     1      22.854   3.304  51.442  1.00  0.00     0.144 A 
HETATM    5  N2  UNL     1      23.484   2.694  52.471  1.00  0.00    -0.239 NA
HETATM    6  C4  UNL     1      24.810   2.462  52.383  1.00  0.00     0.159 A 
HETATM    7  C5  UNL     1      25.598   2.808  51.294  1.00  0.00     0.040 A 
HETATM    8  C6  UNL     1      24.953   3.439  50.229  1.00  0.00     0.069 A 
HETATM    9  C13 UNL     1      26.840   2.419  51.580  1.00  0.00     0.039 A 
HETATM   10  C14 UNL     1      26.883   1.785  52.920  1.00  0.00     0.234 A 
HETATM   11  N5  UNL     1      25.473   1.887  53.322  1.00  0.00    -0.240 NA
ENDROOT
BRANCH   8  12
HETATM   12  N3  UNL     1      25.771   3.780  49.137  1.00  0.00    -0.354 N 
HETATM   13  H2  UNL     1      25.671   2.962  48.484  1.00  0.00     0.166 HD
BRANCH  12  14
HETATM   14  C7  UNL     1      26.569   4.906  48.878  1.00  0.00     0.033 A 
HETATM   15  C8  UNL     1      25.965   6.158  48.926  1.00  0.00     0.029 A 
HETATM   16  C9  UNL     1      26.801   7.234  48.662  1.00  0.00     0.004 A 
HETATM   17  C10 UNL     1      28.127   7.055  48.376  1.00  0.00     0.019 A 
HETATM   18  C11 UNL     1      28.708   5.788  48.333  1.00  0.00     0.013 A 
HETATM   19 BR1  UNL     1      30.558   5.584  47.930  1.00  0.00    -0.051 Br
HETATM   20  C12 UNL     1      27.902   4.684  48.592  1.00  0.00     0.048 A 
ENDBRANCH  12  14
ENDBRANCH   8  12
BRANCH  10  21
HETATM   21  N4  UNL     1      27.679   2.523  53.874  1.00  0.00    -0.342 N 
HETATM   22  H9  UNL     1      27.020   3.208  54.338  1.00  0.00     0.164 HD
BRANCH  21  23
HETATM   23  C15 UNL     1      29.072   2.339  54.115  1.00  0.00     0.350 C 
HETATM   24  O1  UNL     1      29.209   1.656  55.156  1.00  0.00    -0.284 OA
ENDBRANCH  21  23
ENDBRANCH  10  21
TORSDOF 4
ENDMDL
MODEL 6
REMARK VINA RESULT:      -7.2      2.947      4.962
REMARK  4 active torsions:
REMARK  status: ('A' for Active; 'I' for Inactive)
REMARK    1  A    between atoms: C6_8  and  N3_9 
REMARK    2  A    between atoms: N3_9  and  C7_10 
REMARK    3  A    between atoms: C14_18  and  N4_19 
REMARK    4  A    between atoms: N4_19  and  C15_20 
ROOT
HETATM    1  N1  UNL     1      27.159   0.684  52.210  1.00  0.00    -0.191 NA
HETATM    2  C1  UNL     1      26.186   0.372  52.762  1.00  0.00     0.103 C 
HETATM    3  C2  UNL     1      24.968  -0.038  53.441  1.00  0.00     0.089 A 
HETATM    4  C3  UNL     1      25.000  -0.841  54.564  1.00  0.00     0.144 A 
HETATM    5  N2  UNL     1      23.832  -1.186  55.149  1.00  0.00    -0.239 NA
HETATM    6  C4  UNL     1      22.675  -0.737  54.620  1.00  0.00     0.159 A 
HETATM    7  C5  UNL     1      22.586   0.071  53.495  1.00  0.00     0.040 A 
HETATM    8  C6  UNL     1      23.789   0.431  52.886  1.00  0.00     0.069 A 
HETATM    9  C13 UNL     1      21.290   0.299  53.287  1.00  0.00     0.039 A 
HETATM   10  C14 UNL     1      20.477  -0.387  54.319  1.00  0.00     0.234 A 
HETATM   11  N5  UNL     1      21.528  -1.025  55.124  1.00  0.00    -0.240 NA
ENDROOT
BRANCH   8  12
HETATM   12  N3  UNL     1      23.676   1.250  51.747  1.00  0.00    -0.354 N 
HETATM   13  H2  UNL     1      23.461   0.572  50.973  1.00  0.00     0.166 HD
BRANCH  12  14
HETATM   14  C7  UNL     1      23.799   2.637  51.573  1.00  0.00     0.033 A 
HETATM   15  C8  UNL     1      22.998   3.466  52.350  1.00  0.00     0.029 A 
HETATM   16  C9  UNL     1      23.162   4.827  52.136  1.00  0.00     0.004 A 
HETATM   17  C10 UNL     1      24.059   5.302  51.217  1.00  0.00     0.019 A 
HETATM   18  C11 UNL     1      24.852   4.449  50.450  1.00  0.00     0.013 A 
HETATM   19 BR1  UNL     1      26.087   5.152  49.183  1.00  0.00    -0.051 Br
HETATM   20  C12 UNL     1      24.715   3.076  50.637  1.00  0.00     0.048 A 
ENDBRANCH  12  14
ENDBRANCH   8  12
BRANCH  10  21
HETATM   21  N4  UNL     1      19.628  -1.426  53.779  1.00  0.00    -0.342 N 
HETATM   22  H9  UNL     1      20.210  -2.309  53.781  1.00  0.00     0.164 HD
BRANCH  21  23
HETATM   23  C15 UNL     1      18.284  -1.257  53.340  1.00  0.00     0.350 C 
HETATM   24  O1  UNL     1      17.681  -2.348  53.472  1.00  0.00    -0.284 OA
ENDBRANCH  21  23
ENDBRANCH  10  21
TORSDOF 4
ENDMDL
MODEL 7
REMARK VINA RESULT:      -7.2      3.575      5.369
REMARK  4 active torsions:
REMARK  status: ('A' for Active; 'I' for Inactive)
REMARK    1  A    between atoms: C6_8  and  N3_9 
REMARK    2  A    between atoms: N3_9  and  C7_10 
REMARK    3  A    between atoms: C14_18  and  N4_19 
REMARK    4  A    between atoms: N4_19  and  C15_20 
ROOT
HETATM    1  N1  UNL     1      22.284  -1.857  55.395  1.00  0.00    -0.191 NA
HETATM    2  C1  UNL     1      22.868  -1.173  54.660  1.00  0.00     0.103 C 
HETATM    3  C2  UNL     1      23.607  -0.304  53.758  1.00  0.00     0.089 A 
HETATM    4  C3  UNL     1      24.946  -0.508  53.493  1.00  0.00     0.144 A 
HETATM    5  N2  UNL     1      25.575   0.335  52.644  1.00  0.00    -0.239 NA
HETATM    6  C4  UNL     1      24.878   1.345  52.085  1.00  0.00     0.159 A 
HETATM    7  C5  UNL     1      23.532   1.594  52.317  1.00  0.00     0.040 A 
HETATM    8  C6  UNL     1      22.876   0.727  53.193  1.00  0.00     0.069 A 
HETATM    9  C13 UNL     1      23.209   2.665  51.594  1.00  0.00     0.039 A 
HETATM   10  C14 UNL     1      24.392   3.154  50.845  1.00  0.00     0.234 A 
HETATM   11  N5  UNL     1      25.411   2.184  51.270  1.00  0.00    -0.240 NA
ENDROOT
BRANCH   8  12
HETATM   12  N3  UNL     1      21.514   0.998  53.413  1.00  0.00    -0.354 N 
HETATM   13  H2  UNL     1      21.521   1.685  54.210  1.00  0.00     0.166 HD
BRANCH  12  14
HETATM   14  C7  UNL     1      20.350   0.526  52.787  1.00  0.00     0.033 A 
HETATM   15  C8  UNL     1      19.941   1.151  51.615  1.00  0.00     0.029 A 
HETATM   16  C9  UNL     1      18.784   0.643  51.039  1.00  0.00     0.004 A 
HETATM   17  C10 UNL     1      18.107  -0.404  51.603  1.00  0.00     0.019 A 
HETATM   18  C11 UNL     1      18.539  -1.014  52.781  1.00  0.00     0.013 A 
HETATM   19 BR1  UNL     1      17.565  -2.468  53.532  1.00  0.00    -0.051 Br
HETATM   20  C12 UNL     1      19.695  -0.532  53.388  1.00  0.00     0.048 A 
ENDBRANCH  12  14
ENDBRANCH   8  12
BRANCH  10  21
HETATM   21  N4  UNL     1      24.822   4.471  51.255  1.00  0.00    -0.342 N 
HETATM   22  H9  UNL     1      25.336   4.339  52.170  1.00  0.00     0.164 HD
BRANCH  21  23
HETATM   23  C15 UNL     1      24.584   5.683  50.545  1.00  0.00     0.350 C 
HETATM   24  O1  UNL     1      23.606   6.266  51.069  1.00  0.00    -0.284 OA
ENDBRANCH  21  23
ENDBRANCH  10  21
TORSDOF 4
ENDMDL
MODEL 8
REMARK VINA RESULT:      -7.0      3.240      5.014
REMARK  4 active torsions:
REMARK  status: ('A' for Active; 'I' for Inactive)
REMARK    1  A    between atoms: C6_8  and  N3_9 
REMARK    2  A    between atoms: N3_9  and  C7_10 
REMARK    3  A    between atoms: C14_18  and  N4_19 
REMARK    4  A    between atoms: N4_19  and  C15_20 
ROOT
HETATM    1  N1  UNL     1      27.034   4.038  49.320  1.00  0.00    -0.191 NA
HETATM    2  C1  UNL     1      26.605   3.297  50.105  1.00  0.00     0.103 C 
HETATM    3  C2  UNL     1      26.067   2.355  51.071  1.00  0.00     0.089 A 
HETATM    4  C3  UNL     1      26.870   1.422  51.697  1.00  0.00     0.144 A 
HETATM    5  N2  UNL     1      26.308   0.574  52.587  1.00  0.00    -0.239 NA
HETATM    6  C4  UNL     1      24.985   0.665  52.835  1.00  0.00     0.159 A 
HETATM    7  C5  UNL     1      24.134   1.582  52.234  1.00  0.00     0.040 A 
HETATM    8  C6  UNL     1      24.708   2.461  51.314  1.00  0.00     0.069 A 
HETATM    9  C13 UNL     1      22.918   1.361  52.731  1.00  0.00     0.039 A 
HETATM   10  C14 UNL     1      22.958   0.245  53.707  1.00  0.00     0.234 A 
HETATM   11  N5  UNL     1      24.384  -0.109  53.668  1.00  0.00    -0.240 NA
ENDROOT
BRANCH   8  12
HETATM   12  N3  UNL     1      23.827   3.381  50.718  1.00  0.00    -0.354 N 
HETATM   13  H2  UNL     1      23.718   4.131  51.447  1.00  0.00     0.166 HD
BRANCH  12  14
HETATM   14  C7  UNL     1      23.190   3.395  49.467  1.00  0.00     0.033 A 
HETATM   15  C8  UNL     1      22.649   2.204  48.997  1.00  0.00     0.029 A 
HETATM   16  C9  UNL     1      22.032   2.277  47.757  1.00  0.00     0.004 A 
HETATM   17  C10 UNL     1      21.970   3.453  47.058  1.00  0.00     0.019 A 
HETATM   18  C11 UNL     1      22.522   4.635  47.552  1.00  0.00     0.013 A 
HETATM   19 BR1  UNL     1      22.415   6.248  46.546  1.00  0.00    -0.051 Br
HETATM   20  C12 UNL     1      23.150   4.601  48.793  1.00  0.00     0.048 A 
ENDBRANCH  12  14
ENDBRANCH   8  12
BRANCH  10  21
HETATM   21  N4  UNL     1      22.195  -0.909  53.287  1.00  0.00    -0.342 N 
HETATM   22  H9  UNL     1      22.474  -1.094  52.283  1.00  0.00     0.164 HD
BRANCH  21  23
HETATM   23  C15 UNL     1      21.263  -1.627  54.090  1.00  0.00     0.350 C 
HETATM   24  O1  UNL     1      21.829  -1.960  55.157  1.00  0.00    -0.284 OA
ENDBRANCH  21  23
ENDBRANCH  10  21
TORSDOF 4
ENDMDL
MODEL 9
REMARK VINA RESULT:      -6.9      2.710      5.178
REMARK  4 active torsions:
REMARK  status: ('A' for Active; 'I' for Inactive)
REMARK    1  A    between atoms: C6_8  and  N3_9 
REMARK    2  A    between atoms: N3_9  and  C7_10 
REMARK    3  A    between atoms: C14_18  and  N4_19 
REMARK    4  A    between atoms: N4_19  and  C15_20 
ROOT
HETATM    1  N1  UNL     1      21.746  -1.801  54.348  1.00  0.00    -0.191 NA
HETATM    2  C1  UNL     1      21.900  -0.932  53.591  1.00  0.00     0.103 C 
HETATM    3  C2  UNL     1      22.101   0.139  52.630  1.00  0.00     0.089 A 
HETATM    4  C3  UNL     1      21.157   0.433  51.666  1.00  0.00     0.144 A 
HETATM    5  N2  UNL     1      21.404   1.443  50.802  1.00  0.00    -0.239 NA
HETATM    6  C4  UNL     1      22.561   2.129  50.908  1.00  0.00     0.159 A 
HETATM    7  C5  UNL     1      23.542   1.875  51.857  1.00  0.00     0.040 A 
HETATM    8  C6  UNL     1      23.293   0.833  52.752  1.00  0.00     0.069 A 
HETATM    9  C13 UNL     1      24.521   2.752  51.642  1.00  0.00     0.039 A 
HETATM   10  C14 UNL     1      24.180   3.631  50.497  1.00  0.00     0.234 A 
HETATM   11  N5  UNL     1      22.862   3.100  50.121  1.00  0.00    -0.240 NA
ENDROOT
BRANCH   8  12
HETATM   12  N3  UNL     1      24.300   0.594  53.705  1.00  0.00    -0.354 N 
HETATM   13  H2  UNL     1      23.827   0.790  54.623  1.00  0.00     0.166 HD
BRANCH  12  14
HETATM   14  C7  UNL     1      25.638   0.189  53.574  1.00  0.00     0.033 A 
HETATM   15  C8  UNL     1      25.890  -1.066  53.032  1.00  0.00     0.029 A 
HETATM   16  C9  UNL     1      27.230  -1.412  52.926  1.00  0.00     0.004 A 
HETATM   17  C10 UNL     1      28.222  -0.561  53.333  1.00  0.00     0.019 A 
HETATM   18  C11 UNL     1      27.942   0.694  53.874  1.00  0.00     0.013 A 
HETATM   19 BR1  UNL     1      29.353   1.846  54.428  1.00  0.00    -0.051 Br
HETATM   20  C12 UNL     1      26.609   1.076  53.996  1.00  0.00     0.048 A 
ENDBRANCH  12  14
ENDBRANCH   8  12
BRANCH  10  21
HETATM   21  N4  UNL     1      25.070   3.472  49.370  1.00  0.00    -0.342 N 
HETATM   22  H9  UNL     1      24.470   3.122  48.571  1.00  0.00     0.164 HD
BRANCH  21  23
HETATM   23  C15 UNL     1      26.469   3.740  49.370  1.00  0.00     0.350 C 
HETATM   24  O1  UNL     1      26.649   4.918  48.982  1.00  0.00    -0.284 OA
ENDBRANCH  21  23
ENDBRANCH  10  21
TORSDOF 4
ENDMDL
