MODEL 1
REMARK VINA RESULT:      -8.0      0.000      0.000
REMARK  2 active torsions:
REMARK  status: ('A' for Active; 'I' for Inactive)
REMARK    1  A    between atoms: N1_2  and  N2_3 
REMARK    2  A    between atoms: C14_18  and  N4_19 
ROOT
HETATM    1  N2  UNL     1      24.670   5.138  49.918  1.00  0.00    -0.280 N 
HETATM    2  C2  UNL     1      23.422   5.575  49.947  1.00  0.00     0.116 A 
HETATM    3  C3  UNL     1      22.610   4.472  50.012  1.00  0.00     0.030 A 
HETATM    4  C4  UNL     1      23.441   3.368  50.020  1.00  0.00    -0.003 A 
HETATM    5  C5  UNL     1      24.747   3.760  49.960  1.00  0.00     0.058 A 
HETATM    6  C6  UNL     1      26.053   3.121  49.926  1.00  0.00     0.179 C 
HETATM    7  N3  UNL     1      26.835   3.158  51.173  1.00  0.00    -0.384 N 
HETATM    8  C7  UNL     1      26.028   2.330  52.055  1.00  0.00     0.031 A 
HETATM    9  C8  UNL     1      25.030   2.683  52.946  1.00  0.00     0.030 A 
HETATM   10  C9  UNL     1      24.509   1.548  53.520  1.00  0.00     0.012 A 
HETATM   11  C10 UNL     1      24.768   0.211  53.390  1.00  0.00    -0.018 A 
HETATM   12  C11 UNL     1      25.763  -0.101  52.503  1.00  0.00     0.124 A 
HETATM   13  F1  UNL     1      26.053  -1.406  52.352  1.00  0.00    -0.205 F 
HETATM   14  C12 UNL     1      26.377   0.969  51.849  1.00  0.00     0.072 A 
HETATM   15  C13 UNL     1      23.801  -0.598  54.194  1.00  0.00     0.066 C 
HETATM   16  C14 UNL     1      22.646  -0.961  53.203  1.00  0.00     0.080 C 
HETATM   17  C15 UNL     1      22.370   0.131  52.328  1.00  0.00     0.055 C 
HETATM   18  C16 UNL     1      21.453   0.344  51.220  1.00  0.00     0.272 C 
HETATM   19  N5  UNL     1      21.771   1.708  50.744  1.00  0.00     0.087 N 
HETATM   20  C17 UNL     1      23.014   1.930  50.103  1.00  0.00     0.310 C 
HETATM   21  H7  UNL     1      27.737   3.680  51.294  1.00  0.00     0.160 HD
HETATM   22  H20 UNL     1      20.948   2.114  50.251  1.00  0.00     0.316 HD
ENDROOT
BRANCH  16  23
HETATM   23  N4  UNL     1      21.594  -1.498  53.957  1.00  0.00    -0.426 N 
HETATM   24  H14 UNL     1      21.229  -2.405  53.649  1.00  0.00     0.150 HD
HETATM   25  H15 UNL     1      21.686  -1.451  54.983  1.00  0.00     0.150 HD
ENDBRANCH  16  23
BRANCH   1  26
HETATM   26  N1  UNL     1      25.652   6.166  49.852  1.00  0.00    -0.338 NA
HETATM   27  C1  UNL     1      25.437   7.313  50.428  1.00  0.00     0.358 C 
ENDBRANCH   1  26
TORSDOF 2
ENDMDL
MODEL 2
REMARK VINA RESULT:      -8.0      1.846      2.731
REMARK  2 active torsions:
REMARK  status: ('A' for Active; 'I' for Inactive)
REMARK    1  A    between atoms: N1_2  and  N2_3 
REMARK    2  A    between atoms: C14_18  and  N4_19 
ROOT
HETATM    1  N2  UNL     1      21.438   4.080  50.853  1.00  0.00    -0.280 N 
HETATM    2  C2  UNL     1      20.407   3.953  51.672  1.00  0.00     0.116 A 
HETATM    3  C3  UNL     1      20.485   2.701  52.228  1.00  0.00     0.030 A 
HETATM    4  C4  UNL     1      21.610   2.102  51.696  1.00  0.00    -0.003 A 
HETATM    5  C5  UNL     1      22.231   2.950  50.824  1.00  0.00     0.058 A 
HETATM    6  C6  UNL     1      23.401   2.926  49.963  1.00  0.00     0.179 C 
HETATM    7  N3  UNL     1      24.575   3.683  50.429  1.00  0.00    -0.384 N 
HETATM    8  C7  UNL     1      24.959   2.935  51.616  1.00  0.00     0.031 A 
HETATM    9  C8  UNL     1      24.606   3.119  52.942  1.00  0.00     0.030 A 
HETATM   10  C9  UNL     1      25.170   2.125  53.705  1.00  0.00     0.012 A 
HETATM   11  C10 UNL     1      25.966   1.047  53.428  1.00  0.00    -0.018 A 
HETATM   12  C11 UNL     1      26.298   0.898  52.108  1.00  0.00     0.124 A 
HETATM   13  F1  UNL     1      27.088  -0.145  51.796  1.00  0.00    -0.205 F 
HETATM   14  C12 UNL     1      25.786   1.849  51.223  1.00  0.00     0.072 A 
HETATM   15  C13 UNL     1      26.193   0.225  54.656  1.00  0.00     0.066 C 
HETATM   16  C14 UNL     1      25.085  -0.879  54.621  1.00  0.00     0.080 C 
HETATM   17  C15 UNL     1      23.856  -0.344  54.130  1.00  0.00     0.055 C 
HETATM   18  C16 UNL     1      22.539  -0.899  53.859  1.00  0.00     0.272 C 
HETATM   19  N5  UNL     1      21.776   0.240  53.301  1.00  0.00     0.087 N 
HETATM   20  C17 UNL     1      22.126   0.728  52.019  1.00  0.00     0.310 C 
HETATM   21  H7  UNL     1      24.961   4.536  49.955  1.00  0.00     0.160 HD
HETATM   22  H20 UNL     1      20.756   0.090  53.447  1.00  0.00     0.316 HD
ENDROOT
BRANCH  16  23
HETATM   23  N4  UNL     1      25.086  -1.520  55.866  1.00  0.00    -0.426 N 
HETATM   24  H14 UNL     1      25.974  -1.935  56.166  1.00  0.00     0.150 HD
HETATM   25  H15 UNL     1      24.612  -1.033  56.642  1.00  0.00     0.150 HD
ENDBRANCH  16  23
BRANCH   1  26
HETATM   26  N1  UNL     1      21.509   5.336  50.187  1.00  0.00    -0.338 NA
HETATM   27  C1  UNL     1      21.825   6.410  50.851  1.00  0.00     0.358 C 
ENDBRANCH   1  26
TORSDOF 2
ENDMDL
MODEL 3
REMARK VINA RESULT:      -7.7      2.734      4.853
REMARK  2 active torsions:
REMARK  status: ('A' for Active; 'I' for Inactive)
REMARK    1  A    between atoms: N1_2  and  N2_3 
REMARK    2  A    between atoms: C14_18  and  N4_19 
ROOT
HETATM    1  N2  UNL     1      26.604   1.020  52.888  1.00  0.00    -0.280 N 
HETATM    2  C2  UNL     1      26.699  -0.299  52.861  1.00  0.00     0.116 A 
HETATM    3  C3  UNL     1      25.471  -0.800  53.212  1.00  0.00     0.030 A 
HETATM    4  C4  UNL     1      24.652   0.289  53.446  1.00  0.00    -0.003 A 
HETATM    5  C5  UNL     1      25.342   1.450  53.250  1.00  0.00     0.058 A 
HETATM    6  C6  UNL     1      25.078   2.877  53.337  1.00  0.00     0.179 C 
HETATM    7  N3  UNL     1      24.906   3.592  52.060  1.00  0.00    -0.384 N 
HETATM    8  C7  UNL     1      23.676   3.005  51.554  1.00  0.00     0.031 A 
HETATM    9  C8  UNL     1      23.483   1.927  50.707  1.00  0.00     0.030 A 
HETATM   10  C9  UNL     1      22.135   1.704  50.554  1.00  0.00     0.012 A 
HETATM   11  C10 UNL     1      21.008   2.303  51.049  1.00  0.00    -0.018 A 
HETATM   12  C11 UNL     1      21.238   3.367  51.879  1.00  0.00     0.124 A 
HETATM   13  F1  UNL     1      20.155   3.989  52.380  1.00  0.00    -0.205 F 
HETATM   14  C12 UNL     1      22.573   3.699  52.117  1.00  0.00     0.072 A 
HETATM   15  C13 UNL     1      19.782   1.560  50.627  1.00  0.00     0.066 C 
HETATM   16  C14 UNL     1      19.485   0.563  51.795  1.00  0.00     0.080 C 
HETATM   17  C15 UNL     1      20.698   0.035  52.330  1.00  0.00     0.055 C 
HETATM   18  C16 UNL     1      21.022  -0.878  53.414  1.00  0.00     0.272 C 
HETATM   19  N5  UNL     1      22.501  -0.912  53.427  1.00  0.00     0.087 N 
HETATM   20  C17 UNL     1      23.203   0.247  53.839  1.00  0.00     0.310 C 
HETATM   21  H7  UNL     1      25.563   4.325  51.696  1.00  0.00     0.160 HD
HETATM   22  H20 UNL     1      22.833  -1.800  53.860  1.00  0.00     0.316 HD
ENDROOT
BRANCH  16  23
HETATM   23  N4  UNL     1      18.504  -0.332  51.350  1.00  0.00    -0.426 N 
HETATM   24  H14 UNL     1      17.847   0.022  50.647  1.00  0.00     0.150 HD
HETATM   25  H15 UNL     1      18.814  -1.292  51.132  1.00  0.00     0.150 HD
ENDBRANCH  16  23
BRANCH   1  26
HETATM   26  N1  UNL     1      27.803   1.704  52.543  1.00  0.00    -0.338 NA
HETATM   27  C1  UNL     1      28.606   2.127  53.476  1.00  0.00     0.358 C 
ENDBRANCH   1  26
TORSDOF 2
ENDMDL
MODEL 4
REMARK VINA RESULT:      -7.3      2.368      4.227
REMARK  2 active torsions:
REMARK  status: ('A' for Active; 'I' for Inactive)
REMARK    1  A    between atoms: N1_2  and  N2_3 
REMARK    2  A    between atoms: C14_18  and  N4_19 
ROOT
HETATM    1  N2  UNL     1      21.656   4.778  49.658  1.00  0.00    -0.280 N 
HETATM    2  C2  UNL     1      22.839   4.986  49.104  1.00  0.00     0.116 A 
HETATM    3  C3  UNL     1      23.786   4.624  50.027  1.00  0.00     0.030 A 
HETATM    4  C4  UNL     1      23.102   4.194  51.148  1.00  0.00    -0.003 A 
HETATM    5  C5  UNL     1      21.755   4.281  50.942  1.00  0.00     0.058 A 
HETATM    6  C6  UNL     1      20.541   4.008  51.693  1.00  0.00     0.179 C 
HETATM    7  N3  UNL     1      19.803   2.787  51.326  1.00  0.00    -0.384 N 
HETATM    8  C7  UNL     1      20.738   1.745  51.719  1.00  0.00     0.031 A 
HETATM    9  C8  UNL     1      21.714   1.095  50.983  1.00  0.00     0.030 A 
HETATM   10  C9  UNL     1      22.393   0.222  51.799  1.00  0.00     0.012 A 
HETATM   11  C10 UNL     1      22.302  -0.113  53.122  1.00  0.00    -0.018 A 
HETATM   12  C11 UNL     1      21.324   0.547  53.818  1.00  0.00     0.124 A 
HETATM   13  F1  UNL     1      21.196   0.240  55.122  1.00  0.00    -0.205 F 
HETATM   14  C12 UNL     1      20.558   1.468  53.100  1.00  0.00     0.072 A 
HETATM   15  C13 UNL     1      23.389  -1.063  53.506  1.00  0.00     0.066 C 
HETATM   16  C14 UNL     1      24.547  -0.163  54.052  1.00  0.00     0.080 C 
HETATM   17  C15 UNL     1      24.652   1.040  53.292  1.00  0.00     0.055 C 
HETATM   18  C16 UNL     1      25.497   2.221  53.364  1.00  0.00     0.272 C 
HETATM   19  N5  UNL     1      24.993   3.093  52.280  1.00  0.00     0.087 N 
HETATM   20  C17 UNL     1      23.710   3.676  52.421  1.00  0.00     0.310 C 
HETATM   21  H7  UNL     1      18.847   2.777  50.895  1.00  0.00     0.160 HD
HETATM   22  H20 UNL     1      25.740   3.751  51.976  1.00  0.00     0.316 HD
ENDROOT
BRANCH  16  23
HETATM   23  N4  UNL     1      25.683  -0.970  54.190  1.00  0.00    -0.426 N 
HETATM   24  H14 UNL     1      25.517  -1.971  54.341  1.00  0.00     0.150 HD
HETATM   25  H15 UNL     1      26.453  -0.808  53.523  1.00  0.00     0.150 HD
ENDBRANCH  16  23
BRANCH   1  26
HETATM   26  N1  UNL     1      20.550   5.104  48.823  1.00  0.00    -0.338 NA
HETATM   27  C1  UNL     1      20.134   4.256  47.928  1.00  0.00     0.358 C 
ENDBRANCH   1  26
TORSDOF 2
ENDMDL
MODEL 5
REMARK VINA RESULT:      -7.3      2.637      6.568
REMARK  2 active torsions:
REMARK  status: ('A' for Active; 'I' for Inactive)
REMARK    1  A    between atoms: N1_2  and  N2_3 
REMARK    2  A    between atoms: C14_18  and  N4_19 
ROOT
HETATM    1  N2  UNL     1      22.502   0.895  53.092  1.00  0.00    -0.280 N 
HETATM    2  C2  UNL     1      23.688   0.378  53.366  1.00  0.00     0.116 A 
HETATM    3  C3  UNL     1      24.562   0.851  52.420  1.00  0.00     0.030 A 
HETATM    4  C4  UNL     1      23.832   1.669  51.581  1.00  0.00    -0.003 A 
HETATM    5  C5  UNL     1      22.527   1.714  51.981  1.00  0.00     0.058 A 
HETATM    6  C6  UNL     1      21.297   2.353  51.542  1.00  0.00     0.179 C 
HETATM    7  N3  UNL     1      20.841   3.510  52.330  1.00  0.00    -0.384 N 
HETATM    8  C7  UNL     1      21.891   4.481  52.067  1.00  0.00     0.031 A 
HETATM    9  C8  UNL     1      23.051   4.757  52.770  1.00  0.00     0.030 A 
HETATM   10  C9  UNL     1      23.769   5.722  52.105  1.00  0.00     0.012 A 
HETATM   11  C10 UNL     1      23.574   6.425  50.947  1.00  0.00    -0.018 A 
HETATM   12  C11 UNL     1      22.415   6.129  50.280  1.00  0.00     0.124 A 
HETATM   13  F1  UNL     1      22.183   6.806  49.141  1.00  0.00    -0.205 F 
HETATM   14  C12 UNL     1      21.592   5.159  50.855  1.00  0.00     0.072 A 
HETATM   15  C13 UNL     1      24.757   7.286  50.643  1.00  0.00     0.066 C 
HETATM   16  C14 UNL     1      25.658   6.425  49.697  1.00  0.00     0.080 C 
HETATM   17  C15 UNL     1      25.640   5.055  50.092  1.00  0.00     0.055 C 
HETATM   18  C16 UNL     1      26.245   3.836  49.576  1.00  0.00     0.272 C 
HETATM   19  N5  UNL     1      25.732   2.773  50.468  1.00  0.00     0.087 N 
HETATM   20  C17 UNL     1      24.359   2.435  50.401  1.00  0.00     0.310 C 
HETATM   21  H7  UNL     1      19.963   3.530  52.905  1.00  0.00     0.160 HD
HETATM   22  H20 UNL     1      26.382   1.959  50.462  1.00  0.00     0.316 HD
ENDROOT
BRANCH  16  23
HETATM   23  N4  UNL     1      26.894   7.074  49.582  1.00  0.00    -0.426 N 
HETATM   24  H14 UNL     1      27.685   6.499  49.275  1.00  0.00     0.150 HD
HETATM   25  H15 UNL     1      26.894   7.998  49.124  1.00  0.00     0.150 HD
ENDBRANCH  16  23
BRANCH   1  26
HETATM   26  N1  UNL     1      21.468   0.502  53.989  1.00  0.00    -0.338 NA
HETATM   27  C1  UNL     1      21.613  -0.558  54.730  1.00  0.00     0.358 C 
ENDBRANCH   1  26
TORSDOF 2
ENDMDL
MODEL 6
REMARK VINA RESULT:      -6.9      2.830      5.539
REMARK  2 active torsions:
REMARK  status: ('A' for Active; 'I' for Inactive)
REMARK    1  A    between atoms: N1_2  and  N2_3 
REMARK    2  A    between atoms: C14_18  and  N4_19 
ROOT
HETATM    1  N2  UNL     1      24.763   0.872  53.402  1.00  0.00    -0.280 N 
HETATM    2  C2  UNL     1      24.295  -0.362  53.312  1.00  0.00     0.116 A 
HETATM    3  C3  UNL     1      23.006  -0.272  52.851  1.00  0.00     0.030 A 
HETATM    4  C4  UNL     1      22.742   1.073  52.676  1.00  0.00    -0.003 A 
HETATM    5  C5  UNL     1      23.834   1.817  53.017  1.00  0.00     0.058 A 
HETATM    6  C6  UNL     1      24.193   3.226  53.068  1.00  0.00     0.179 C 
HETATM    7  N3  UNL     1      25.073   3.719  51.995  1.00  0.00    -0.384 N 
HETATM    8  C7  UNL     1      24.220   3.584  50.826  1.00  0.00     0.031 A 
HETATM    9  C8  UNL     1      24.097   2.540  49.925  1.00  0.00     0.030 A 
HETATM   10  C9  UNL     1      23.116   2.841  49.010  1.00  0.00     0.012 A 
HETATM   11  C10 UNL     1      22.282   3.910  48.825  1.00  0.00    -0.018 A 
HETATM   12  C11 UNL     1      22.434   4.924  49.732  1.00  0.00     0.124 A 
HETATM   13  F1  UNL     1      21.637   5.998  49.580  1.00  0.00    -0.205 F 
HETATM   14  C12 UNL     1      23.404   4.741  50.720  1.00  0.00     0.072 A 
HETATM   15  C13 UNL     1      21.320   3.647  47.712  1.00  0.00     0.066 C 
HETATM   16  C14 UNL     1      20.043   3.064  48.403  1.00  0.00     0.080 C 
HETATM   17  C15 UNL     1      20.401   2.204  49.484  1.00  0.00     0.055 C 
HETATM   18  C16 UNL     1      19.654   1.438  50.469  1.00  0.00     0.272 C 
HETATM   19  N5  UNL     1      20.699   0.829  51.321  1.00  0.00     0.087 N 
HETATM   20  C17 UNL     1      21.462   1.672  52.165  1.00  0.00     0.310 C 
HETATM   21  H7  UNL     1      26.054   4.060  52.141  1.00  0.00     0.160 HD
HETATM   22  H20 UNL     1      20.328  -0.028  51.781  1.00  0.00     0.316 HD
ENDROOT
BRANCH  16  23
HETATM   23  N4  UNL     1      19.207   2.564  47.397  1.00  0.00    -0.426 N 
HETATM   24  H14 UNL     1      18.535   1.842  47.678  1.00  0.00     0.150 HD
HETATM   25  H15 UNL     1      18.781   3.254  46.760  1.00  0.00     0.150 HD
ENDBRANCH  16  23
BRANCH   1  26
HETATM   26  N1  UNL     1      26.105   0.959  53.869  1.00  0.00    -0.338 NA
HETATM   27  C1  UNL     1      26.476   0.289  54.922  1.00  0.00     0.358 C 
ENDBRANCH   1  26
TORSDOF 2
ENDMDL
MODEL 7
REMARK VINA RESULT:      -6.9      2.319      5.829
REMARK  2 active torsions:
REMARK  status: ('A' for Active; 'I' for Inactive)
REMARK    1  A    between atoms: N1_2  and  N2_3 
REMARK    2  A    between atoms: C14_18  and  N4_19 
ROOT
HETATM    1  N2  UNL     1      19.436   1.907  51.937  1.00  0.00    -0.280 N 
HETATM    2  C2  UNL     1      18.675   2.870  51.442  1.00  0.00     0.116 A 
HETATM    3  C3  UNL     1      19.420   4.022  51.459  1.00  0.00     0.030 A 
HETATM    4  C4  UNL     1      20.652   3.689  51.988  1.00  0.00    -0.003 A 
HETATM    5  C5  UNL     1      20.690   2.360  52.299  1.00  0.00     0.058 A 
HETATM    6  C6  UNL     1      21.644   1.424  52.870  1.00  0.00     0.179 C 
HETATM    7  N3  UNL     1      22.299   0.498  51.930  1.00  0.00    -0.384 N 
HETATM    8  C7  UNL     1      23.093   1.408  51.121  1.00  0.00     0.031 A 
HETATM    9  C8  UNL     1      22.792   2.037  49.926  1.00  0.00     0.030 A 
HETATM   10  C9  UNL     1      23.837   2.854  49.565  1.00  0.00     0.012 A 
HETATM   11  C10 UNL     1      25.049   3.154  50.124  1.00  0.00    -0.018 A 
HETATM   12  C11 UNL     1      25.315   2.511  51.304  1.00  0.00     0.124 A 
HETATM   13  F1  UNL     1      26.501   2.773  51.882  1.00  0.00    -0.205 F 
HETATM   14  C12 UNL     1      24.327   1.647  51.782  1.00  0.00     0.072 A 
HETATM   15  C13 UNL     1      25.750   4.214  49.338  1.00  0.00     0.066 C 
HETATM   16  C14 UNL     1      25.359   5.563  50.027  1.00  0.00     0.080 C 
HETATM   17  C15 UNL     1      23.998   5.534  50.455  1.00  0.00     0.055 C 
HETATM   18  C16 UNL     1      23.131   6.465  51.161  1.00  0.00     0.272 C 
HETATM   19  N5  UNL     1      21.857   5.729  51.312  1.00  0.00     0.087 N 
HETATM   20  C17 UNL     1      21.817   4.616  52.187  1.00  0.00     0.310 C 
HETATM   21  H7  UNL     1      22.161  -0.542  51.927  1.00  0.00     0.160 HD
HETATM   22  H20 UNL     1      21.069   6.400  51.425  1.00  0.00     0.316 HD
ENDROOT
BRANCH  16  23
HETATM   23  N4  UNL     1      25.775   6.604  49.188  1.00  0.00    -0.426 N 
HETATM   24  H14 UNL     1      25.657   7.556  49.548  1.00  0.00     0.150 HD
HETATM   25  H15 UNL     1      26.684   6.485  48.715  1.00  0.00     0.150 HD
ENDBRANCH  16  23
BRANCH   1  26
HETATM   26  N1  UNL     1      18.810   0.630  51.989  1.00  0.00    -0.338 NA
HETATM   27  C1  UNL     1      18.239   0.139  50.928  1.00  0.00     0.358 C 
ENDBRANCH   1  26
TORSDOF 2
ENDMDL
MODEL 8
REMARK VINA RESULT:      -6.9      2.552      4.927
REMARK  2 active torsions:
REMARK  status: ('A' for Active; 'I' for Inactive)
REMARK    1  A    between atoms: N1_2  and  N2_3 
REMARK    2  A    between atoms: C14_18  and  N4_19 
ROOT
HETATM    1  N2  UNL     1      19.347   3.928  49.470  1.00  0.00    -0.280 N 
HETATM    2  C2  UNL     1      19.907   5.071  49.108  1.00  0.00     0.116 A 
HETATM    3  C3  UNL     1      20.786   5.421  50.101  1.00  0.00     0.030 A 
HETATM    4  C4  UNL     1      20.714   4.430  51.061  1.00  0.00    -0.003 A 
HETATM    5  C5  UNL     1      19.813   3.475  50.688  1.00  0.00     0.058 A 
HETATM    6  C6  UNL     1      19.287   2.233  51.231  1.00  0.00     0.179 C 
HETATM    7  N3  UNL     1      19.789   0.988  50.626  1.00  0.00    -0.384 N 
HETATM    8  C7  UNL     1      21.190   1.012  51.015  1.00  0.00     0.031 A 
HETATM    9  C8  UNL     1      22.295   1.507  50.344  1.00  0.00     0.030 A 
HETATM   10  C9  UNL     1      23.411   1.359  51.134  1.00  0.00     0.012 A 
HETATM   11  C10 UNL     1      23.632   0.849  52.385  1.00  0.00    -0.018 A 
HETATM   12  C11 UNL     1      22.517   0.366  53.016  1.00  0.00     0.124 A 
HETATM   13  F1  UNL     1      22.694  -0.152  54.245  1.00  0.00    -0.205 F 
HETATM   14  C12 UNL     1      21.312   0.457  52.316  1.00  0.00     0.072 A 
HETATM   15  C13 UNL     1      25.055   1.049  52.796  1.00  0.00     0.066 C 
HETATM   16  C14 UNL     1      25.066   2.393  53.595  1.00  0.00     0.080 C 
HETATM   17  C15 UNL     1      24.176   3.339  53.004  1.00  0.00     0.055 C 
HETATM   18  C16 UNL     1      23.768   4.697  53.328  1.00  0.00     0.272 C 
HETATM   19  N5  UNL     1      22.760   5.027  52.297  1.00  0.00     0.087 N 
HETATM   20  C17 UNL     1      21.511   4.361  52.333  1.00  0.00     0.310 C 
HETATM   21  H7  UNL     1      19.202   0.317  50.072  1.00  0.00     0.160 HD
HETATM   22  H20 UNL     1      22.699   6.060  52.177  1.00  0.00     0.316 HD
ENDROOT
BRANCH  16  23
HETATM   23  N4  UNL     1      26.404   2.762  53.787  1.00  0.00    -0.426 N 
HETATM   24  H14 UNL     1      27.031   2.640  52.985  1.00  0.00     0.150 HD
HETATM   25  H15 UNL     1      26.576   3.655  54.272  1.00  0.00     0.150 HD
ENDBRANCH  16  23
BRANCH   1  26
HETATM   26  N1  UNL     1      18.399   3.417  48.539  1.00  0.00    -0.338 NA
HETATM   27  C1  UNL     1      18.716   3.296  47.283  1.00  0.00     0.358 C 
ENDBRANCH   1  26
TORSDOF 2
ENDMDL
MODEL 9
REMARK VINA RESULT:      -6.8      2.504      4.259
REMARK  2 active torsions:
REMARK  status: ('A' for Active; 'I' for Inactive)
REMARK    1  A    between atoms: N1_2  and  N2_3 
REMARK    2  A    between atoms: C14_18  and  N4_19 
ROOT
HETATM    1  N2  UNL     1      25.549   3.420  50.248  1.00  0.00    -0.280 N 
HETATM    2  C2  UNL     1      26.380   2.458  50.614  1.00  0.00     0.116 A 
HETATM    3  C3  UNL     1      25.813   1.823  51.690  1.00  0.00     0.030 A 
HETATM    4  C4  UNL     1      24.612   2.459  51.937  1.00  0.00    -0.003 A 
HETATM    5  C5  UNL     1      24.420   3.471  51.042  1.00  0.00     0.058 A 
HETATM    6  C6  UNL     1      23.412   4.484  50.775  1.00  0.00     0.179 C 
HETATM    7  N3  UNL     1      22.533   4.246  49.617  1.00  0.00    -0.384 N 
HETATM    8  C7  UNL     1      21.791   3.070  50.044  1.00  0.00     0.031 A 
HETATM    9  C8  UNL     1      22.045   1.726  49.831  1.00  0.00     0.030 A 
HETATM   10  C9  UNL     1      21.094   0.974  50.478  1.00  0.00     0.012 A 
HETATM   11  C10 UNL     1      20.006   1.275  51.251  1.00  0.00    -0.018 A 
HETATM   12  C11 UNL     1      19.783   2.613  51.438  1.00  0.00     0.124 A 
HETATM   13  F1  UNL     1      18.717   2.951  52.186  1.00  0.00    -0.205 F 
HETATM   14  C12 UNL     1      20.684   3.489  50.829  1.00  0.00     0.072 A 
HETATM   15  C13 UNL     1      19.380   0.032  51.795  1.00  0.00     0.066 C 
HETATM   16  C14 UNL     1      20.032  -0.174  53.202  1.00  0.00     0.080 C 
HETATM   17  C15 UNL     1      21.414   0.180  53.174  1.00  0.00     0.055 C 
HETATM   18  C16 UNL     1      22.476   0.221  54.167  1.00  0.00     0.272 C 
HETATM   19  N5  UNL     1      23.642   0.753  53.426  1.00  0.00     0.087 N 
HETATM   20  C17 UNL     1      23.619   2.106  53.008  1.00  0.00     0.310 C 
HETATM   21  H7  UNL     1      22.520   4.834  48.749  1.00  0.00     0.160 HD
HETATM   22  H20 UNL     1      24.525   0.455  53.892  1.00  0.00     0.316 HD
ENDROOT
BRANCH  16  23
HETATM   23  N4  UNL     1      19.678  -1.453  53.651  1.00  0.00    -0.426 N 
HETATM   24  H14 UNL     1      19.612  -2.186  52.937  1.00  0.00     0.150 HD
HETATM   25  H15 UNL     1      20.146  -1.793  54.504  1.00  0.00     0.150 HD
ENDBRANCH  16  23
BRANCH   1  26
HETATM   26  N1  UNL     1      25.990   4.184  49.131  1.00  0.00    -0.338 NA
HETATM   27  C1  UNL     1      27.252   4.466  48.989  1.00  0.00     0.358 C 
ENDBRANCH   1  26
TORSDOF 2
ENDMDL
