MODEL 1
REMARK VINA RESULT:     -10.2      0.000      0.000
REMARK  5 active torsions:
REMARK  status: ('A' for Active; 'I' for Inactive)
REMARK    1  A    between atoms: C3_3  and  C4_4 
REMARK    2  A    between atoms: C4_4  and  C11_11 
REMARK    3  A    between atoms: C14_16  and  N3_17 
REMARK    4  A    between atoms: C15_19  and  N5_20 
REMARK    5  A    between atoms: N5_20  and  C16_21 
ROOT
HETATM    1  C1  UNL     1      23.584  -0.498  53.166  1.00  0.00     0.051 C 
HETATM    2  C2  UNL     1      24.508   0.551  52.709  1.00  0.00    -0.025 A 
HETATM    3  C3  UNL     1      25.792   0.739  52.407  1.00  0.00    -0.047 A 
HETATM    4  C13 UNL     1      26.090   2.137  51.993  1.00  0.00     0.185 A 
HETATM    5  N1  UNL     1      24.803   2.797  52.068  1.00  0.00    -0.270 N 
HETATM    6  N2  UNL     1      24.550   4.137  51.770  1.00  0.00    -0.128 N 
HETATM    7  C14 UNL     1      23.222   4.627  51.903  1.00  0.00     0.714 A 
HETATM    8  N4  UNL     1      22.311   3.788  52.299  1.00  0.00    -0.043 NA
HETATM    9  C15 UNL     1      22.646   2.426  52.587  1.00  0.00     0.176 A 
HETATM   10  C22 UNL     1      23.848   1.839  52.504  1.00  0.00     0.104 A 
HETATM   11  H13 UNL     1      25.290   4.795  51.454  1.00  0.00     0.206 HD
ENDROOT
BRANCH   3  12
HETATM   12  C4  UNL     1      26.843  -0.226  52.455  1.00  0.00     0.028 A 
HETATM   13  C5  UNL     1      26.552  -1.688  52.384  1.00  0.00     0.005 A 
HETATM   14  C6  UNL     1      27.221  -0.903  53.272  1.00  0.00     0.009 A 
HETATM   15  C7  UNL     1      27.932   0.093  54.374  1.00  0.00    -0.017 A 
HETATM   16  C10 UNL     1      28.957  -1.031  53.131  1.00  0.00     0.002 A 
HETATM   17  C8  UNL     1      29.231  -0.180  54.311  1.00  0.00     0.033 A 
HETATM   18  C12 UNL     1      26.748   0.448  54.575  1.00  0.00     0.011 A 
HETATM   19  C11 UNL     1      27.711  -0.289  53.824  1.00  0.00    -0.019 A 
HETATM   20  C9  UNL     1      30.318  -0.732  53.824  1.00  0.00    -0.017 A 
ENDBRANCH   3  12
BRANCH   9  21
HETATM   21  N5  UNL     1      21.568   1.605  53.017  1.00  0.00    -0.339 N 
HETATM   22  H16 UNL     1      21.067   1.078  53.736  1.00  0.00     0.167 HD
BRANCH  21  23
HETATM   23  C16 UNL     1      20.641   1.299  51.962  1.00  0.00     0.035 A 
HETATM   24  C17 UNL     1      20.680   1.626  50.649  1.00  0.00     0.029 A 
HETATM   25  C18 UNL     1      19.680   1.248  49.782  1.00  0.00     0.004 A 
HETATM   26  C19 UNL     1      18.581   0.516  50.202  1.00  0.00     0.019 A 
HETATM   27  C20 UNL     1      18.502   0.158  51.545  1.00  0.00     0.013 A 
HETATM   28 BR1  UNL     1      17.017  -0.852  52.216  1.00  0.00    -0.051 Br
HETATM   29  C21 UNL     1      19.526   0.559  52.372  1.00  0.00     0.048 A 
ENDBRANCH  21  23
ENDBRANCH   9  21
BRANCH   7  30
HETATM   30  N3  UNL     1      22.975   5.991  51.600  1.00  0.00    -0.231 N 
HETATM   31  H14 UNL     1      21.999   6.091  51.204  1.00  0.00     0.174 HD
HETATM   32  H15 UNL     1      23.600   6.801  51.720  1.00  0.00     0.174 HD
ENDBRANCH   7  30
TORSDOF 5
ENDMDL
MODEL 2
REMARK VINA RESULT:     -10.1      2.547      3.882
REMARK  5 active torsions:
REMARK  status: ('A' for Active; 'I' for Inactive)
REMARK    1  A    between atoms: C3_3  and  C4_4 
REMARK    2  A    between atoms: C4_4  and  C11_11 
REMARK    3  A    between atoms: C14_16  and  N3_17 
REMARK    4  A    between atoms: C15_19  and  N5_20 
REMARK    5  A    between atoms: N5_20  and  C16_21 
ROOT
HETATM    1  C1  UNL     1      24.733   2.680  52.558  1.00  0.00     0.051 C 
HETATM    2  C2  UNL     1      24.692   1.395  53.273  1.00  0.00    -0.025 A 
HETATM    3  C3  UNL     1      25.492   0.531  53.895  1.00  0.00    -0.047 A 
HETATM    4  C13 UNL     1      24.764  -0.655  54.425  1.00  0.00     0.185 A 
HETATM    5  N1  UNL     1      23.387  -0.402  54.054  1.00  0.00    -0.270 N 
HETATM    6  N2  UNL     1      22.299  -1.231  54.330  1.00  0.00    -0.128 N 
HETATM    7  C14 UNL     1      21.008  -0.834  53.886  1.00  0.00     0.714 A 
HETATM    8  N4  UNL     1      20.917   0.291  53.241  1.00  0.00    -0.043 NA
HETATM    9  C15 UNL     1      22.079   1.089  52.995  1.00  0.00     0.176 A 
HETATM   10  C22 UNL     1      23.344   0.835  53.355  1.00  0.00     0.104 A 
HETATM   11  H13 UNL     1      22.389  -2.129  54.847  1.00  0.00     0.206 HD
ENDROOT
BRANCH   3  12
HETATM   12  C4  UNL     1      26.904   0.635  54.076  1.00  0.00     0.028 A 
HETATM   13  C5  UNL     1      27.622   1.921  53.832  1.00  0.00     0.005 A 
HETATM   14  C6  UNL     1      27.767   0.656  53.352  1.00  0.00     0.009 A 
HETATM   15  C7  UNL     1      27.846  -0.862  52.718  1.00  0.00    -0.017 A 
HETATM   16  C10 UNL     1      29.114  -0.199  54.065  1.00  0.00     0.002 A 
HETATM   17  C8  UNL     1      28.975  -1.383  53.186  1.00  0.00     0.033 A 
HETATM   18  C12 UNL     1      26.773  -0.514  52.174  1.00  0.00     0.011 A 
HETATM   19  C11 UNL     1      27.832  -0.268  53.097  1.00  0.00    -0.019 A 
HETATM   20  C9  UNL     1      30.053  -1.433  53.935  1.00  0.00    -0.017 A 
ENDBRANCH   3  12
BRANCH   9  21
HETATM   21  N5  UNL     1      21.855   2.296  52.276  1.00  0.00    -0.339 N 
HETATM   22  H16 UNL     1      21.695   3.306  52.237  1.00  0.00     0.167 HD
BRANCH  21  23
HETATM   23  C16 UNL     1      21.816   2.102  50.853  1.00  0.00     0.035 A 
HETATM   24  C17 UNL     1      21.519   0.993  50.135  1.00  0.00     0.029 A 
HETATM   25  C18 UNL     1      21.547   0.997  48.759  1.00  0.00     0.004 A 
HETATM   26  C19 UNL     1      21.879   2.129  48.034  1.00  0.00     0.019 A 
HETATM   27  C20 UNL     1      22.190   3.292  48.733  1.00  0.00     0.013 A 
HETATM   28 BR1  UNL     1      22.664   4.906  47.814  1.00  0.00    -0.051 Br
HETATM   29  C21 UNL     1      22.148   3.239  50.107  1.00  0.00     0.048 A 
ENDBRANCH  21  23
ENDBRANCH   9  21
BRANCH   7  30
HETATM   30  N3  UNL     1      19.908  -1.685  54.170  1.00  0.00    -0.231 N 
HETATM   31  H14 UNL     1      20.178  -2.366  54.933  1.00  0.00     0.174 HD
HETATM   32  H15 UNL     1      18.972  -1.692  53.739  1.00  0.00     0.174 HD
ENDBRANCH   7  30
TORSDOF 5
ENDMDL
MODEL 3
REMARK VINA RESULT:      -9.7      2.939      3.996
REMARK  5 active torsions:
REMARK  status: ('A' for Active; 'I' for Inactive)
REMARK    1  A    between atoms: C3_3  and  C4_4 
REMARK    2  A    between atoms: C4_4  and  C11_11 
REMARK    3  A    between atoms: C14_16  and  N3_17 
REMARK    4  A    between atoms: C15_19  and  N5_20 
REMARK    5  A    between atoms: N5_20  and  C16_21 
ROOT
HETATM    1  C1  UNL     1      26.450   2.359  50.762  1.00  0.00     0.051 C 
HETATM    2  C2  UNL     1      25.640   1.455  51.593  1.00  0.00    -0.025 A 
HETATM    3  C3  UNL     1      25.737   0.320  52.284  1.00  0.00    -0.047 A 
HETATM    4  C13 UNL     1      24.455  -0.075  52.930  1.00  0.00     0.185 A 
HETATM    5  N1  UNL     1      23.542   0.984  52.552  1.00  0.00    -0.270 N 
HETATM    6  N2  UNL     1      22.198   1.076  52.916  1.00  0.00    -0.128 N 
HETATM    7  C14 UNL     1      21.439   2.184  52.452  1.00  0.00     0.714 A 
HETATM    8  N4  UNL     1      22.049   3.057  51.706  1.00  0.00    -0.043 NA
HETATM    9  C15 UNL     1      23.432   2.896  51.373  1.00  0.00     0.176 A 
HETATM   10  C22 UNL     1      24.258   1.907  51.741  1.00  0.00     0.104 A 
HETATM   11  H13 UNL     1      21.724   0.369  53.513  1.00  0.00     0.206 HD
ENDROOT
BRANCH   3  12
HETATM   12  C4  UNL     1      26.892  -0.503  52.439  1.00  0.00     0.028 A 
HETATM   13  C5  UNL     1      26.772  -1.983  52.590  1.00  0.00     0.005 A 
HETATM   14  C6  UNL     1      27.357  -1.005  53.334  1.00  0.00     0.009 A 
HETATM   15  C7  UNL     1      27.961   0.215  54.260  1.00  0.00    -0.017 A 
HETATM   16  C10 UNL     1      29.095  -0.957  53.163  1.00  0.00     0.002 A 
HETATM   17  C8  UNL     1      29.282   0.084  54.199  1.00  0.00     0.033 A 
HETATM   18  C12 UNL     1      26.747   0.461  54.441  1.00  0.00     0.011 A 
HETATM   19  C11 UNL     1      27.779  -0.265  53.777  1.00  0.00    -0.019 A 
HETATM   20  C9  UNL     1      30.420  -0.408  53.765  1.00  0.00    -0.017 A 
ENDBRANCH   3  12
BRANCH   9  21
HETATM   21  N5  UNL     1      23.989   3.911  50.548  1.00  0.00    -0.339 N 
HETATM   22  H16 UNL     1      24.654   4.670  50.375  1.00  0.00     0.167 HD
BRANCH  21  23
HETATM   23  C16 UNL     1      23.353   4.000  49.262  1.00  0.00     0.035 A 
HETATM   24  C17 UNL     1      22.805   3.028  48.495  1.00  0.00     0.029 A 
HETATM   25  C18 UNL     1      22.246   3.308  47.268  1.00  0.00     0.004 A 
HETATM   26  C19 UNL     1      22.213   4.592  46.751  1.00  0.00     0.019 A 
HETATM   27  C20 UNL     1      22.766   5.621  47.508  1.00  0.00     0.013 A 
HETATM   28 BR1  UNL     1      22.769   7.430  46.871  1.00  0.00    -0.051 Br
HETATM   29  C21 UNL     1      23.313   5.293  48.727  1.00  0.00     0.048 A 
ENDBRANCH  21  23
ENDBRANCH   9  21
BRANCH   7  30
HETATM   30  N3  UNL     1      20.072   2.268  52.825  1.00  0.00    -0.231 N 
HETATM   31  H14 UNL     1      19.698   1.296  53.007  1.00  0.00     0.174 HD
HETATM   32  H15 UNL     1      19.482   3.107  52.920  1.00  0.00     0.174 HD
ENDBRANCH   7  30
TORSDOF 5
ENDMDL
MODEL 4
REMARK VINA RESULT:      -9.4      4.296      6.282
REMARK  5 active torsions:
REMARK  status: ('A' for Active; 'I' for Inactive)
REMARK    1  A    between atoms: C3_3  and  C4_4 
REMARK    2  A    between atoms: C4_4  and  C11_11 
REMARK    3  A    between atoms: C14_16  and  N3_17 
REMARK    4  A    between atoms: C15_19  and  N5_20 
REMARK    5  A    between atoms: N5_20  and  C16_21 
ROOT
HETATM    1  C1  UNL     1      26.766   2.849  49.747  1.00  0.00     0.051 C 
HETATM    2  C2  UNL     1      25.743   2.827  50.804  1.00  0.00    -0.025 A 
HETATM    3  C3  UNL     1      25.338   2.089  51.836  1.00  0.00    -0.047 A 
HETATM    4  C13 UNL     1      24.156   2.667  52.532  1.00  0.00     0.185 A 
HETATM    5  N1  UNL     1      23.885   3.883  51.792  1.00  0.00    -0.270 N 
HETATM    6  N2  UNL     1      22.862   4.794  52.058  1.00  0.00    -0.128 N 
HETATM    7  C14 UNL     1      22.734   5.938  51.225  1.00  0.00     0.714 A 
HETATM    8  N4  UNL     1      23.586   6.070  50.252  1.00  0.00    -0.043 NA
HETATM    9  C15 UNL     1      24.611   5.093  50.040  1.00  0.00     0.176 A 
HETATM   10  C22 UNL     1      24.843   3.977  50.745  1.00  0.00     0.104 A 
HETATM   11  H13 UNL     1      22.188   4.674  52.840  1.00  0.00     0.206 HD
ENDROOT
BRANCH   3  12
HETATM   12  C4  UNL     1      25.902   0.861  52.297  1.00  0.00     0.028 A 
HETATM   13  C5  UNL     1      25.085  -0.122  53.068  1.00  0.00     0.005 A 
HETATM   14  C6  UNL     1      26.262   0.519  53.308  1.00  0.00     0.009 A 
HETATM   15  C7  UNL     1      27.627   1.389  53.607  1.00  0.00    -0.017 A 
HETATM   16  C10 UNL     1      27.659  -0.505  53.085  1.00  0.00     0.002 A 
HETATM   17  C8  UNL     1      28.622   0.509  53.572  1.00  0.00     0.033 A 
HETATM   18  C12 UNL     1      26.809   2.333  53.699  1.00  0.00     0.011 A 
HETATM   19  C11 UNL     1      27.104   0.975  53.381  1.00  0.00    -0.019 A 
HETATM   20  C9  UNL     1      29.183  -0.659  53.359  1.00  0.00    -0.017 A 
ENDBRANCH   3  12
BRANCH   9  21
HETATM   21  N5  UNL     1      25.481   5.342  48.944  1.00  0.00    -0.339 N 
HETATM   22  H16 UNL     1      25.856   5.112  48.020  1.00  0.00     0.167 HD
BRANCH  21  23
HETATM   23  C16 UNL     1      26.308   6.501  49.136  1.00  0.00     0.035 A 
HETATM   24  C17 UNL     1      26.130   7.571  49.946  1.00  0.00     0.029 A 
HETATM   25  C18 UNL     1      27.038   8.605  49.985  1.00  0.00     0.004 A 
HETATM   26  C19 UNL     1      28.180   8.609  49.201  1.00  0.00     0.019 A 
HETATM   27  C20 UNL     1      28.403   7.527  48.354  1.00  0.00     0.013 A 
HETATM   28 BR1  UNL     1      29.954   7.449  47.230  1.00  0.00    -0.051 Br
HETATM   29  C21 UNL     1      27.467   6.518  48.350  1.00  0.00     0.048 A 
ENDBRANCH  21  23
ENDBRANCH   9  21
BRANCH   7  30
HETATM   30  N3  UNL     1      21.688   6.858  51.501  1.00  0.00    -0.231 N 
HETATM   31  H14 UNL     1      21.510   7.454  50.646  1.00  0.00     0.174 HD
HETATM   32  H15 UNL     1      21.151   6.978  52.372  1.00  0.00     0.174 HD
ENDBRANCH   7  30
TORSDOF 5
ENDMDL
MODEL 5
REMARK VINA RESULT:      -9.1      1.430      1.461
REMARK  5 active torsions:
REMARK  status: ('A' for Active; 'I' for Inactive)
REMARK    1  A    between atoms: C3_3  and  C4_4 
REMARK    2  A    between atoms: C4_4  and  C11_11 
REMARK    3  A    between atoms: C14_16  and  N3_17 
REMARK    4  A    between atoms: C15_19  and  N5_20 
REMARK    5  A    between atoms: N5_20  and  C16_21 
ROOT
HETATM    1  C1  UNL     1      23.329   0.329  53.158  1.00  0.00     0.051 C 
HETATM    2  C2  UNL     1      24.294   1.158  52.420  1.00  0.00    -0.025 A 
HETATM    3  C3  UNL     1      25.565   1.159  52.022  1.00  0.00    -0.047 A 
HETATM    4  C13 UNL     1      25.935   2.390  51.270  1.00  0.00     0.185 A 
HETATM    5  N1  UNL     1      24.706   3.157  51.245  1.00  0.00    -0.270 N 
HETATM    6  N2  UNL     1      24.531   4.405  50.647  1.00  0.00    -0.128 N 
HETATM    7  C14 UNL     1      23.254   5.024  50.721  1.00  0.00     0.714 A 
HETATM    8  N4  UNL     1      22.313   4.384  51.350  1.00  0.00    -0.043 NA
HETATM    9  C15 UNL     1      22.568   3.104  51.939  1.00  0.00     0.176 A 
HETATM   10  C22 UNL     1      23.716   2.413  51.943  1.00  0.00     0.104 A 
HETATM   11  H13 UNL     1      25.294   4.905  50.147  1.00  0.00     0.206 HD
ENDROOT
BRANCH   3  12
HETATM   12  C4  UNL     1      26.545   0.147  52.249  1.00  0.00     0.028 A 
HETATM   13  C5  UNL     1      26.153  -1.285  52.406  1.00  0.00     0.005 A 
HETATM   14  C6  UNL     1      26.863  -0.414  53.174  1.00  0.00     0.009 A 
HETATM   15  C7  UNL     1      27.625   0.696  54.121  1.00  0.00    -0.017 A 
HETATM   16  C10 UNL     1      28.588  -0.679  53.101  1.00  0.00     0.002 A 
HETATM   17  C8  UNL     1      28.902   0.331  54.136  1.00  0.00     0.033 A 
HETATM   18  C12 UNL     1      26.466   1.158  54.232  1.00  0.00     0.011 A 
HETATM   19  C11 UNL     1      27.386   0.247  53.633  1.00  0.00    -0.019 A 
HETATM   20  C9  UNL     1      29.955  -0.364  53.772  1.00  0.00    -0.017 A 
ENDBRANCH   3  12
BRANCH   9  21
HETATM   21  N5  UNL     1      21.464   2.503  52.604  1.00  0.00    -0.339 N 
HETATM   22  H16 UNL     1      21.005   2.140  53.444  1.00  0.00     0.167 HD
BRANCH  21  23
HETATM   23  C16 UNL     1      20.367   2.214  51.721  1.00  0.00     0.035 A 
HETATM   24  C17 UNL     1      20.262   1.285  50.742  1.00  0.00     0.029 A 
HETATM   25  C18 UNL     1      19.119   1.165  49.983  1.00  0.00     0.004 A 
HETATM   26  C19 UNL     1      18.019   1.984  50.177  1.00  0.00     0.019 A 
HETATM   27  C20 UNL     1      18.085   2.952  51.174  1.00  0.00     0.013 A 
HETATM   28 BR1  UNL     1      16.612   4.132  51.512  1.00  0.00    -0.051 Br
HETATM   29  C21 UNL     1      19.247   3.034  51.907  1.00  0.00     0.048 A 
ENDBRANCH  21  23
ENDBRANCH   9  21
BRANCH   7  30
HETATM   30  N3  UNL     1      23.085   6.295  50.111  1.00  0.00    -0.231 N 
HETATM   31  H14 UNL     1      23.683   6.348  49.240  1.00  0.00     0.174 HD
HETATM   32  H15 UNL     1      22.494   7.081  50.416  1.00  0.00     0.174 HD
ENDBRANCH   7  30
TORSDOF 5
ENDMDL
MODEL 6
REMARK VINA RESULT:      -9.1      4.081      7.811
REMARK  5 active torsions:
REMARK  status: ('A' for Active; 'I' for Inactive)
REMARK    1  A    between atoms: C3_3  and  C4_4 
REMARK    2  A    between atoms: C4_4  and  C11_11 
REMARK    3  A    between atoms: C14_16  and  N3_17 
REMARK    4  A    between atoms: C15_19  and  N5_20 
REMARK    5  A    between atoms: N5_20  and  C16_21 
ROOT
HETATM    1  C1  UNL     1      23.547   3.068  49.147  1.00  0.00     0.051 C 
HETATM    2  C2  UNL     1      23.572   2.802  50.593  1.00  0.00    -0.025 A 
HETATM    3  C3  UNL     1      22.750   2.598  51.621  1.00  0.00    -0.047 A 
HETATM    4  C13 UNL     1      23.471   2.383  52.906  1.00  0.00     0.185 A 
HETATM    5  N1  UNL     1      24.868   2.471  52.531  1.00  0.00    -0.270 N 
HETATM    6  N2  UNL     1      25.958   2.334  53.391  1.00  0.00    -0.128 N 
HETATM    7  C14 UNL     1      27.269   2.454  52.856  1.00  0.00     0.714 A 
HETATM    8  N4  UNL     1      27.377   2.690  51.582  1.00  0.00    -0.043 NA
HETATM    9  C15 UNL     1      26.212   2.818  50.761  1.00  0.00     0.176 A 
HETATM   10  C22 UNL     1      24.927   2.727  51.134  1.00  0.00     0.104 A 
HETATM   11  H13 UNL     1      25.854   2.146  54.409  1.00  0.00     0.206 HD
ENDROOT
BRANCH   3  12
HETATM   12  C4  UNL     1      21.323   2.579  51.599  1.00  0.00     0.028 A 
HETATM   13  C5  UNL     1      20.526   2.951  52.805  1.00  0.00     0.005 A 
HETATM   14  C6  UNL     1      20.562   1.853  52.003  1.00  0.00     0.009 A 
HETATM   15  C7  UNL     1      20.708   0.501  51.073  1.00  0.00    -0.017 A 
HETATM   16  C10 UNL     1      19.220   1.771  50.887  1.00  0.00     0.002 A 
HETATM   17  C8  UNL     1      19.582   0.430  50.372  1.00  0.00     0.033 A 
HETATM   18  C12 UNL     1      21.806   0.407  51.670  1.00  0.00     0.011 A 
HETATM   19  C11 UNL     1      20.618   1.136  51.366  1.00  0.00    -0.019 A 
HETATM   20  C9  UNL     1      18.426   0.853  49.914  1.00  0.00    -0.017 A 
ENDBRANCH   3  12
BRANCH   9  21
HETATM   21  N5  UNL     1      26.455   3.079  49.385  1.00  0.00    -0.339 N 
HETATM   22  H16 UNL     1      26.535   2.778  48.410  1.00  0.00     0.167 HD
BRANCH  21  23
HETATM   23  C16 UNL     1      26.755   4.460  49.120  1.00  0.00     0.035 A 
HETATM   24  C17 UNL     1      25.976   5.559  49.253  1.00  0.00     0.029 A 
HETATM   25  C18 UNL     1      26.442   6.815  48.934  1.00  0.00     0.004 A 
HETATM   26  C19 UNL     1      27.726   7.024  48.459  1.00  0.00     0.019 A 
HETATM   27  C20 UNL     1      28.560   5.920  48.308  1.00  0.00     0.013 A 
HETATM   28 BR1  UNL     1      30.353   6.113  47.655  1.00  0.00    -0.051 Br
HETATM   29  C21 UNL     1      28.051   4.686  48.640  1.00  0.00     0.048 A 
ENDBRANCH  21  23
ENDBRANCH   9  21
BRANCH   7  30
HETATM   30  N3  UNL     1      28.372   2.316  53.740  1.00  0.00    -0.231 N 
HETATM   31  H14 UNL     1      28.926   3.216  53.753  1.00  0.00     0.174 HD
HETATM   32  H15 UNL     1      28.645   1.499  54.304  1.00  0.00     0.174 HD
ENDBRANCH   7  30
TORSDOF 5
ENDMDL
MODEL 7
REMARK VINA RESULT:      -9.1      2.111      3.390
REMARK  5 active torsions:
REMARK  status: ('A' for Active; 'I' for Inactive)
REMARK    1  A    between atoms: C3_3  and  C4_4 
REMARK    2  A    between atoms: C4_4  and  C11_11 
REMARK    3  A    between atoms: C14_16  and  N3_17 
REMARK    4  A    between atoms: C15_19  and  N5_20 
REMARK    5  A    between atoms: N5_20  and  C16_21 
ROOT
HETATM    1  C1  UNL     1      24.558   1.751  51.284  1.00  0.00     0.051 C 
HETATM    2  C2  UNL     1      24.518   0.899  52.482  1.00  0.00    -0.025 A 
HETATM    3  C3  UNL     1      25.306   0.450  53.458  1.00  0.00    -0.047 A 
HETATM    4  C13 UNL     1      24.592  -0.444  54.412  1.00  0.00     0.185 A 
HETATM    5  N1  UNL     1      23.238  -0.480  53.897  1.00  0.00    -0.270 N 
HETATM    6  N2  UNL     1      22.171  -1.188  54.449  1.00  0.00    -0.128 N 
HETATM    7  C14 UNL     1      20.902  -1.119  53.811  1.00  0.00     0.714 A 
HETATM    8  N4  UNL     1      20.811  -0.391  52.737  1.00  0.00    -0.043 NA
HETATM    9  C15 UNL     1      21.952   0.309  52.230  1.00  0.00     0.176 A 
HETATM   10  C22 UNL     1      23.195   0.329  52.729  1.00  0.00     0.104 A 
HETATM   11  H13 UNL     1      22.260  -1.767  55.309  1.00  0.00     0.206 HD
ENDROOT
BRANCH   3  12
HETATM   12  C4  UNL     1      26.692   0.727  53.649  1.00  0.00     0.028 A 
HETATM   13  C5  UNL     1      27.312   1.973  53.110  1.00  0.00     0.005 A 
HETATM   14  C6  UNL     1      27.587   0.648  52.970  1.00  0.00     0.009 A 
HETATM   15  C7  UNL     1      27.825  -0.966  52.742  1.00  0.00    -0.017 A 
HETATM   16  C10 UNL     1      28.962   0.127  53.915  1.00  0.00     0.002 A 
HETATM   17  C8  UNL     1      28.968  -1.246  53.360  1.00  0.00     0.033 A 
HETATM   18  C12 UNL     1      26.757  -0.866  52.096  1.00  0.00     0.011 A 
HETATM   19  C11 UNL     1      27.742  -0.300  52.959  1.00  0.00    -0.019 A 
HETATM   20  C9  UNL     1      30.005  -1.006  54.129  1.00  0.00    -0.017 A 
ENDBRANCH   3  12
BRANCH   9  21
HETATM   21  N5  UNL     1      21.732   1.068  51.048  1.00  0.00    -0.339 N 
HETATM   22  H16 UNL     1      21.977   1.343  50.093  1.00  0.00     0.167 HD
BRANCH  21  23
HETATM   23  C16 UNL     1      20.589   1.935  51.143  1.00  0.00     0.035 A 
HETATM   24  C17 UNL     1      20.423   3.079  51.847  1.00  0.00     0.029 A 
HETATM   25  C18 UNL     1      19.235   3.774  51.822  1.00  0.00     0.004 A 
HETATM   26  C19 UNL     1      18.147   3.344  51.081  1.00  0.00     0.019 A 
HETATM   27  C20 UNL     1      18.276   2.172  50.341  1.00  0.00     0.013 A 
HETATM   28 BR1  UNL     1      16.823   1.499  49.287  1.00  0.00    -0.051 Br
HETATM   29  C21 UNL     1      19.482   1.512  50.397  1.00  0.00     0.048 A 
ENDBRANCH  21  23
ENDBRANCH   9  21
BRANCH   7  30
HETATM   30  N3  UNL     1      19.822  -1.845  54.378  1.00  0.00    -0.231 N 
HETATM   31  H14 UNL     1      19.003  -1.834  53.709  1.00  0.00     0.174 HD
HETATM   32  H15 UNL     1      19.778  -2.327  55.287  1.00  0.00     0.174 HD
ENDBRANCH   7  30
TORSDOF 5
ENDMDL
MODEL 8
REMARK VINA RESULT:      -8.9      3.323      5.054
REMARK  5 active torsions:
REMARK  status: ('A' for Active; 'I' for Inactive)
REMARK    1  A    between atoms: C3_3  and  C4_4 
REMARK    2  A    between atoms: C4_4  and  C11_11 
REMARK    3  A    between atoms: C14_16  and  N3_17 
REMARK    4  A    between atoms: C15_19  and  N5_20 
REMARK    5  A    between atoms: N5_20  and  C16_21 
ROOT
HETATM    1  C1  UNL     1      26.416   2.455  50.278  1.00  0.00     0.051 C 
HETATM    2  C2  UNL     1      25.408   1.943  51.218  1.00  0.00    -0.025 A 
HETATM    3  C3  UNL     1      25.256   1.027  52.174  1.00  0.00    -0.047 A 
HETATM    4  C13 UNL     1      23.889   1.026  52.762  1.00  0.00     0.185 A 
HETATM    5  N1  UNL     1      23.207   2.083  52.043  1.00  0.00    -0.270 N 
HETATM    6  N2  UNL     1      21.884   2.482  52.232  1.00  0.00    -0.128 N 
HETATM    7  C14 UNL     1      21.368   3.538  51.432  1.00  0.00     0.714 A 
HETATM    8  N4  UNL     1      22.169   4.075  50.561  1.00  0.00    -0.043 NA
HETATM    9  C15 UNL     1      23.516   3.612  50.423  1.00  0.00     0.176 A 
HETATM   10  C22 UNL     1      24.125   2.634  51.107  1.00  0.00     0.104 A 
HETATM   11  H13 UNL     1      21.255   2.041  52.933  1.00  0.00     0.206 HD
ENDROOT
BRANCH   3  12
HETATM   12  C4  UNL     1      26.232   0.099  52.646  1.00  0.00     0.028 A 
HETATM   13  C5  UNL     1      25.843  -1.063  53.499  1.00  0.00     0.005 A 
HETATM   14  C6  UNL     1      26.730  -0.042  53.647  1.00  0.00     0.009 A 
HETATM   15  C7  UNL     1      27.717   1.263  53.834  1.00  0.00    -0.017 A 
HETATM   16  C10 UNL     1      28.387  -0.527  53.382  1.00  0.00     0.002 A 
HETATM   17  C8  UNL     1      28.954   0.783  53.775  1.00  0.00     0.033 A 
HETATM   18  C12 UNL     1      26.625   1.869  53.939  1.00  0.00     0.011 A 
HETATM   19  C11 UNL     1      27.362   0.681  53.654  1.00  0.00    -0.019 A 
HETATM   20  C9  UNL     1      29.879  -0.127  53.572  1.00  0.00    -0.017 A 
ENDBRANCH   3  12
BRANCH   9  21
HETATM   21  N5  UNL     1      24.296   4.274  49.435  1.00  0.00    -0.339 N 
HETATM   22  H16 UNL     1      24.865   4.272  48.584  1.00  0.00     0.167 HD
BRANCH  21  23
HETATM   23  C16 UNL     1      24.400   5.690  49.657  1.00  0.00     0.035 A 
HETATM   24  C17 UNL     1      24.537   6.380  50.814  1.00  0.00     0.029 A 
HETATM   25  C18 UNL     1      24.608   7.755  50.828  1.00  0.00     0.004 A 
HETATM   26  C19 UNL     1      24.543   8.506  49.667  1.00  0.00     0.019 A 
HETATM   27  C20 UNL     1      24.403   7.836  48.455  1.00  0.00     0.013 A 
HETATM   28 BR1  UNL     1      24.301   8.794  46.797  1.00  0.00    -0.051 Br
HETATM   29  C21 UNL     1      24.336   6.462  48.491  1.00  0.00     0.048 A 
ENDBRANCH  21  23
ENDBRANCH   9  21
BRANCH   7  30
HETATM   30  N3  UNL     1      20.020   3.935  51.631  1.00  0.00    -0.231 N 
HETATM   31  H14 UNL     1      19.422   3.078  51.797  1.00  0.00     0.174 HD
HETATM   32  H15 UNL     1      19.621   4.885  51.624  1.00  0.00     0.174 HD
ENDBRANCH   7  30
TORSDOF 5
ENDMDL
MODEL 9
REMARK VINA RESULT:      -8.8      4.140      6.572
REMARK  5 active torsions:
REMARK  status: ('A' for Active; 'I' for Inactive)
REMARK    1  A    between atoms: C3_3  and  C4_4 
REMARK    2  A    between atoms: C4_4  and  C11_11 
REMARK    3  A    between atoms: C14_16  and  N3_17 
REMARK    4  A    between atoms: C15_19  and  N5_20 
REMARK    5  A    between atoms: N5_20  and  C16_21 
ROOT
HETATM    1  C1  UNL     1      26.298   1.932  50.326  1.00  0.00     0.051 C 
HETATM    2  C2  UNL     1      25.486   2.537  51.393  1.00  0.00    -0.025 A 
HETATM    3  C3  UNL     1      24.998   2.263  52.602  1.00  0.00    -0.047 A 
HETATM    4  C13 UNL     1      24.196   3.382  53.169  1.00  0.00     0.185 A 
HETATM    5  N1  UNL     1      24.262   4.402  52.143  1.00  0.00    -0.270 N 
HETATM    6  N2  UNL     1      23.663   5.661  52.200  1.00  0.00    -0.128 N 
HETATM    7  C14 UNL     1      23.822   6.544  51.097  1.00  0.00     0.714 A 
HETATM    8  N4  UNL     1      24.525   6.121  50.089  1.00  0.00    -0.043 NA
HETATM    9  C15 UNL     1      25.110   4.814  50.102  1.00  0.00     0.176 A 
HETATM   10  C22 UNL     1      25.039   3.889  51.069  1.00  0.00     0.104 A 
HETATM   11  H13 UNL     1      23.103   5.985  53.015  1.00  0.00     0.206 HD
ENDROOT
BRANCH   3  12
HETATM   12  C4  UNL     1      25.162   1.058  53.350  1.00  0.00     0.028 A 
HETATM   13  C5  UNL     1      26.235   0.077  53.009  1.00  0.00     0.005 A 
HETATM   14  C6  UNL     1      24.883  -0.013  53.141  1.00  0.00     0.009 A 
HETATM   15  C7  UNL     1      23.238  -0.061  53.207  1.00  0.00    -0.017 A 
HETATM   16  C10 UNL     1      24.386  -0.763  54.638  1.00  0.00     0.002 A 
HETATM   17  C8  UNL     1      22.948  -0.779  54.286  1.00  0.00     0.033 A 
HETATM   18  C12 UNL     1      23.339   0.608  52.153  1.00  0.00     0.011 A 
HETATM   19  C11 UNL     1      23.935  -0.003  53.295  1.00  0.00    -0.019 A 
HETATM   20  C9  UNL     1      23.203  -1.424  55.402  1.00  0.00    -0.017 A 
ENDBRANCH   3  12
BRANCH   9  21
HETATM   21  N5  UNL     1      25.853   4.462  48.941  1.00  0.00    -0.339 N 
HETATM   22  H16 UNL     1      26.015   3.876  48.118  1.00  0.00     0.167 HD
BRANCH  21  23
HETATM   23  C16 UNL     1      26.991   5.312  48.723  1.00  0.00     0.035 A 
HETATM   24  C17 UNL     1      28.280   4.989  48.464  1.00  0.00     0.029 A 
HETATM   25  C18 UNL     1      29.244   5.957  48.294  1.00  0.00     0.004 A 
HETATM   26  C19 UNL     1      28.953   7.308  48.380  1.00  0.00     0.019 A 
HETATM   27  C20 UNL     1      27.639   7.684  48.645  1.00  0.00     0.013 A 
HETATM   28 BR1  UNL     1      27.144   9.530  48.784  1.00  0.00    -0.051 Br
HETATM   29  C21 UNL     1      26.710   6.681  48.806  1.00  0.00     0.048 A 
ENDBRANCH  21  23
ENDBRANCH   9  21
BRANCH   7  30
HETATM   30  N3  UNL     1      23.207   7.821  51.163  1.00  0.00    -0.231 N 
HETATM   31  H14 UNL     1      23.464   8.379  50.301  1.00  0.00     0.174 HD
HETATM   32  H15 UNL     1      22.601   8.206  51.901  1.00  0.00     0.174 HD
ENDBRANCH   7  30
TORSDOF 5
ENDMDL
