MODEL 1
REMARK VINA RESULT:      -7.0      0.000      0.000
REMARK  9 active torsions:
REMARK  status: ('A' for Active; 'I' for Inactive)
REMARK    1  A    between atoms: C2_2  and  C3_3 
REMARK    2  A    between atoms: C7_7  and  C8_8 
REMARK    3  A    between atoms: C8_8  and  C9_9 
REMARK    4  A    between atoms: C9_9  and  C10_10 
REMARK    5  A    between atoms: C10_10  and  N1_11 
REMARK    6  A    between atoms: N1_11  and  C11_12 
REMARK    7  A    between atoms: C11_12  and  N2_15 
REMARK    8  A    between atoms: C12_13  and  S1_14 
REMARK    9  A    between atoms: N2_15  and  C13_16 
ROOT
HETATM    1  N1  UNL     1      26.491   0.560  52.222  1.00  0.00    -0.322 N 
HETATM    2  H14 UNL     1      26.643   0.085  51.310  1.00  0.00     0.166 HD
ENDROOT
BRANCH   1   3
HETATM    3  C10 UNL     1      26.946   1.909  52.371  1.00  0.00     0.284 A 
HETATM    4  N3  UNL     1      28.285   2.099  52.813  1.00  0.00    -0.104 NA
HETATM    5  N4  UNL     1      27.931   2.527  53.942  1.00  0.00    -0.020 NA
HETATM    6  O1  UNL     1      26.602   2.397  53.655  1.00  0.00    -0.180 OA
BRANCH   3   7
HETATM    7  C9  UNL     1      26.498   2.856  51.258  1.00  0.00     0.093 C 
BRANCH   7   8
HETATM    8  C8  UNL     1      25.093   2.425  50.864  1.00  0.00     0.020 C 
BRANCH   8   9
HETATM    9  C7  UNL     1      24.193   3.633  50.782  1.00  0.00     0.037 A 
HETATM   10  C3  UNL     1      22.932   3.310  50.076  1.00  0.00    -0.073 A 
HETATM   11  C4  UNL     1      21.920   3.573  50.925  1.00  0.00     0.003 A 
HETATM   12  C5  UNL     1      22.393   4.066  52.212  1.00  0.00    -0.003 A 
HETATM   13  C6  UNL     1      23.709   4.092  52.105  1.00  0.00    -0.018 A 
BRANCH  10  14
HETATM   14  C2  UNL     1      22.647   2.804  48.725  1.00  0.00     0.030 C 
HETATM   15  C1  UNL     1      21.855   1.535  48.676  1.00  0.00     0.010 C 
ENDBRANCH  10  14
ENDBRANCH   8   9
ENDBRANCH   7   8
ENDBRANCH   3   7
ENDBRANCH   1   3
BRANCH   1  16
HETATM   16  C11 UNL     1      25.834  -0.229  53.201  1.00  0.00     0.111 C 
HETATM   17  C12 UNL     1      26.256  -1.469  53.422  1.00  0.00     0.181 C 
BRANCH  17  18
HETATM   18  S1  UNL     1      27.600  -2.335  52.627  1.00  0.00    -0.223 SA
HETATM   19  H16 UNL     1      28.799  -1.676  52.969  1.00  0.00     0.086 HD
ENDBRANCH  17  18
BRANCH  16  20
HETATM   20  N2  UNL     1      24.823  -0.361  54.182  1.00  0.00    -0.342 N 
HETATM   21  H17 UNL     1      25.122  -0.452  55.199  1.00  0.00     0.167 HD
BRANCH  20  22
HETATM   22  C13 UNL     1      23.422  -0.379  53.844  1.00  0.00     0.033 A 
HETATM   23  C14 UNL     1      22.867   0.253  52.755  1.00  0.00     0.031 A 
HETATM   24  C15 UNL     1      21.518   0.208  52.482  1.00  0.00     0.026 A 
HETATM   25  C16 UNL     1      20.656  -0.485  53.306  1.00  0.00     0.034 A 
HETATM   26 CL1  UNL     1      18.952  -0.498  52.899  1.00  0.00    -0.084 Cl
HETATM   27  C17 UNL     1      21.175  -1.140  54.420  1.00  0.00     0.026 A 
HETATM   28  C18 UNL     1      22.546  -1.067  54.655  1.00  0.00     0.031 A 
ENDBRANCH  20  22
ENDBRANCH  16  20
ENDBRANCH   1  16
TORSDOF 9
ENDMDL
MODEL 2
REMARK VINA RESULT:      -7.0      2.113      4.626
REMARK  9 active torsions:
REMARK  status: ('A' for Active; 'I' for Inactive)
REMARK    1  A    between atoms: C2_2  and  C3_3 
REMARK    2  A    between atoms: C7_7  and  C8_8 
REMARK    3  A    between atoms: C8_8  and  C9_9 
REMARK    4  A    between atoms: C9_9  and  C10_10 
REMARK    5  A    between atoms: C10_10  and  N1_11 
REMARK    6  A    between atoms: N1_11  and  C11_12 
REMARK    7  A    between atoms: C11_12  and  N2_15 
REMARK    8  A    between atoms: C12_13  and  S1_14 
REMARK    9  A    between atoms: N2_15  and  C13_16 
ROOT
HETATM    1  N1  UNL     1      25.956   1.124  53.732  1.00  0.00    -0.322 N 
HETATM    2  H14 UNL     1      25.691   1.552  54.641  1.00  0.00     0.166 HD
ENDROOT
BRANCH   1   3
HETATM    3  C10 UNL     1      25.645  -0.256  53.514  1.00  0.00     0.284 A 
HETATM    4  N3  UNL     1      26.532  -1.219  54.072  1.00  0.00    -0.104 NA
HETATM    5  N4  UNL     1      26.982  -1.567  52.950  1.00  0.00    -0.020 NA
HETATM    6  O1  UNL     1      26.186  -0.684  52.276  1.00  0.00    -0.180 OA
BRANCH   3   7
HETATM    7  C9  UNL     1      24.162  -0.600  53.643  1.00  0.00     0.093 C 
BRANCH   7   8
HETATM    8  C8  UNL     1      23.402   0.471  52.875  1.00  0.00     0.020 C 
BRANCH   8   9
HETATM    9  C7  UNL     1      22.044   0.679  53.498  1.00  0.00     0.037 A 
HETATM   10  C3  UNL     1      20.973   0.602  52.478  1.00  0.00    -0.073 A 
HETATM   11  C4  UNL     1      20.139  -0.388  52.847  1.00  0.00     0.003 A 
HETATM   12  C5  UNL     1      20.560  -1.032  54.084  1.00  0.00    -0.003 A 
HETATM   13  C6  UNL     1      21.663  -0.399  54.441  1.00  0.00    -0.018 A 
BRANCH  10  14
HETATM   14  C2  UNL     1      20.708   1.370  51.251  1.00  0.00     0.030 C 
HETATM   15  C1  UNL     1      21.213   0.744  49.989  1.00  0.00     0.010 C 
ENDBRANCH  10  14
ENDBRANCH   8   9
ENDBRANCH   7   8
ENDBRANCH   3   7
ENDBRANCH   1   3
BRANCH   1  16
HETATM   16  C11 UNL     1      26.601   2.004  52.825  1.00  0.00     0.111 C 
HETATM   17  C12 UNL     1      27.910   2.202  52.935  1.00  0.00     0.181 C 
BRANCH  17  18
HETATM   18  S1  UNL     1      29.038   1.485  54.119  1.00  0.00    -0.223 SA
HETATM   19  H16 UNL     1      28.607   1.862  55.408  1.00  0.00     0.086 HD
ENDBRANCH  17  18
BRANCH  16  20
HETATM   20  N2  UNL     1      26.525   2.886  51.721  1.00  0.00    -0.342 N 
HETATM   21  H17 UNL     1      27.436   3.244  51.304  1.00  0.00     0.167 HD
BRANCH  20  22
HETATM   22  C13 UNL     1      25.267   3.309  51.160  1.00  0.00     0.033 A 
HETATM   23  C14 UNL     1      24.216   3.824  51.884  1.00  0.00     0.031 A 
HETATM   24  C15 UNL     1      23.031   4.207  51.296  1.00  0.00     0.026 A 
HETATM   25  C16 UNL     1      22.849   4.085  49.935  1.00  0.00     0.034 A 
HETATM   26 CL1  UNL     1      21.314   4.589  49.256  1.00  0.00    -0.084 Cl
HETATM   27  C17 UNL     1      23.886   3.567  49.163  1.00  0.00     0.026 A 
HETATM   28  C18 UNL     1      25.067   3.194  49.801  1.00  0.00     0.031 A 
ENDBRANCH  20  22
ENDBRANCH  16  20
ENDBRANCH   1  16
TORSDOF 9
ENDMDL
MODEL 3
REMARK VINA RESULT:      -7.0      3.891      6.065
REMARK  9 active torsions:
REMARK  status: ('A' for Active; 'I' for Inactive)
REMARK    1  A    between atoms: C2_2  and  C3_3 
REMARK    2  A    between atoms: C7_7  and  C8_8 
REMARK    3  A    between atoms: C8_8  and  C9_9 
REMARK    4  A    between atoms: C9_9  and  C10_10 
REMARK    5  A    between atoms: C10_10  and  N1_11 
REMARK    6  A    between atoms: N1_11  and  C11_12 
REMARK    7  A    between atoms: C11_12  and  N2_15 
REMARK    8  A    between atoms: C12_13  and  S1_14 
REMARK    9  A    between atoms: N2_15  and  C13_16 
ROOT
HETATM    1  N1  UNL     1      19.986  -0.151  53.871  1.00  0.00    -0.322 N 
HETATM    2  H14 UNL     1      19.365  -0.041  54.697  1.00  0.00     0.166 HD
ENDROOT
BRANCH   1   3
HETATM    3  C10 UNL     1      21.377  -0.405  54.096  1.00  0.00     0.284 A 
HETATM    4  N3  UNL     1      21.840  -1.733  53.875  1.00  0.00    -0.104 NA
HETATM    5  N4  UNL     1      22.021  -1.955  55.100  1.00  0.00    -0.020 NA
HETATM    6  O1  UNL     1      21.598  -0.707  55.462  1.00  0.00    -0.180 OA
BRANCH   3   7
HETATM    7  C9  UNL     1      22.312   0.692  53.591  1.00  0.00     0.093 C 
BRANCH   7   8
HETATM    8  C8  UNL     1      23.494  -0.014  52.941  1.00  0.00     0.020 C 
BRANCH   8   9
HETATM    9  C7  UNL     1      24.756   0.776  53.185  1.00  0.00     0.037 A 
HETATM   10  C3  UNL     1      25.917   0.142  52.519  1.00  0.00    -0.073 A 
HETATM   11  C4  UNL     1      26.433   1.048  51.666  1.00  0.00     0.003 A 
HETATM   12  C5  UNL     1      25.695   2.304  51.683  1.00  0.00    -0.003 A 
HETATM   13  C6  UNL     1      24.731   2.122  52.568  1.00  0.00    -0.018 A 
BRANCH  10  14
HETATM   14  C2  UNL     1      26.532  -1.189  52.640  1.00  0.00     0.030 C 
HETATM   15  C1  UNL     1      27.973  -1.188  53.044  1.00  0.00     0.010 C 
ENDBRANCH  10  14
ENDBRANCH   8   9
ENDBRANCH   7   8
ENDBRANCH   3   7
ENDBRANCH   1   3
BRANCH   1  16
HETATM   16  C11 UNL     1      19.336  -0.028  52.617  1.00  0.00     0.111 C 
HETATM   17  C12 UNL     1      18.292  -0.805  52.350  1.00  0.00     0.181 C 
BRANCH  17  18
HETATM   18  S1  UNL     1      17.546  -2.048  53.395  1.00  0.00    -0.223 SA
HETATM   19  H16 UNL     1      16.603  -1.404  54.224  1.00  0.00     0.086 HD
ENDBRANCH  17  18
BRANCH  16  20
HETATM   20  N2  UNL     1      19.240   0.594  51.349  1.00  0.00    -0.342 N 
HETATM   21  H17 UNL     1      18.337   0.470  50.799  1.00  0.00     0.167 HD
BRANCH  20  22
HETATM   22  C13 UNL     1      20.316   1.372  50.792  1.00  0.00     0.033 A 
HETATM   23  C14 UNL     1      21.302   0.876  49.969  1.00  0.00     0.031 A 
HETATM   24  C15 UNL     1      22.313   1.666  49.469  1.00  0.00     0.026 A 
HETATM   25  C16 UNL     1      22.379   3.007  49.781  1.00  0.00     0.034 A 
HETATM   26 CL1  UNL     1      23.695   3.950  49.111  1.00  0.00    -0.084 Cl
HETATM   27  C17 UNL     1      21.403   3.551  50.612  1.00  0.00     0.026 A 
HETATM   28  C18 UNL     1      20.399   2.715  51.093  1.00  0.00     0.031 A 
ENDBRANCH  20  22
ENDBRANCH  16  20
ENDBRANCH   1  16
TORSDOF 9
ENDMDL
MODEL 4
REMARK VINA RESULT:      -6.9      4.357      7.303
REMARK  9 active torsions:
REMARK  status: ('A' for Active; 'I' for Inactive)
REMARK    1  A    between atoms: C2_2  and  C3_3 
REMARK    2  A    between atoms: C7_7  and  C8_8 
REMARK    3  A    between atoms: C8_8  and  C9_9 
REMARK    4  A    between atoms: C9_9  and  C10_10 
REMARK    5  A    between atoms: C10_10  and  N1_11 
REMARK    6  A    between atoms: N1_11  and  C11_12 
REMARK    7  A    between atoms: C11_12  and  N2_15 
REMARK    8  A    between atoms: C12_13  and  S1_14 
REMARK    9  A    between atoms: N2_15  and  C13_16 
ROOT
HETATM    1  N1  UNL     1      24.872   4.008  51.850  1.00  0.00    -0.322 N 
HETATM    2  H14 UNL     1      24.918   4.676  52.645  1.00  0.00     0.166 HD
ENDROOT
BRANCH   1   3
HETATM    3  C10 UNL     1      25.272   2.652  52.077  1.00  0.00     0.284 A 
HETATM    4  N3  UNL     1      25.976   2.374  53.282  1.00  0.00    -0.104 NA
HETATM    5  N4  UNL     1      27.065   2.165  52.687  1.00  0.00    -0.020 NA
HETATM    6  O1  UNL     1      26.522   2.407  51.456  1.00  0.00    -0.180 OA
BRANCH   3   7
HETATM    7  C9  UNL     1      24.225   1.609  51.691  1.00  0.00     0.093 C 
BRANCH   7   8
HETATM    8  C8  UNL     1      23.350   1.400  52.919  1.00  0.00     0.020 C 
BRANCH   8   9
HETATM    9  C7  UNL     1      23.032  -0.067  53.074  1.00  0.00     0.037 A 
HETATM   10  C3  UNL     1      23.826  -0.671  54.168  1.00  0.00    -0.073 A 
HETATM   11  C4  UNL     1      22.956  -1.177  55.063  1.00  0.00     0.003 A 
HETATM   12  C5  UNL     1      21.571  -0.962  54.667  1.00  0.00    -0.003 A 
HETATM   13  C6  UNL     1      21.640  -0.318  53.516  1.00  0.00    -0.018 A 
BRANCH  10  14
HETATM   14  C2  UNL     1      25.275  -0.794  54.397  1.00  0.00     0.030 C 
HETATM   15  C1  UNL     1      26.074  -1.213  53.203  1.00  0.00     0.010 C 
ENDBRANCH  10  14
ENDBRANCH   8   9
ENDBRANCH   7   8
ENDBRANCH   3   7
ENDBRANCH   1   3
BRANCH   1  16
HETATM   16  C11 UNL     1      24.402   4.564  50.633  1.00  0.00     0.111 C 
HETATM   17  C12 UNL     1      23.128   4.925  50.535  1.00  0.00     0.181 C 
BRANCH  17  18
HETATM   18  S1  UNL     1      21.849   4.807  51.777  1.00  0.00    -0.223 SA
HETATM   19  H16 UNL     1      22.473   4.836  53.041  1.00  0.00     0.086 HD
ENDBRANCH  17  18
BRANCH  16  20
HETATM   20  N2  UNL     1      24.657   4.976  49.303  1.00  0.00    -0.342 N 
HETATM   21  H17 UNL     1      23.852   4.948  48.608  1.00  0.00     0.167 HD
BRANCH  20  22
HETATM   22  C13 UNL     1      25.958   5.422  48.873  1.00  0.00     0.033 A 
HETATM   23  C14 UNL     1      27.097   4.649  48.883  1.00  0.00     0.031 A 
HETATM   24  C15 UNL     1      28.319   5.129  48.465  1.00  0.00     0.026 A 
HETATM   25  C16 UNL     1      28.449   6.425  48.015  1.00  0.00     0.034 A 
HETATM   26 CL1  UNL     1      30.034   6.969  47.502  1.00  0.00    -0.084 Cl
HETATM   27  C17 UNL     1      27.322   7.243  47.988  1.00  0.00     0.026 A 
HETATM   28  C18 UNL     1      26.108   6.715  48.419  1.00  0.00     0.031 A 
ENDBRANCH  20  22
ENDBRANCH  16  20
ENDBRANCH   1  16
TORSDOF 9
ENDMDL
MODEL 5
REMARK VINA RESULT:      -6.9      2.539      4.958
REMARK  9 active torsions:
REMARK  status: ('A' for Active; 'I' for Inactive)
REMARK    1  A    between atoms: C2_2  and  C3_3 
REMARK    2  A    between atoms: C7_7  and  C8_8 
REMARK    3  A    between atoms: C8_8  and  C9_9 
REMARK    4  A    between atoms: C9_9  and  C10_10 
REMARK    5  A    between atoms: C10_10  and  N1_11 
REMARK    6  A    between atoms: N1_11  and  C11_12 
REMARK    7  A    between atoms: C11_12  and  N2_15 
REMARK    8  A    between atoms: C12_13  and  S1_14 
REMARK    9  A    between atoms: N2_15  and  C13_16 
ROOT
HETATM    1  N1  UNL     1      25.215   3.844  51.420  1.00  0.00    -0.322 N 
HETATM    2  H14 UNL     1      25.550   4.655  51.978  1.00  0.00     0.166 HD
ENDROOT
BRANCH   1   3
HETATM    3  C10 UNL     1      25.682   2.537  51.772  1.00  0.00     0.284 A 
HETATM    4  N3  UNL     1      26.454   2.420  52.961  1.00  0.00    -0.104 NA
HETATM    5  N4  UNL     1      27.521   2.186  52.337  1.00  0.00    -0.020 NA
HETATM    6  O1  UNL     1      26.910   2.270  51.117  1.00  0.00    -0.180 OA
BRANCH   3   7
HETATM    7  C9  UNL     1      24.662   1.420  51.557  1.00  0.00     0.093 C 
BRANCH   7   8
HETATM    8  C8  UNL     1      23.856   1.319  52.844  1.00  0.00     0.020 C 
BRANCH   8   9
HETATM    9  C7  UNL     1      23.495  -0.122  53.108  1.00  0.00     0.037 A 
HETATM   10  C3  UNL     1      24.356  -0.701  54.164  1.00  0.00    -0.073 A 
HETATM   11  C4  UNL     1      23.547  -1.121  55.155  1.00  0.00     0.003 A 
HETATM   12  C5  UNL     1      22.143  -0.867  54.866  1.00  0.00    -0.003 A 
HETATM   13  C6  UNL     1      22.137  -0.289  53.678  1.00  0.00    -0.018 A 
BRANCH  10  14
HETATM   14  C2  UNL     1      25.813  -0.874  54.278  1.00  0.00     0.030 C 
HETATM   15  C1  UNL     1      26.505  -1.285  53.017  1.00  0.00     0.010 C 
ENDBRANCH  10  14
ENDBRANCH   8   9
ENDBRANCH   7   8
ENDBRANCH   3   7
ENDBRANCH   1   3
BRANCH   1  16
HETATM   16  C11 UNL     1      24.320   4.173  50.370  1.00  0.00     0.111 C 
HETATM   17  C12 UNL     1      24.778   4.834  49.312  1.00  0.00     0.181 C 
BRANCH  17  18
HETATM   18  S1  UNL     1      26.444   5.398  49.001  1.00  0.00    -0.223 SA
HETATM   19  H16 UNL     1      27.326   4.364  49.375  1.00  0.00     0.086 HD
ENDBRANCH  17  18
BRANCH  16  20
HETATM   20  N2  UNL     1      23.014   4.139  49.826  1.00  0.00    -0.342 N 
HETATM   21  H17 UNL     1      22.745   4.892  49.124  1.00  0.00     0.167 HD
BRANCH  20  22
HETATM   22  C13 UNL     1      22.053   3.132  50.197  1.00  0.00     0.033 A 
HETATM   23  C14 UNL     1      21.821   1.970  49.496  1.00  0.00     0.031 A 
HETATM   24  C15 UNL     1      20.883   1.043  49.894  1.00  0.00     0.026 A 
HETATM   25  C16 UNL     1      20.128   1.247  51.029  1.00  0.00     0.034 A 
HETATM   26 CL1  UNL     1      18.953   0.025  51.473  1.00  0.00    -0.084 Cl
HETATM   27  C17 UNL     1      20.330   2.409  51.769  1.00  0.00     0.026 A 
HETATM   28  C18 UNL     1      21.289   3.318  51.329  1.00  0.00     0.031 A 
ENDBRANCH  20  22
ENDBRANCH  16  20
ENDBRANCH   1  16
TORSDOF 9
ENDMDL
MODEL 6
REMARK VINA RESULT:      -6.8      3.964      5.335
REMARK  9 active torsions:
REMARK  status: ('A' for Active; 'I' for Inactive)
REMARK    1  A    between atoms: C2_2  and  C3_3 
REMARK    2  A    between atoms: C7_7  and  C8_8 
REMARK    3  A    between atoms: C8_8  and  C9_9 
REMARK    4  A    between atoms: C9_9  and  C10_10 
REMARK    5  A    between atoms: C10_10  and  N1_11 
REMARK    6  A    between atoms: N1_11  and  C11_12 
REMARK    7  A    between atoms: C11_12  and  N2_15 
REMARK    8  A    between atoms: C12_13  and  S1_14 
REMARK    9  A    between atoms: N2_15  and  C13_16 
ROOT
HETATM    1  N1  UNL     1      23.422   1.460  51.625  1.00  0.00    -0.322 N 
HETATM    2  H14 UNL     1      23.093   0.947  50.783  1.00  0.00     0.166 HD
ENDROOT
BRANCH   1   3
HETATM    3  C10 UNL     1      23.838   2.821  51.472  1.00  0.00     0.284 A 
HETATM    4  N3  UNL     1      23.598   3.701  52.564  1.00  0.00    -0.104 NA
HETATM    5  N4  UNL     1      22.701   4.337  51.952  1.00  0.00    -0.020 NA
HETATM    6  O1  UNL     1      22.821   3.568  50.829  1.00  0.00    -0.180 OA
BRANCH   3   7
HETATM    7  C9  UNL     1      25.196   2.996  50.794  1.00  0.00     0.093 C 
BRANCH   7   8
HETATM    8  C8  UNL     1      24.966   3.909  49.598  1.00  0.00     0.020 C 
BRANCH   8   9
HETATM    9  C7  UNL     1      25.589   5.258  49.859  1.00  0.00     0.037 A 
HETATM   10  C3  UNL     1      26.666   5.545  48.884  1.00  0.00    -0.073 A 
HETATM   11  C4  UNL     1      26.334   6.681  48.242  1.00  0.00     0.003 A 
HETATM   12  C5  UNL     1      25.065   7.225  48.706  1.00  0.00    -0.003 A 
HETATM   13  C6  UNL     1      24.654   6.386  49.640  1.00  0.00    -0.018 A 
BRANCH  10  14
HETATM   14  C2  UNL     1      27.919   4.849  48.549  1.00  0.00     0.030 C 
HETATM   15  C1  UNL     1      29.066   5.742  48.195  1.00  0.00     0.010 C 
ENDBRANCH  10  14
ENDBRANCH   8   9
ENDBRANCH   7   8
ENDBRANCH   3   7
ENDBRANCH   1   3
BRANCH   1  16
HETATM   16  C11 UNL     1      23.403   0.706  52.826  1.00  0.00     0.111 C 
HETATM   17  C12 UNL     1      22.244   0.493  53.438  1.00  0.00     0.181 C 
BRANCH  17  18
HETATM   18  S1  UNL     1      20.618   1.045  52.946  1.00  0.00    -0.223 SA
HETATM   19  H16 UNL     1      19.843   1.198  54.115  1.00  0.00     0.086 HD
ENDBRANCH  17  18
BRANCH  16  20
HETATM   20  N2  UNL     1      24.100  -0.024  53.818  1.00  0.00    -0.342 N 
HETATM   21  H17 UNL     1      23.534  -0.473  54.599  1.00  0.00     0.167 HD
BRANCH  20  22
HETATM   22  C13 UNL     1      25.534  -0.168  53.801  1.00  0.00     0.033 A 
HETATM   23  C14 UNL     1      26.385   0.323  54.764  1.00  0.00     0.031 A 
HETATM   24  C15 UNL     1      27.751   0.162  54.694  1.00  0.00     0.026 A 
HETATM   25  C16 UNL     1      28.328  -0.508  53.636  1.00  0.00     0.034 A 
HETATM   26 CL1  UNL     1      30.072  -0.672  53.611  1.00  0.00    -0.084 Cl
HETATM   27  C17 UNL     1      27.503  -1.021  52.638  1.00  0.00     0.026 A 
HETATM   28  C18 UNL     1      26.128  -0.835  52.751  1.00  0.00     0.031 A 
ENDBRANCH  20  22
ENDBRANCH  16  20
ENDBRANCH   1  16
TORSDOF 9
ENDMDL
MODEL 7
REMARK VINA RESULT:      -6.7      3.824      6.206
REMARK  9 active torsions:
REMARK  status: ('A' for Active; 'I' for Inactive)
REMARK    1  A    between atoms: C2_2  and  C3_3 
REMARK    2  A    between atoms: C7_7  and  C8_8 
REMARK    3  A    between atoms: C8_8  and  C9_9 
REMARK    4  A    between atoms: C9_9  and  C10_10 
REMARK    5  A    between atoms: C10_10  and  N1_11 
REMARK    6  A    between atoms: N1_11  and  C11_12 
REMARK    7  A    between atoms: C11_12  and  N2_15 
REMARK    8  A    between atoms: C12_13  and  S1_14 
REMARK    9  A    between atoms: N2_15  and  C13_16 
ROOT
HETATM    1  N1  UNL     1      23.557   2.409  49.987  1.00  0.00    -0.322 N 
HETATM    2  H14 UNL     1      24.087   2.195  49.118  1.00  0.00     0.166 HD
ENDROOT
BRANCH   1   3
HETATM    3  C10 UNL     1      22.167   2.070  50.036  1.00  0.00     0.284 A 
HETATM    4  N3  UNL     1      21.698   1.109  49.098  1.00  0.00    -0.104 NA
HETATM    5  N4  UNL     1      21.046   1.959  48.438  1.00  0.00    -0.020 NA
HETATM    6  O1  UNL     1      21.418   2.987  49.259  1.00  0.00    -0.180 OA
BRANCH   3   7
HETATM    7  C9  UNL     1      21.602   1.917  51.448  1.00  0.00     0.093 C 
BRANCH   7   8
HETATM    8  C8  UNL     1      21.969   0.514  51.910  1.00  0.00     0.020 C 
BRANCH   8   9
HETATM    9  C7  UNL     1      21.598   0.342  53.362  1.00  0.00     0.037 A 
HETATM   10  C3  UNL     1      20.424  -0.549  53.509  1.00  0.00    -0.073 A 
HETATM   11  C4  UNL     1      20.803  -1.586  54.281  1.00  0.00     0.003 A 
HETATM   12  C5  UNL     1      22.196  -1.486  54.694  1.00  0.00    -0.003 A 
HETATM   13  C6  UNL     1      22.635  -0.364  54.150  1.00  0.00    -0.018 A 
BRANCH  10  14
HETATM   14  C2  UNL     1      19.047  -0.477  52.997  1.00  0.00     0.030 C 
HETATM   15  C1  UNL     1      18.181  -1.649  53.337  1.00  0.00     0.010 C 
ENDBRANCH  10  14
ENDBRANCH   8   9
ENDBRANCH   7   8
ENDBRANCH   3   7
ENDBRANCH   1   3
BRANCH   1  16
HETATM   16  C11 UNL     1      24.321   3.019  51.014  1.00  0.00     0.111 C 
HETATM   17  C12 UNL     1      24.540   4.328  50.968  1.00  0.00     0.181 C 
BRANCH  17  18
HETATM   18  S1  UNL     1      23.984   5.497  49.736  1.00  0.00    -0.223 SA
HETATM   19  H16 UNL     1      25.084   6.306  49.383  1.00  0.00     0.086 HD
ENDBRANCH  17  18
BRANCH  16  20
HETATM   20  N2  UNL     1      25.058   2.904  52.217  1.00  0.00    -0.342 N 
HETATM   21  H17 UNL     1      24.920   3.652  52.961  1.00  0.00     0.167 HD
BRANCH  20  22
HETATM   22  C13 UNL     1      25.977   1.821  52.454  1.00  0.00     0.033 A 
HETATM   23  C14 UNL     1      25.729   0.499  52.159  1.00  0.00     0.031 A 
HETATM   24  C15 UNL     1      26.643  -0.499  52.413  1.00  0.00     0.026 A 
HETATM   25  C16 UNL     1      27.864  -0.207  52.984  1.00  0.00     0.034 A 
HETATM   26 CL1  UNL     1      28.977  -1.527  53.281  1.00  0.00    -0.084 Cl
HETATM   27  C17 UNL     1      28.157   1.118  53.299  1.00  0.00     0.026 A 
HETATM   28  C18 UNL     1      27.203   2.093  53.024  1.00  0.00     0.031 A 
ENDBRANCH  20  22
ENDBRANCH  16  20
ENDBRANCH   1  16
TORSDOF 9
ENDMDL
MODEL 8
REMARK VINA RESULT:      -6.7      3.995      5.387
REMARK  9 active torsions:
REMARK  status: ('A' for Active; 'I' for Inactive)
REMARK    1  A    between atoms: C2_2  and  C3_3 
REMARK    2  A    between atoms: C7_7  and  C8_8 
REMARK    3  A    between atoms: C8_8  and  C9_9 
REMARK    4  A    between atoms: C9_9  and  C10_10 
REMARK    5  A    between atoms: C10_10  and  N1_11 
REMARK    6  A    between atoms: N1_11  and  C11_12 
REMARK    7  A    between atoms: C11_12  and  N2_15 
REMARK    8  A    between atoms: C12_13  and  S1_14 
REMARK    9  A    between atoms: N2_15  and  C13_16 
ROOT
HETATM    1  N1  UNL     1      23.420   2.500  52.494  1.00  0.00    -0.322 N 
HETATM    2  H14 UNL     1      23.246   3.278  53.160  1.00  0.00     0.166 HD
ENDROOT
BRANCH   1   3
HETATM    3  C10 UNL     1      23.707   2.823  51.129  1.00  0.00     0.284 A 
HETATM    4  N3  UNL     1      22.812   3.710  50.469  1.00  0.00    -0.104 NA
HETATM    5  N4  UNL     1      22.343   2.807  49.728  1.00  0.00    -0.020 NA
HETATM    6  O1  UNL     1      23.145   1.844  50.272  1.00  0.00    -0.180 OA
BRANCH   3   7
HETATM    7  C9  UNL     1      25.186   3.066  50.832  1.00  0.00     0.093 C 
BRANCH   7   8
HETATM    8  C8  UNL     1      25.316   4.539  50.469  1.00  0.00     0.020 C 
BRANCH   8   9
HETATM    9  C7  UNL     1      25.870   4.673  49.072  1.00  0.00     0.037 A 
HETATM   10  C3  UNL     1      25.924   6.093  48.656  1.00  0.00    -0.073 A 
HETATM   11  C4  UNL     1      27.207   6.375  48.362  1.00  0.00     0.003 A 
HETATM   12  C5  UNL     1      28.082   5.227  48.552  1.00  0.00    -0.003 A 
HETATM   13  C6  UNL     1      27.287   4.255  48.963  1.00  0.00    -0.018 A 
BRANCH  10  14
HETATM   14  C2  UNL     1      24.891   7.133  48.522  1.00  0.00     0.030 C 
HETATM   15  C1  UNL     1      23.590   6.666  47.948  1.00  0.00     0.010 C 
ENDBRANCH  10  14
ENDBRANCH   8   9
ENDBRANCH   7   8
ENDBRANCH   3   7
ENDBRANCH   1   3
BRANCH   1  16
HETATM   16  C11 UNL     1      23.346   1.202  53.063  1.00  0.00     0.111 C 
HETATM   17  C12 UNL     1      22.154   0.658  53.279  1.00  0.00     0.181 C 
BRANCH  17  18
HETATM   18  S1  UNL     1      20.544   1.355  52.940  1.00  0.00    -0.223 SA
HETATM   19  H16 UNL     1      19.614   0.295  52.909  1.00  0.00     0.086 HD
ENDBRANCH  17  18
BRANCH  16  20
HETATM   20  N2  UNL     1      24.000   0.059  53.579  1.00  0.00    -0.342 N 
HETATM   21  H17 UNL     1      23.402  -0.707  54.011  1.00  0.00     0.167 HD
BRANCH  20  22
HETATM   22  C13 UNL     1      25.433  -0.090  53.539  1.00  0.00     0.033 A 
HETATM   23  C14 UNL     1      26.102  -1.079  52.854  1.00  0.00     0.031 A 
HETATM   24  C15 UNL     1      27.476  -1.179  52.855  1.00  0.00     0.026 A 
HETATM   25  C16 UNL     1      28.246  -0.276  53.556  1.00  0.00     0.034 A 
HETATM   26 CL1  UNL     1      29.988  -0.465  53.514  1.00  0.00    -0.084 Cl
HETATM   27  C17 UNL     1      27.611   0.742  54.263  1.00  0.00     0.026 A 
HETATM   28  C18 UNL     1      26.220   0.803  54.233  1.00  0.00     0.031 A 
ENDBRANCH  20  22
ENDBRANCH  16  20
ENDBRANCH   1  16
TORSDOF 9
ENDMDL
MODEL 9
REMARK VINA RESULT:      -6.7      3.510      5.301
REMARK  9 active torsions:
REMARK  status: ('A' for Active; 'I' for Inactive)
REMARK    1  A    between atoms: C2_2  and  C3_3 
REMARK    2  A    between atoms: C7_7  and  C8_8 
REMARK    3  A    between atoms: C8_8  and  C9_9 
REMARK    4  A    between atoms: C9_9  and  C10_10 
REMARK    5  A    between atoms: C10_10  and  N1_11 
REMARK    6  A    between atoms: N1_11  and  C11_12 
REMARK    7  A    between atoms: C11_12  and  N2_15 
REMARK    8  A    between atoms: C12_13  and  S1_14 
REMARK    9  A    between atoms: N2_15  and  C13_16 
ROOT
HETATM    1  N1  UNL     1      24.477   4.199  49.788  1.00  0.00    -0.322 N 
HETATM    2  H14 UNL     1      24.228   3.873  48.833  1.00  0.00     0.166 HD
ENDROOT
BRANCH   1   3
HETATM    3  C10 UNL     1      23.456   4.807  50.586  1.00  0.00     0.284 A 
HETATM    4  N3  UNL     1      23.121   6.159  50.295  1.00  0.00    -0.104 NA
HETATM    5  N4  UNL     1      23.638   6.595  51.356  1.00  0.00    -0.020 NA
HETATM    6  O1  UNL     1      24.024   5.350  51.765  1.00  0.00    -0.180 OA
BRANCH   3   7
HETATM    7  C9  UNL     1      22.263   3.902  50.888  1.00  0.00     0.093 C 
BRANCH   7   8
HETATM    8  C8  UNL     1      22.692   2.989  52.029  1.00  0.00     0.020 C 
BRANCH   8   9
HETATM    9  C7  UNL     1      22.774   1.565  51.538  1.00  0.00     0.037 A 
HETATM   10  C3  UNL     1      21.936   0.668  52.366  1.00  0.00    -0.073 A 
HETATM   11  C4  UNL     1      21.041   0.085  51.546  1.00  0.00     0.003 A 
HETATM   12  C5  UNL     1      21.191   0.524  50.165  1.00  0.00    -0.003 A 
HETATM   13  C6  UNL     1      22.199   1.379  50.186  1.00  0.00    -0.018 A 
BRANCH  10  14
HETATM   14  C2  UNL     1      21.938   0.346  53.802  1.00  0.00     0.030 C 
HETATM   15  C1  UNL     1      21.825  -1.111  54.126  1.00  0.00     0.010 C 
ENDBRANCH  10  14
ENDBRANCH   8   9
ENDBRANCH   7   8
ENDBRANCH   3   7
ENDBRANCH   1   3
BRANCH   1  16
HETATM   16  C11 UNL     1      25.829   3.980  50.158  1.00  0.00     0.111 C 
HETATM   17  C12 UNL     1      26.767   4.799  49.696  1.00  0.00     0.181 C 
BRANCH  17  18
HETATM   18  S1  UNL     1      26.567   6.211  48.620  1.00  0.00    -0.223 SA
HETATM   19  H16 UNL     1      27.669   6.242  47.740  1.00  0.00     0.086 HD
ENDBRANCH  17  18
BRANCH  16  20
HETATM   20  N2  UNL     1      26.791   3.222  50.867  1.00  0.00    -0.342 N 
HETATM   21  H17 UNL     1      27.818   3.379  50.638  1.00  0.00     0.167 HD
BRANCH  20  22
HETATM   22  C13 UNL     1      26.421   2.257  51.870  1.00  0.00     0.033 A 
HETATM   23  C14 UNL     1      26.045   2.565  53.158  1.00  0.00     0.031 A 
HETATM   24  C15 UNL     1      25.707   1.600  54.081  1.00  0.00     0.026 A 
HETATM   25  C16 UNL     1      25.733   0.264  53.743  1.00  0.00     0.034 A 
HETATM   26 CL1  UNL     1      25.293  -0.909  54.967  1.00  0.00    -0.084 Cl
HETATM   27  C17 UNL     1      26.108  -0.094  52.450  1.00  0.00     0.026 A 
HETATM   28  C18 UNL     1      26.440   0.916  51.551  1.00  0.00     0.031 A 
ENDBRANCH  20  22
ENDBRANCH  16  20
ENDBRANCH   1  16
TORSDOF 9
ENDMDL
