MODEL 1
REMARK VINA RESULT:      -6.7      0.000      0.000
REMARK  5 active torsions:
REMARK  status: ('A' for Active; 'I' for Inactive)
REMARK    1  A    between atoms: O1_2  and  C2_3 
REMARK    2  A    between atoms: C9_12  and  N3_13 
REMARK       I    between atoms: N3_13  and  C10_14 
REMARK    3  A    between atoms: C10_14  and  C11_16 
REMARK    4  A    between atoms: C12_17  and  C13_18 
REMARK    5  A    between atoms: C13_18  and  N4_19 
ROOT
HETATM    1  C2  UNL     1      26.345   0.870  53.545  1.00  0.00     0.092 C 
HETATM    2  C3  UNL     1      27.340   1.700  53.594  1.00  0.00     0.036 C 
HETATM    3  C4  UNL     1      28.523   2.526  53.622  1.00  0.00     0.279 C 
HETATM    4  N1  UNL     1      29.634   1.740  53.519  1.00  0.00    -0.260 NA
HETATM    5  C5  UNL     1      29.273   0.404  53.455  1.00  0.00    -0.004 C 
HETATM    6  C6  UNL     1      28.976  -0.650  53.423  1.00  0.00     0.022 C 
HETATM    7  N2  UNL     1      28.612  -1.893  53.405  1.00  0.00    -0.346 N 
HETATM    8  C7  UNL     1      27.564  -2.523  52.664  1.00  0.00     0.159 C 
HETATM    9  C8  UNL     1      26.268  -1.792  52.971  1.00  0.00     0.026 C 
HETATM   10  C9  UNL     1      26.032  -0.515  53.281  1.00  0.00     0.066 C 
HETATM   11  H6  UNL     1      29.279  -2.351  54.076  1.00  0.00     0.170 HD
ENDROOT
BRANCH  10  12
HETATM   12  N3  UNL     1      24.624  -0.611  53.428  1.00  0.00    -0.321 N 
HETATM   13  C10 UNL     1      24.055  -1.044  54.655  1.00  0.00     0.245 C 
HETATM   14  O2  UNL     1      24.782  -1.351  55.646  1.00  0.00    -0.268 OA
HETATM   15  H10 UNL     1      23.830  -0.410  52.748  1.00  0.00     0.169 HD
BRANCH  13  16
HETATM   16  C11 UNL     1      22.656  -1.215  55.014  1.00  0.00     0.072 C 
HETATM   17  C12 UNL     1      21.590  -0.566  54.607  1.00  0.00     0.008 C 
BRANCH  17  18
HETATM   18  C13 UNL     1      21.229   0.530  53.706  1.00  0.00     0.299 C 
BRANCH  18  19
HETATM   19  N4  UNL     1      21.068   0.130  52.321  1.00  0.00     0.083 N 
HETATM   20  C14 UNL     1      21.960   0.846  51.443  1.00  0.00     0.309 C 
HETATM   21  C15 UNL     1      19.686   0.191  51.941  1.00  0.00     0.309 C 
ENDBRANCH  18  19
ENDBRANCH  17  18
ENDBRANCH  13  16
ENDBRANCH  10  12
BRANCH   1  22
HETATM   22  O1  UNL     1      25.252   1.731  53.852  1.00  0.00    -0.354 OA
HETATM   23  C1  UNL     1      24.968   2.656  52.799  1.00  0.00     0.210 C 
ENDBRANCH   1  22
TORSDOF 5
ENDMDL
MODEL 2
REMARK VINA RESULT:      -6.7      2.124      4.202
REMARK  5 active torsions:
REMARK  status: ('A' for Active; 'I' for Inactive)
REMARK    1  A    between atoms: O1_2  and  C2_3 
REMARK    2  A    between atoms: C9_12  and  N3_13 
REMARK       I    between atoms: N3_13  and  C10_14 
REMARK    3  A    between atoms: C10_14  and  C11_16 
REMARK    4  A    between atoms: C12_17  and  C13_18 
REMARK    5  A    between atoms: C13_18  and  N4_19 
ROOT
HETATM    1  C2  UNL     1      26.540   0.276  52.664  1.00  0.00     0.092 C 
HETATM    2  C3  UNL     1      26.793  -0.996  52.706  1.00  0.00     0.036 C 
HETATM    3  C4  UNL     1      27.184  -2.381  52.803  1.00  0.00     0.279 C 
HETATM    4  N1  UNL     1      28.487  -2.462  53.205  1.00  0.00    -0.260 NA
HETATM    5  C5  UNL     1      29.022  -1.193  53.357  1.00  0.00    -0.004 C 
HETATM    6  C6  UNL     1      29.440  -0.186  53.456  1.00  0.00     0.022 C 
HETATM    7  N2  UNL     1      29.926   1.011  53.551  1.00  0.00    -0.346 N 
HETATM    8  C7  UNL     1      29.359   2.179  54.150  1.00  0.00     0.159 C 
HETATM    9  C8  UNL     1      27.996   2.412  53.521  1.00  0.00     0.026 C 
HETATM   10  C9  UNL     1      27.099   1.557  53.025  1.00  0.00     0.066 C 
HETATM   11  H6  UNL     1      30.860   0.932  53.075  1.00  0.00     0.170 HD
ENDROOT
BRANCH  10  12
HETATM   12  N3  UNL     1      26.126   2.510  52.627  1.00  0.00    -0.321 N 
HETATM   13  C10 UNL     1      26.116   3.023  51.303  1.00  0.00     0.245 C 
HETATM   14  O2  UNL     1      26.967   2.644  50.445  1.00  0.00    -0.268 OA
HETATM   15  H10 UNL     1      25.327   2.967  53.165  1.00  0.00     0.169 HD
BRANCH  13  16
HETATM   16  C11 UNL     1      25.221   3.996  50.697  1.00  0.00     0.072 C 
HETATM   17  C12 UNL     1      23.920   3.962  50.526  1.00  0.00     0.008 C 
BRANCH  17  18
HETATM   18  C13 UNL     1      22.784   3.079  50.794  1.00  0.00     0.299 C 
BRANCH  18  19
HETATM   19  N4  UNL     1      22.696   1.938  49.904  1.00  0.00     0.083 N 
HETATM   20  C14 UNL     1      22.540   2.336  48.526  1.00  0.00     0.309 C 
HETATM   21  C15 UNL     1      21.701   1.015  50.370  1.00  0.00     0.309 C 
ENDBRANCH  18  19
ENDBRANCH  17  18
ENDBRANCH  13  16
ENDBRANCH  10  12
BRANCH   1  22
HETATM   22  O1  UNL     1      25.251   0.282  52.057  1.00  0.00    -0.354 OA
HETATM   23  C1  UNL     1      24.215  -0.106  52.965  1.00  0.00     0.210 C 
ENDBRANCH   1  22
TORSDOF 5
ENDMDL
MODEL 3
REMARK VINA RESULT:      -6.7      3.834      6.786
REMARK  5 active torsions:
REMARK  status: ('A' for Active; 'I' for Inactive)
REMARK    1  A    between atoms: O1_2  and  C2_3 
REMARK    2  A    between atoms: C9_12  and  N3_13 
REMARK       I    between atoms: N3_13  and  C10_14 
REMARK    3  A    between atoms: C10_14  and  C11_16 
REMARK    4  A    between atoms: C12_17  and  C13_18 
REMARK    5  A    between atoms: C13_18  and  N4_19 
ROOT
HETATM    1  C2  UNL     1      26.623   1.623  52.305  1.00  0.00     0.092 C 
HETATM    2  C3  UNL     1      27.180   0.519  52.696  1.00  0.00     0.036 C 
HETATM    3  C4  UNL     1      27.684  -0.758  53.141  1.00  0.00     0.279 C 
HETATM    4  N1  UNL     1      26.642  -1.557  53.516  1.00  0.00    -0.260 NA
HETATM    5  C5  UNL     1      25.443  -0.876  53.381  1.00  0.00    -0.004 C 
HETATM    6  C6  UNL     1      24.502  -0.322  53.287  1.00  0.00     0.022 C 
HETATM    7  N2  UNL     1      23.400   0.350  53.190  1.00  0.00    -0.346 N 
HETATM    8  C7  UNL     1      22.940   1.196  52.132  1.00  0.00     0.159 C 
HETATM    9  C8  UNL     1      24.007   2.247  51.876  1.00  0.00     0.026 C 
HETATM   10  C9  UNL     1      25.335   2.202  52.008  1.00  0.00     0.066 C 
HETATM   11  H6  UNL     1      22.901   0.131  54.089  1.00  0.00     0.170 HD
ENDROOT
BRANCH  10  12
HETATM   12  N3  UNL     1      25.612   3.533  51.602  1.00  0.00    -0.321 N 
HETATM   13  C10 UNL     1      25.531   3.902  50.233  1.00  0.00     0.245 C 
HETATM   14  O2  UNL     1      25.209   3.060  49.343  1.00  0.00    -0.268 OA
HETATM   15  H10 UNL     1      25.896   4.395  52.160  1.00  0.00     0.169 HD
BRANCH  13  16
HETATM   16  C11 UNL     1      25.774   5.192  49.609  1.00  0.00     0.072 C 
HETATM   17  C12 UNL     1      26.811   5.626  48.929  1.00  0.00     0.008 C 
BRANCH  17  18
HETATM   18  C13 UNL     1      28.118   5.153  48.470  1.00  0.00     0.299 C 
BRANCH  18  19
HETATM   19  N4  UNL     1      28.957   6.191  47.902  1.00  0.00     0.083 N 
HETATM   20  C14 UNL     1      30.361   5.890  48.040  1.00  0.00     0.309 C 
HETATM   21  C15 UNL     1      28.574   7.477  48.410  1.00  0.00     0.309 C 
ENDBRANCH  18  19
ENDBRANCH  17  18
ENDBRANCH  13  16
ENDBRANCH  10  12
BRANCH   1  22
HETATM   22  O1  UNL     1      27.764   2.458  52.122  1.00  0.00    -0.354 OA
HETATM   23  C1  UNL     1      28.566   2.558  53.303  1.00  0.00     0.210 C 
ENDBRANCH   1  22
TORSDOF 5
ENDMDL
MODEL 4
REMARK VINA RESULT:      -6.6      1.576      6.692
REMARK  5 active torsions:
REMARK  status: ('A' for Active; 'I' for Inactive)
REMARK    1  A    between atoms: O1_2  and  C2_3 
REMARK    2  A    between atoms: C9_12  and  N3_13 
REMARK       I    between atoms: N3_13  and  C10_14 
REMARK    3  A    between atoms: C10_14  and  C11_16 
REMARK    4  A    between atoms: C12_17  and  C13_18 
REMARK    5  A    between atoms: C13_18  and  N4_19 
ROOT
HETATM    1  C2  UNL     1      23.439  -0.121  53.079  1.00  0.00     0.092 C 
HETATM    2  C3  UNL     1      22.483  -0.818  53.611  1.00  0.00     0.036 C 
HETATM    3  C4  UNL     1      21.341  -1.510  54.155  1.00  0.00     0.279 C 
HETATM    4  N1  UNL     1      20.214  -0.764  53.954  1.00  0.00    -0.260 NA
HETATM    5  C5  UNL     1      20.535   0.428  53.326  1.00  0.00    -0.004 C 
HETATM    6  C6  UNL     1      20.801   1.376  52.845  1.00  0.00     0.022 C 
HETATM    7  N2  UNL     1      21.134   2.499  52.293  1.00  0.00    -0.346 N 
HETATM    8  C7  UNL     1      22.021   2.749  51.200  1.00  0.00     0.159 C 
HETATM    9  C8  UNL     1      23.363   2.121  51.533  1.00  0.00     0.026 C 
HETATM   10  C9  UNL     1      23.674   1.044  52.259  1.00  0.00     0.066 C 
HETATM   11  H6  UNL     1      20.591   3.210  52.844  1.00  0.00     0.170 HD
ENDROOT
BRANCH  10  12
HETATM   12  N3  UNL     1      25.084   1.116  52.114  1.00  0.00    -0.321 N 
HETATM   13  C10 UNL     1      25.850   1.990  52.930  1.00  0.00     0.245 C 
HETATM   14  O2  UNL     1      25.302   2.721  53.806  1.00  0.00    -0.268 OA
HETATM   15  H10 UNL     1      25.751   0.606  51.458  1.00  0.00     0.169 HD
BRANCH  13  16
HETATM   16  C11 UNL     1      27.286   2.218  52.942  1.00  0.00     0.072 C 
HETATM   17  C12 UNL     1      28.237   1.610  53.615  1.00  0.00     0.008 C 
BRANCH  17  18
HETATM   18  C13 UNL     1      28.396   0.528  54.587  1.00  0.00     0.299 C 
BRANCH  18  19
HETATM   19  N4  UNL     1      28.941  -0.695  54.029  1.00  0.00     0.083 N 
HETATM   20  C14 UNL     1      30.269  -0.505  53.500  1.00  0.00     0.309 C 
HETATM   21  C15 UNL     1      28.012  -1.278  53.103  1.00  0.00     0.309 C 
ENDBRANCH  18  19
ENDBRANCH  17  18
ENDBRANCH  13  16
ENDBRANCH  10  12
BRANCH   1  22
HETATM   22  O1  UNL     1      24.585  -0.857  53.498  1.00  0.00    -0.354 OA
HETATM   23  C1  UNL     1      24.726  -0.892  54.921  1.00  0.00     0.210 C 
ENDBRANCH   1  22
TORSDOF 5
ENDMDL
MODEL 5
REMARK VINA RESULT:      -6.6      3.746      6.166
REMARK  5 active torsions:
REMARK  status: ('A' for Active; 'I' for Inactive)
REMARK    1  A    between atoms: O1_2  and  C2_3 
REMARK    2  A    between atoms: C9_12  and  N3_13 
REMARK       I    between atoms: N3_13  and  C10_14 
REMARK    3  A    between atoms: C10_14  and  C11_16 
REMARK    4  A    between atoms: C12_17  and  C13_18 
REMARK    5  A    between atoms: C13_18  and  N4_19 
ROOT
HETATM    1  C2  UNL     1      26.793   1.762  52.322  1.00  0.00     0.092 C 
HETATM    2  C3  UNL     1      27.133   0.697  52.980  1.00  0.00     0.036 C 
HETATM    3  C4  UNL     1      27.391  -0.524  53.702  1.00  0.00     0.279 C 
HETATM    4  N1  UNL     1      26.213  -1.169  53.949  1.00  0.00    -0.260 NA
HETATM    5  C5  UNL     1      25.149  -0.429  53.459  1.00  0.00    -0.004 C 
HETATM    6  C6  UNL     1      24.314   0.173  53.083  1.00  0.00     0.022 C 
HETATM    7  N2  UNL     1      23.337   0.904  52.651  1.00  0.00    -0.346 N 
HETATM    8  C7  UNL     1      23.200   1.599  51.409  1.00  0.00     0.159 C 
HETATM    9  C8  UNL     1      24.405   2.509  51.245  1.00  0.00     0.026 C 
HETATM   10  C9  UNL     1      25.665   2.383  51.670  1.00  0.00     0.066 C 
HETATM   11  H6  UNL     1      22.644   0.874  53.440  1.00  0.00     0.170 HD
ENDROOT
BRANCH  10  12
HETATM   12  N3  UNL     1      26.164   3.605  51.149  1.00  0.00    -0.321 N 
HETATM   13  C10 UNL     1      26.650   3.676  49.816  1.00  0.00     0.245 C 
HETATM   14  O2  UNL     1      26.649   2.659  49.061  1.00  0.00    -0.268 OA
HETATM   15  H10 UNL     1      26.262   4.571  51.588  1.00  0.00     0.169 HD
BRANCH  13  16
HETATM   16  C11 UNL     1      27.201   4.811  49.095  1.00  0.00     0.072 C 
HETATM   17  C12 UNL     1      26.618   5.903  48.655  1.00  0.00     0.008 C 
BRANCH  17  18
HETATM   18  C13 UNL     1      25.294   6.526  48.632  1.00  0.00     0.299 C 
BRANCH  18  19
HETATM   19  N4  UNL     1      24.633   6.562  49.922  1.00  0.00     0.083 N 
HETATM   20  C14 UNL     1      23.375   5.856  49.907  1.00  0.00     0.309 C 
HETATM   21  C15 UNL     1      24.549   7.912  50.402  1.00  0.00     0.309 C 
ENDBRANCH  18  19
ENDBRANCH  17  18
ENDBRANCH  13  16
ENDBRANCH  10  12
BRANCH   1  22
HETATM   22  O1  UNL     1      28.032   2.466  52.277  1.00  0.00    -0.354 OA
HETATM   23  C1  UNL     1      28.664   2.548  53.558  1.00  0.00     0.210 C 
ENDBRANCH   1  22
TORSDOF 5
ENDMDL
MODEL 6
REMARK VINA RESULT:      -6.5      3.171      6.074
REMARK  5 active torsions:
REMARK  status: ('A' for Active; 'I' for Inactive)
REMARK    1  A    between atoms: O1_2  and  C2_3 
REMARK    2  A    between atoms: C9_12  and  N3_13 
REMARK       I    between atoms: N3_13  and  C10_14 
REMARK    3  A    between atoms: C10_14  and  C11_16 
REMARK    4  A    between atoms: C12_17  and  C13_18 
REMARK    5  A    between atoms: C13_18  and  N4_19 
ROOT
HETATM    1  C2  UNL     1      23.234   0.339  52.879  1.00  0.00     0.092 C 
HETATM    2  C3  UNL     1      22.536  -0.417  53.668  1.00  0.00     0.036 C 
HETATM    3  C4  UNL     1      21.860  -1.266  54.619  1.00  0.00     0.279 C 
HETATM    4  N1  UNL     1      22.750  -1.703  55.557  1.00  0.00    -0.260 NA
HETATM    5  C5  UNL     1      24.019  -1.221  55.276  1.00  0.00    -0.004 C 
HETATM    6  C6  UNL     1      25.020  -0.849  55.035  1.00  0.00     0.022 C 
HETATM    7  N2  UNL     1      26.202  -0.418  54.727  1.00  0.00    -0.346 N 
HETATM    8  C7  UNL     1      26.615   0.887  54.310  1.00  0.00     0.159 C 
HETATM    9  C8  UNL     1      25.781   1.278  53.102  1.00  0.00     0.026 C 
HETATM   10  C9  UNL     1      24.532   0.959  52.755  1.00  0.00     0.066 C 
HETATM   11  H6  UNL     1      26.810  -1.265  54.854  1.00  0.00     0.170 HD
ENDROOT
BRANCH  10  12
HETATM   12  N3  UNL     1      24.484   1.680  51.534  1.00  0.00    -0.321 N 
HETATM   13  C10 UNL     1      24.188   3.068  51.526  1.00  0.00     0.245 C 
HETATM   14  O2  UNL     1      23.964   3.699  52.601  1.00  0.00    -0.268 OA
HETATM   15  H10 UNL     1      24.635   1.368  50.526  1.00  0.00     0.169 HD
BRANCH  13  16
HETATM   16  C11 UNL     1      24.086   3.984  50.401  1.00  0.00     0.072 C 
HETATM   17  C12 UNL     1      25.016   4.454  49.601  1.00  0.00     0.008 C 
BRANCH  17  18
HETATM   18  C13 UNL     1      26.462   4.356  49.396  1.00  0.00     0.299 C 
BRANCH  18  19
HETATM   19  N4  UNL     1      27.013   5.403  48.558  1.00  0.00     0.083 N 
HETATM   20  C14 UNL     1      28.444   5.288  48.417  1.00  0.00     0.309 C 
HETATM   21  C15 UNL     1      26.563   6.690  49.005  1.00  0.00     0.309 C 
ENDBRANCH  18  19
ENDBRANCH  17  18
ENDBRANCH  13  16
ENDBRANCH  10  12
BRANCH   1  22
HETATM   22  O1  UNL     1      22.297   0.591  51.835  1.00  0.00    -0.354 OA
HETATM   23  C1  UNL     1      21.048   1.086  52.327  1.00  0.00     0.210 C 
ENDBRANCH   1  22
TORSDOF 5
ENDMDL
MODEL 7
REMARK VINA RESULT:      -6.4      2.642      5.084
REMARK  5 active torsions:
REMARK  status: ('A' for Active; 'I' for Inactive)
REMARK    1  A    between atoms: O1_2  and  C2_3 
REMARK    2  A    between atoms: C9_12  and  N3_13 
REMARK       I    between atoms: N3_13  and  C10_14 
REMARK    3  A    between atoms: C10_14  and  C11_16 
REMARK    4  A    between atoms: C12_17  and  C13_18 
REMARK    5  A    between atoms: C13_18  and  N4_19 
ROOT
HETATM    1  C2  UNL     1      23.197   0.360  53.035  1.00  0.00     0.092 C 
HETATM    2  C3  UNL     1      22.433  -0.398  53.758  1.00  0.00     0.036 C 
HETATM    3  C4  UNL     1      21.679  -1.257  54.639  1.00  0.00     0.279 C 
HETATM    4  N1  UNL     1      22.511  -1.788  55.583  1.00  0.00    -0.260 NA
HETATM    5  C5  UNL     1      23.812  -1.360  55.371  1.00  0.00    -0.004 C 
HETATM    6  C6  UNL     1      24.840  -1.030  55.184  1.00  0.00     0.022 C 
HETATM    7  N2  UNL     1      26.052  -0.647  54.939  1.00  0.00    -0.346 N 
HETATM    8  C7  UNL     1      26.546   0.654  54.607  1.00  0.00     0.159 C 
HETATM    9  C8  UNL     1      25.779   1.150  53.393  1.00  0.00     0.026 C 
HETATM   10  C9  UNL     1      24.529   0.916  52.988  1.00  0.00     0.066 C 
HETATM   11  H6  UNL     1      26.611  -1.530  55.042  1.00  0.00     0.170 HD
ENDROOT
BRANCH  10  12
HETATM   12  N3  UNL     1      24.562   1.699  51.805  1.00  0.00    -0.321 N 
HETATM   13  C10 UNL     1      24.318   3.097  51.858  1.00  0.00     0.245 C 
HETATM   14  O2  UNL     1      24.069   3.680  52.955  1.00  0.00    -0.268 OA
HETATM   15  H10 UNL     1      24.747   1.434  50.790  1.00  0.00     0.169 HD
BRANCH  13  16
HETATM   16  C11 UNL     1      24.301   4.072  50.780  1.00  0.00     0.072 C 
HETATM   17  C12 UNL     1      23.852   3.971  49.550  1.00  0.00     0.008 C 
BRANCH  17  18
HETATM   18  C13 UNL     1      23.210   2.988  48.676  1.00  0.00     0.299 C 
BRANCH  18  19
HETATM   19  N4  UNL     1      21.904   2.552  49.133  1.00  0.00     0.083 N 
HETATM   20  C14 UNL     1      21.527   1.281  48.566  1.00  0.00     0.309 C 
HETATM   21  C15 UNL     1      20.937   3.595  48.946  1.00  0.00     0.309 C 
ENDBRANCH  18  19
ENDBRANCH  17  18
ENDBRANCH  13  16
ENDBRANCH  10  12
BRANCH   1  22
HETATM   22  O1  UNL     1      22.313   0.714  51.974  1.00  0.00    -0.354 OA
HETATM   23  C1  UNL     1      21.137   1.382  52.440  1.00  0.00     0.210 C 
ENDBRANCH   1  22
TORSDOF 5
ENDMDL
MODEL 8
REMARK VINA RESULT:      -6.4      2.003      6.425
REMARK  5 active torsions:
REMARK  status: ('A' for Active; 'I' for Inactive)
REMARK    1  A    between atoms: O1_2  and  C2_3 
REMARK    2  A    between atoms: C9_12  and  N3_13 
REMARK       I    between atoms: N3_13  and  C10_14 
REMARK    3  A    between atoms: C10_14  and  C11_16 
REMARK    4  A    between atoms: C12_17  and  C13_18 
REMARK    5  A    between atoms: C13_18  and  N4_19 
ROOT
HETATM    1  C2  UNL     1      23.250   2.745  52.052  1.00  0.00     0.092 C 
HETATM    2  C3  UNL     1      22.142   3.414  51.980  1.00  0.00     0.036 C 
HETATM    3  C4  UNL     1      20.854   4.064  51.962  1.00  0.00     0.279 C 
HETATM    4  N1  UNL     1      19.903   3.212  52.445  1.00  0.00    -0.260 NA
HETATM    5  C5  UNL     1      20.472   1.989  52.764  1.00  0.00    -0.004 C 
HETATM    6  C6  UNL     1      20.930   1.021  52.996  1.00  0.00     0.022 C 
HETATM    7  N2  UNL     1      21.480  -0.124  53.248  1.00  0.00    -0.346 N 
HETATM    8  C7  UNL     1      22.707  -0.415  53.922  1.00  0.00     0.159 C 
HETATM    9  C8  UNL     1      23.818   0.353  53.225  1.00  0.00     0.026 C 
HETATM   10  C9  UNL     1      23.807   1.523  52.581  1.00  0.00     0.066 C 
HETATM   11  H6  UNL     1      20.805  -0.814  52.834  1.00  0.00     0.170 HD
ENDROOT
BRANCH  10  12
HETATM   12  N3  UNL     1      25.178   1.551  52.217  1.00  0.00    -0.321 N 
HETATM   13  C10 UNL     1      26.161   1.997  53.139  1.00  0.00     0.245 C 
HETATM   14  O2  UNL     1      25.845   2.375  54.306  1.00  0.00    -0.268 OA
HETATM   15  H10 UNL     1      25.672   1.286  51.310  1.00  0.00     0.169 HD
BRANCH  13  16
HETATM   16  C11 UNL     1      27.602   2.107  52.971  1.00  0.00     0.072 C 
HETATM   17  C12 UNL     1      28.562   1.273  53.297  1.00  0.00     0.008 C 
BRANCH  17  18
HETATM   18  C13 UNL     1      28.732  -0.041  53.919  1.00  0.00     0.299 C 
BRANCH  18  19
HETATM   19  N4  UNL     1      28.518  -1.156  53.016  1.00  0.00     0.083 N 
HETATM   20  C14 UNL     1      27.127  -1.526  52.930  1.00  0.00     0.309 C 
HETATM   21  C15 UNL     1      29.401  -2.239  53.343  1.00  0.00     0.309 C 
ENDBRANCH  18  19
ENDBRANCH  17  18
ENDBRANCH  13  16
ENDBRANCH  10  12
BRANCH   1  22
HETATM   22  O1  UNL     1      24.143   3.613  51.359  1.00  0.00    -0.354 OA
HETATM   23  C1  UNL     1      23.851   3.699  49.961  1.00  0.00     0.210 C 
ENDBRANCH   1  22
TORSDOF 5
ENDMDL
MODEL 9
REMARK VINA RESULT:      -6.4      3.053      5.677
REMARK  5 active torsions:
REMARK  status: ('A' for Active; 'I' for Inactive)
REMARK    1  A    between atoms: O1_2  and  C2_3 
REMARK    2  A    between atoms: C9_12  and  N3_13 
REMARK       I    between atoms: N3_13  and  C10_14 
REMARK    3  A    between atoms: C10_14  and  C11_16 
REMARK    4  A    between atoms: C12_17  and  C13_18 
REMARK    5  A    between atoms: C13_18  and  N4_19 
ROOT
HETATM    1  C2  UNL     1      23.814   1.541  52.900  1.00  0.00     0.092 C 
HETATM    2  C3  UNL     1      22.828   0.784  53.270  1.00  0.00     0.036 C 
HETATM    3  C4  UNL     1      21.812  -0.116  53.758  1.00  0.00     0.279 C 
HETATM    4  N1  UNL     1      22.387  -1.073  54.545  1.00  0.00    -0.260 NA
HETATM    5  C5  UNL     1      23.759  -0.892  54.594  1.00  0.00    -0.004 C 
HETATM    6  C6  UNL     1      24.846  -0.751  54.612  1.00  0.00     0.022 C 
HETATM    7  N2  UNL     1      26.130  -0.583  54.608  1.00  0.00    -0.346 N 
HETATM    8  C7  UNL     1      26.891   0.619  54.759  1.00  0.00     0.159 C 
HETATM    9  C8  UNL     1      26.412   1.610  53.712  1.00  0.00     0.026 C 
HETATM   10  C9  UNL     1      25.215   1.785  53.148  1.00  0.00     0.066 C 
HETATM   11  H6  UNL     1      26.501  -1.555  54.465  1.00  0.00     0.170 HD
ENDROOT
BRANCH  10  12
HETATM   12  N3  UNL     1      25.562   2.861  52.291  1.00  0.00    -0.321 N 
HETATM   13  C10 UNL     1      26.271   2.622  51.084  1.00  0.00     0.245 C 
HETATM   14  O2  UNL     1      26.608   1.452  50.740  1.00  0.00    -0.268 OA
HETATM   15  H10 UNL     1      25.388   3.909  52.371  1.00  0.00     0.169 HD
BRANCH  13  16
HETATM   16  C11 UNL     1      26.722   3.569  50.077  1.00  0.00     0.072 C 
HETATM   17  C12 UNL     1      26.084   4.557  49.493  1.00  0.00     0.008 C 
BRANCH  17  18
HETATM   18  C13 UNL     1      24.764   5.190  49.502  1.00  0.00     0.299 C 
BRANCH  18  19
HETATM   19  N4  UNL     1      24.469   5.929  50.715  1.00  0.00     0.083 N 
HETATM   20  C14 UNL     1      23.087   5.802  51.105  1.00  0.00     0.309 C 
HETATM   21  C15 UNL     1      24.931   7.283  50.598  1.00  0.00     0.309 C 
ENDBRANCH  18  19
ENDBRANCH  17  18
ENDBRANCH  13  16
ENDBRANCH  10  12
BRANCH   1  22
HETATM   22  O1  UNL     1      23.173   2.379  51.941  1.00  0.00    -0.354 OA
HETATM   23  C1  UNL     1      22.721   1.655  50.793  1.00  0.00     0.210 C 
ENDBRANCH   1  22
TORSDOF 5
ENDMDL
