MODEL 1
REMARK VINA RESULT:      -8.7      0.000      0.000
REMARK  7 active torsions:
REMARK  status: ('A' for Active; 'I' for Inactive)
REMARK    1  A    between atoms: C6_7  and  N2_8 
REMARK       I    between atoms: N2_8  and  C7_9 
REMARK       I    between atoms: C7_9  and  N3_11 
REMARK    2  A    between atoms: N3_11  and  C8_12 
REMARK    3  A    between atoms: N3_11  and  C15_20 
REMARK    4  A    between atoms: C8_12  and  C9_13 
REMARK    5  A    between atoms: C12_16  and  O2_17 
REMARK    6  A    between atoms: C15_20  and  C16_21 
REMARK    7  A    between atoms: C21_27  and  O3_28 
ROOT
HETATM    1  N2  UNL     1      26.391   1.838  52.730  1.00  0.00    -0.307 N 
HETATM    2  C7  UNL     1      25.955   2.519  51.569  1.00  0.00     0.323 C 
HETATM    3  O1  UNL     1      26.779   2.526  50.598  1.00  0.00    -0.247 OA
HETATM    4  N3  UNL     1      24.695   3.170  51.439  1.00  0.00    -0.325 N 
HETATM    5  H7  UNL     1      25.641   1.893  53.476  1.00  0.00     0.170 HD
ENDROOT
BRANCH   4   6
HETATM    6  C8  UNL     1      23.634   3.277  52.394  1.00  0.00     0.166 C 
BRANCH   6   7
HETATM    7  C9  UNL     1      22.477   2.382  52.144  1.00  0.00    -0.040 A 
HETATM    8  C10 UNL     1      21.163   2.856  52.218  1.00  0.00     0.011 A 
HETATM    9  C11 UNL     1      20.048   2.076  51.997  1.00  0.00     0.037 A 
HETATM   10  C12 UNL     1      20.197   0.762  51.686  1.00  0.00     0.065 A 
HETATM   11  C13 UNL     1      21.454   0.246  51.600  1.00  0.00     0.037 A 
HETATM   12  C14 UNL     1      22.545   1.041  51.824  1.00  0.00     0.011 A 
BRANCH  10  13
HETATM   13  O2  UNL     1      19.126  -0.077  51.451  1.00  0.00    -0.361 OA
HETATM   14  H12 UNL     1      18.898  -0.898  51.965  1.00  0.00     0.217 HD
ENDBRANCH  10  13
ENDBRANCH   6   7
ENDBRANCH   4   6
BRANCH   4  15
HETATM   15  C15 UNL     1      24.407   3.836  50.169  1.00  0.00     0.169 C 
BRANCH  15  16
HETATM   16  C16 UNL     1      24.180   5.284  50.320  1.00  0.00    -0.005 A 
HETATM   17  C17 UNL     1      22.998   5.936  50.562  1.00  0.00     0.012 A 
HETATM   18  C18 UNL     1      22.972   7.306  50.674  1.00  0.00     0.002 A 
HETATM   19  C19 UNL     1      24.103   8.080  50.554  1.00  0.00     0.026 A 
HETATM   20  C20 UNL     1      25.306   7.416  50.307  1.00  0.00     0.067 A 
HETATM   21 CL1  UNL     1      26.732   8.430  50.159  1.00  0.00    -0.081 Cl
HETATM   22  C21 UNL     1      25.344   6.024  50.191  1.00  0.00     0.095 A 
BRANCH  22  23
HETATM   23  O3  UNL     1      26.615   5.523  49.948  1.00  0.00    -0.358 OA
HETATM   24  H20 UNL     1      27.446   6.094  49.906  1.00  0.00     0.217 HD
ENDBRANCH  22  23
ENDBRANCH  15  16
ENDBRANCH   4  15
BRANCH   1  25
HETATM   25  C6  UNL     1      27.562   1.156  53.037  1.00  0.00     0.061 A 
HETATM   26  C2  UNL     1      27.591  -0.295  52.949  1.00  0.00    -0.016 A 
HETATM   27  C1  UNL     1      26.535  -0.995  52.582  1.00  0.00     0.026 C 
HETATM   28  C3  UNL     1      28.790  -1.059  53.258  1.00  0.00     0.030 A 
HETATM   29  C4  UNL     1      29.908  -0.460  53.634  1.00  0.00     0.088 A 
HETATM   30  N1  UNL     1      29.911   0.958  53.731  1.00  0.00    -0.373 N 
HETATM   31  C5  UNL     1      28.717   1.663  53.419  1.00  0.00     0.117 A 
HETATM   32  H5  UNL     1      30.784   1.421  54.025  1.00  0.00     0.164 HD
ENDBRANCH   1  25
TORSDOF 7
ENDMDL
MODEL 2
REMARK VINA RESULT:      -8.6      3.540      6.354
REMARK  7 active torsions:
REMARK  status: ('A' for Active; 'I' for Inactive)
REMARK    1  A    between atoms: C6_7  and  N2_8 
REMARK       I    between atoms: N2_8  and  C7_9 
REMARK       I    between atoms: C7_9  and  N3_11 
REMARK    2  A    between atoms: N3_11  and  C8_12 
REMARK    3  A    between atoms: N3_11  and  C15_20 
REMARK    4  A    between atoms: C8_12  and  C9_13 
REMARK    5  A    between atoms: C12_16  and  O2_17 
REMARK    6  A    between atoms: C15_20  and  C16_21 
REMARK    7  A    between atoms: C21_27  and  O3_28 
ROOT
HETATM    1  N2  UNL     1      25.470  -0.384  52.503  1.00  0.00    -0.307 N 
HETATM    2  C7  UNL     1      24.304  -0.202  53.285  1.00  0.00     0.323 C 
HETATM    3  O1  UNL     1      24.332  -0.740  54.439  1.00  0.00    -0.247 OA
HETATM    4  N3  UNL     1      23.152   0.520  52.863  1.00  0.00    -0.325 N 
HETATM    5  H7  UNL     1      25.347   0.095  51.567  1.00  0.00     0.170 HD
ENDROOT
BRANCH   4   6
HETATM    6  C8  UNL     1      22.918   1.197  51.623  1.00  0.00     0.166 C 
BRANCH   6   7
HETATM    7  C9  UNL     1      23.361   2.613  51.594  1.00  0.00    -0.040 A 
HETATM    8  C10 UNL     1      24.456   3.015  50.821  1.00  0.00     0.011 A 
HETATM    9  C11 UNL     1      24.917   4.313  50.751  1.00  0.00     0.037 A 
HETATM   10  C12 UNL     1      24.294   5.287  51.465  1.00  0.00     0.065 A 
HETATM   11  C13 UNL     1      23.223   4.953  52.235  1.00  0.00     0.037 A 
HETATM   12  C14 UNL     1      22.785   3.658  52.288  1.00  0.00     0.011 A 
BRANCH  10  13
HETATM   13  O2  UNL     1      24.700   6.607  51.443  1.00  0.00    -0.361 OA
HETATM   14  H12 UNL     1      24.452   7.310  52.101  1.00  0.00     0.217 HD
ENDBRANCH  10  13
ENDBRANCH   6   7
ENDBRANCH   4   6
BRANCH   4  15
HETATM   15  C15 UNL     1      22.028   0.603  53.795  1.00  0.00     0.169 C 
BRANCH  15  16
HETATM   16  C16 UNL     1      20.734   0.295  53.161  1.00  0.00    -0.005 A 
HETATM   17  C17 UNL     1      20.106   0.969  52.145  1.00  0.00     0.012 A 
HETATM   18  C18 UNL     1      18.890   0.536  51.673  1.00  0.00     0.002 A 
HETATM   19  C19 UNL     1      18.251  -0.572  52.182  1.00  0.00     0.026 A 
HETATM   20  C20 UNL     1      18.890  -1.258  53.216  1.00  0.00     0.067 A 
HETATM   21 CL1  UNL     1      18.051  -2.666  53.844  1.00  0.00    -0.081 Cl
HETATM   22  C21 UNL     1      20.127  -0.826  53.704  1.00  0.00     0.095 A 
BRANCH  22  23
HETATM   23  O3  UNL     1      20.624  -1.617  54.729  1.00  0.00    -0.358 OA
HETATM   24  H20 UNL     1      20.589  -1.361  55.704  1.00  0.00     0.217 HD
ENDBRANCH  22  23
ENDBRANCH  15  16
ENDBRANCH   4  15
BRANCH   1  25
HETATM   25  C6  UNL     1      26.669  -1.043  52.741  1.00  0.00     0.061 A 
HETATM   26  C2  UNL     1      27.839  -0.281  53.150  1.00  0.00    -0.016 A 
HETATM   27  C1  UNL     1      27.801   1.029  53.305  1.00  0.00     0.026 C 
HETATM   28  C3  UNL     1      29.119  -0.920  53.412  1.00  0.00     0.030 A 
HETATM   29  C4  UNL     1      29.270  -2.229  53.289  1.00  0.00     0.088 A 
HETATM   30  N1  UNL     1      28.146  -3.001  52.891  1.00  0.00    -0.373 N 
HETATM   31  C5  UNL     1      26.916  -2.334  52.645  1.00  0.00     0.117 A 
HETATM   32  H5  UNL     1      28.269  -4.021  52.795  1.00  0.00     0.164 HD
ENDBRANCH   1  25
TORSDOF 7
ENDMDL
MODEL 3
REMARK VINA RESULT:      -8.5      1.787      2.403
REMARK  7 active torsions:
REMARK  status: ('A' for Active; 'I' for Inactive)
REMARK    1  A    between atoms: C6_7  and  N2_8 
REMARK       I    between atoms: N2_8  and  C7_9 
REMARK       I    between atoms: C7_9  and  N3_11 
REMARK    2  A    between atoms: N3_11  and  C8_12 
REMARK    3  A    between atoms: N3_11  and  C15_20 
REMARK    4  A    between atoms: C8_12  and  C9_13 
REMARK    5  A    between atoms: C12_16  and  O2_17 
REMARK    6  A    between atoms: C15_20  and  C16_21 
REMARK    7  A    between atoms: C21_27  and  O3_28 
ROOT
HETATM    1  N2  UNL     1      25.830   0.701  52.555  1.00  0.00    -0.307 N 
HETATM    2  C7  UNL     1      24.916   1.756  52.793  1.00  0.00     0.323 C 
HETATM    3  O1  UNL     1      25.368   2.724  53.487  1.00  0.00    -0.247 OA
HETATM    4  N3  UNL     1      23.574   1.784  52.317  1.00  0.00    -0.325 N 
HETATM    5  H7  UNL     1      25.361  -0.052  51.977  1.00  0.00     0.170 HD
ENDROOT
BRANCH   4   6
HETATM    6  C8  UNL     1      22.878   0.815  51.527  1.00  0.00     0.166 C 
BRANCH   6   7
HETATM    7  C9  UNL     1      21.616   0.313  52.127  1.00  0.00    -0.040 A 
HETATM    8  C10 UNL     1      21.622  -0.437  53.309  1.00  0.00     0.011 A 
HETATM    9  C11 UNL     1      20.487  -0.931  53.915  1.00  0.00     0.037 A 
HETATM   10  C12 UNL     1      19.270  -0.694  53.358  1.00  0.00     0.065 A 
HETATM   11  C13 UNL     1      19.205   0.029  52.207  1.00  0.00     0.037 A 
HETATM   12  C14 UNL     1      20.346   0.509  51.625  1.00  0.00     0.011 A 
BRANCH  10  13
HETATM   13  O2  UNL     1      18.092  -1.158  53.910  1.00  0.00    -0.361 OA
HETATM   14  H12 UNL     1      17.615  -1.994  53.660  1.00  0.00     0.217 HD
ENDBRANCH  10  13
ENDBRANCH   6   7
ENDBRANCH   4   6
BRANCH   4  15
HETATM   15  C15 UNL     1      22.761   2.949  52.663  1.00  0.00     0.169 C 
BRANCH  15  16
HETATM   16  C16 UNL     1      22.625   3.905  51.550  1.00  0.00    -0.005 A 
HETATM   17  C17 UNL     1      21.970   3.730  50.358  1.00  0.00     0.012 A 
HETATM   18  C18 UNL     1      21.946   4.739  49.425  1.00  0.00     0.002 A 
HETATM   19  C19 UNL     1      22.564   5.952  49.631  1.00  0.00     0.026 A 
HETATM   20  C20 UNL     1      23.231   6.130  50.845  1.00  0.00     0.067 A 
HETATM   21 CL1  UNL     1      24.009   7.687  51.079  1.00  0.00    -0.081 Cl
HETATM   22  C21 UNL     1      23.262   5.110  51.800  1.00  0.00     0.095 A 
BRANCH  22  23
HETATM   23  O3  UNL     1      23.964   5.447  52.947  1.00  0.00    -0.358 OA
HETATM   24  H20 UNL     1      24.630   6.204  52.997  1.00  0.00     0.217 HD
ENDBRANCH  22  23
ENDBRANCH  15  16
ENDBRANCH   4  15
BRANCH   1  25
HETATM   25  C6  UNL     1      27.153   0.500  52.931  1.00  0.00     0.061 A 
HETATM   26  C2  UNL     1      27.697  -0.849  52.946  1.00  0.00    -0.016 A 
HETATM   27  C1  UNL     1      26.973  -1.899  52.611  1.00  0.00     0.026 C 
HETATM   28  C3  UNL     1      29.074  -1.116  53.331  1.00  0.00     0.030 A 
HETATM   29  C4  UNL     1      29.891  -0.137  53.684  1.00  0.00     0.088 A 
HETATM   30  N1  UNL     1      29.388   1.192  53.679  1.00  0.00    -0.373 N 
HETATM   31  C5  UNL     1      28.037   1.406  53.297  1.00  0.00     0.117 A 
HETATM   32  H5  UNL     1      30.028   1.952  53.956  1.00  0.00     0.164 HD
ENDBRANCH   1  25
TORSDOF 7
ENDMDL
MODEL 4
REMARK VINA RESULT:      -8.4      2.948      5.958
REMARK  7 active torsions:
REMARK  status: ('A' for Active; 'I' for Inactive)
REMARK    1  A    between atoms: C6_7  and  N2_8 
REMARK       I    between atoms: N2_8  and  C7_9 
REMARK       I    between atoms: C7_9  and  N3_11 
REMARK    2  A    between atoms: N3_11  and  C8_12 
REMARK    3  A    between atoms: N3_11  and  C15_20 
REMARK    4  A    between atoms: C8_12  and  C9_13 
REMARK    5  A    between atoms: C12_16  and  O2_17 
REMARK    6  A    between atoms: C15_20  and  C16_21 
REMARK    7  A    between atoms: C21_27  and  O3_28 
ROOT
HETATM    1  N2  UNL     1      26.062   0.945  51.947  1.00  0.00    -0.307 N 
HETATM    2  C7  UNL     1      24.833   1.456  52.430  1.00  0.00     0.323 C 
HETATM    3  O1  UNL     1      24.601   1.244  53.664  1.00  0.00    -0.247 OA
HETATM    4  N3  UNL     1      23.885   2.165  51.638  1.00  0.00    -0.325 N 
HETATM    5  H7  UNL     1      26.158   1.169  50.916  1.00  0.00     0.170 HD
ENDROOT
BRANCH   4   6
HETATM    6  C8  UNL     1      23.951   2.511  50.251  1.00  0.00     0.166 C 
BRANCH   6   7
HETATM    7  C9  UNL     1      24.884   3.620  49.929  1.00  0.00    -0.040 A 
HETATM    8  C10 UNL     1      26.168   3.366  49.433  1.00  0.00     0.011 A 
HETATM    9  C11 UNL     1      27.081   4.349  49.116  1.00  0.00     0.037 A 
HETATM   10  C12 UNL     1      26.746   5.656  49.282  1.00  0.00     0.065 A 
HETATM   11  C13 UNL     1      25.510   5.961  49.762  1.00  0.00     0.037 A 
HETATM   12  C14 UNL     1      24.622   4.967  50.070  1.00  0.00     0.011 A 
BRANCH  10  13
HETATM   13  O2  UNL     1      27.609   6.692  48.985  1.00  0.00    -0.361 OA
HETATM   14  H12 UNL     1      28.581   6.728  49.197  1.00  0.00     0.217 HD
ENDBRANCH  10  13
ENDBRANCH   6   7
ENDBRANCH   4   6
BRANCH   4  15
HETATM   15  C15 UNL     1      22.660   2.617  52.296  1.00  0.00     0.169 C 
BRANCH  15  16
HETATM   16  C16 UNL     1      21.471   1.855  51.878  1.00  0.00    -0.005 A 
HETATM   17  C17 UNL     1      20.710   2.025  50.749  1.00  0.00     0.012 A 
HETATM   18  C18 UNL     1      19.624   1.215  50.517  1.00  0.00     0.002 A 
HETATM   19  C19 UNL     1      19.248   0.214  51.384  1.00  0.00     0.026 A 
HETATM   20  C20 UNL     1      20.022   0.042  52.533  1.00  0.00     0.067 A 
HETATM   21 CL1  UNL     1      19.519  -1.242  53.619  1.00  0.00    -0.081 Cl
HETATM   22  C21 UNL     1      21.129   0.860  52.779  1.00  0.00     0.095 A 
BRANCH  22  23
HETATM   23  O3  UNL     1      21.788   0.558  53.961  1.00  0.00    -0.358 OA
HETATM   24  H20 UNL     1      22.781   0.680  54.099  1.00  0.00     0.217 HD
ENDBRANCH  22  23
ENDBRANCH  15  16
ENDBRANCH   4  15
BRANCH   1  25
HETATM   25  C6  UNL     1      27.093   0.242  52.557  1.00  0.00     0.061 A 
HETATM   26  C2  UNL     1      28.180   0.970  53.192  1.00  0.00    -0.016 A 
HETATM   27  C1  UNL     1      28.221   2.288  53.211  1.00  0.00     0.026 C 
HETATM   28  C3  UNL     1      29.285   0.285  53.845  1.00  0.00     0.030 A 
HETATM   29  C4  UNL     1      29.344  -1.036  53.887  1.00  0.00     0.088 A 
HETATM   30  N1  UNL     1      28.297  -1.776  53.274  1.00  0.00    -0.373 N 
HETATM   31  C5  UNL     1      27.239  -1.065  52.648  1.00  0.00     0.117 A 
HETATM   32  H5  UNL     1      28.349  -2.806  53.308  1.00  0.00     0.164 HD
ENDBRANCH   1  25
TORSDOF 7
ENDMDL
MODEL 5
REMARK VINA RESULT:      -8.3      2.556      5.440
REMARK  7 active torsions:
REMARK  status: ('A' for Active; 'I' for Inactive)
REMARK    1  A    between atoms: C6_7  and  N2_8 
REMARK       I    between atoms: N2_8  and  C7_9 
REMARK       I    between atoms: C7_9  and  N3_11 
REMARK    2  A    between atoms: N3_11  and  C8_12 
REMARK    3  A    between atoms: N3_11  and  C15_20 
REMARK    4  A    between atoms: C8_12  and  C9_13 
REMARK    5  A    between atoms: C12_16  and  O2_17 
REMARK    6  A    between atoms: C15_20  and  C16_21 
REMARK    7  A    between atoms: C21_27  and  O3_28 
ROOT
HETATM    1  N2  UNL     1      26.584   1.782  52.031  1.00  0.00    -0.307 N 
HETATM    2  C7  UNL     1      25.448   2.495  52.485  1.00  0.00     0.323 C 
HETATM    3  O1  UNL     1      25.315   2.561  53.750  1.00  0.00    -0.247 OA
HETATM    4  N3  UNL     1      24.490   3.114  51.634  1.00  0.00    -0.325 N 
HETATM    5  H7  UNL     1      26.602   1.781  50.972  1.00  0.00     0.170 HD
ENDROOT
BRANCH   4   6
HETATM    6  C8  UNL     1      24.454   3.164  50.204  1.00  0.00     0.166 C 
BRANCH   6   7
HETATM    7  C9  UNL     1      25.349   4.178  49.593  1.00  0.00    -0.040 A 
HETATM    8  C10 UNL     1      26.686   3.885  49.301  1.00  0.00     0.011 A 
HETATM    9  C11 UNL     1      27.567   4.781  48.735  1.00  0.00     0.037 A 
HETATM   10  C12 UNL     1      27.145   6.036  48.429  1.00  0.00     0.065 A 
HETATM   11  C13 UNL     1      25.854   6.377  48.692  1.00  0.00     0.037 A 
HETATM   12  C14 UNL     1      24.999   5.469  49.255  1.00  0.00     0.011 A 
BRANCH  10  13
HETATM   13  O2  UNL     1      27.972   6.985  47.861  1.00  0.00    -0.361 OA
HETATM   14  H12 UNL     1      28.946   6.885  47.683  1.00  0.00     0.217 HD
ENDBRANCH  10  13
ENDBRANCH   6   7
ENDBRANCH   4   6
BRANCH   4  15
HETATM   15  C15 UNL     1      23.368   3.805  52.271  1.00  0.00     0.169 C 
BRANCH  15  16
HETATM   16  C16 UNL     1      22.121   3.021  52.240  1.00  0.00    -0.005 A 
HETATM   17  C17 UNL     1      21.936   1.709  52.592  1.00  0.00     0.012 A 
HETATM   18  C18 UNL     1      20.691   1.135  52.499  1.00  0.00     0.002 A 
HETATM   19  C19 UNL     1      19.587   1.829  52.057  1.00  0.00     0.026 A 
HETATM   20  C20 UNL     1      19.776   3.165  51.698  1.00  0.00     0.067 A 
HETATM   21 CL1  UNL     1      18.350   4.024  51.139  1.00  0.00    -0.081 Cl
HETATM   22  C21 UNL     1      21.038   3.758  51.789  1.00  0.00     0.095 A 
BRANCH  22  23
HETATM   23  O3  UNL     1      21.054   5.088  51.396  1.00  0.00    -0.358 OA
HETATM   24  H20 UNL     1      21.778   5.742  51.652  1.00  0.00     0.217 HD
ENDBRANCH  22  23
ENDBRANCH  15  16
ENDBRANCH   4  15
BRANCH   1  25
HETATM   25  C6  UNL     1      27.610   1.123  52.697  1.00  0.00     0.061 A 
HETATM   26  C2  UNL     1      27.580  -0.327  52.804  1.00  0.00    -0.016 A 
HETATM   27  C1  UNL     1      26.605  -1.048  52.283  1.00  0.00     0.026 C 
HETATM   28  C3  UNL     1      28.628  -1.068  53.490  1.00  0.00     0.030 A 
HETATM   29  C4  UNL     1      29.654  -0.447  54.048  1.00  0.00     0.088 A 
HETATM   30  N1  UNL     1      29.711   0.970  53.961  1.00  0.00    -0.373 N 
HETATM   31  C5  UNL     1      28.666   1.652  53.282  1.00  0.00     0.117 A 
HETATM   32  H5  UNL     1      30.512   1.449  54.398  1.00  0.00     0.164 HD
ENDBRANCH   1  25
TORSDOF 7
ENDMDL
MODEL 6
REMARK VINA RESULT:      -8.3      2.894      5.764
REMARK  7 active torsions:
REMARK  status: ('A' for Active; 'I' for Inactive)
REMARK    1  A    between atoms: C6_7  and  N2_8 
REMARK       I    between atoms: N2_8  and  C7_9 
REMARK       I    between atoms: C7_9  and  N3_11 
REMARK    2  A    between atoms: N3_11  and  C8_12 
REMARK    3  A    between atoms: N3_11  and  C15_20 
REMARK    4  A    between atoms: C8_12  and  C9_13 
REMARK    5  A    between atoms: C12_16  and  O2_17 
REMARK    6  A    between atoms: C15_20  and  C16_21 
REMARK    7  A    between atoms: C21_27  and  O3_28 
ROOT
HETATM    1  N2  UNL     1      26.624   2.286  51.731  1.00  0.00    -0.307 N 
HETATM    2  C7  UNL     1      25.311   2.808  51.822  1.00  0.00     0.323 C 
HETATM    3  O1  UNL     1      24.799   2.797  52.988  1.00  0.00    -0.247 OA
HETATM    4  N3  UNL     1      24.569   3.322  50.721  1.00  0.00    -0.325 N 
HETATM    5  H7  UNL     1      26.958   2.337  50.727  1.00  0.00     0.170 HD
ENDROOT
BRANCH   4   6
HETATM    6  C8  UNL     1      24.954   3.431  49.347  1.00  0.00     0.166 C 
BRANCH   6   7
HETATM    7  C9  UNL     1      25.902   4.534  49.051  1.00  0.00    -0.040 A 
HETATM    8  C10 UNL     1      25.464   5.859  48.947  1.00  0.00     0.011 A 
HETATM    9  C11 UNL     1      26.292   6.927  48.675  1.00  0.00     0.037 A 
HETATM   10  C12 UNL     1      27.622   6.716  48.490  1.00  0.00     0.065 A 
HETATM   11  C13 UNL     1      28.104   5.446  48.579  1.00  0.00     0.037 A 
HETATM   12  C14 UNL     1      27.261   4.403  48.850  1.00  0.00     0.011 A 
BRANCH  10  13
HETATM   13  O2  UNL     1      28.510   7.738  48.215  1.00  0.00    -0.361 OA
HETATM   14  H12 UNL     1      29.437   7.634  47.871  1.00  0.00     0.217 HD
ENDBRANCH  10  13
ENDBRANCH   6   7
ENDBRANCH   4   6
BRANCH   4  15
HETATM   15  C15 UNL     1      23.218   3.816  50.990  1.00  0.00     0.169 C 
BRANCH  15  16
HETATM   16  C16 UNL     1      22.169   2.949  50.426  1.00  0.00    -0.005 A 
HETATM   17  C17 UNL     1      21.690   2.925  49.140  1.00  0.00     0.012 A 
HETATM   18  C18 UNL     1      20.699   2.042  48.787  1.00  0.00     0.002 A 
HETATM   19  C19 UNL     1      20.144   1.154  49.681  1.00  0.00     0.026 A 
HETATM   20  C20 UNL     1      20.631   1.180  50.989  1.00  0.00     0.067 A 
HETATM   21 CL1  UNL     1      19.904   0.037  52.107  1.00  0.00    -0.081 Cl
HETATM   22  C21 UNL     1      21.639   2.074  51.360  1.00  0.00     0.095 A 
BRANCH  22  23
HETATM   23  O3  UNL     1      22.008   1.970  52.693  1.00  0.00    -0.358 OA
HETATM   24  H20 UNL     1      21.495   1.438  53.379  1.00  0.00     0.217 HD
ENDBRANCH  22  23
ENDBRANCH  15  16
ENDBRANCH   4  15
BRANCH   1  25
HETATM   25  C6  UNL     1      27.491   1.751  52.676  1.00  0.00     0.061 A 
HETATM   26  C2  UNL     1      27.502   0.315  52.908  1.00  0.00    -0.016 A 
HETATM   27  C1  UNL     1      26.711  -0.506  52.245  1.00  0.00     0.026 C 
HETATM   28  C3  UNL     1      28.389  -0.298  53.884  1.00  0.00     0.030 A 
HETATM   29  C4  UNL     1      29.225   0.431  54.605  1.00  0.00     0.088 A 
HETATM   30  N1  UNL     1      29.237   1.837  54.402  1.00  0.00    -0.373 N 
HETATM   31  C5  UNL     1      28.354   2.393  53.438  1.00  0.00     0.117 A 
HETATM   32  H5  UNL     1      29.890   2.402  54.967  1.00  0.00     0.164 HD
ENDBRANCH   1  25
TORSDOF 7
ENDMDL
MODEL 7
REMARK VINA RESULT:      -8.3      3.309      7.179
REMARK  7 active torsions:
REMARK  status: ('A' for Active; 'I' for Inactive)
REMARK    1  A    between atoms: C6_7  and  N2_8 
REMARK       I    between atoms: N2_8  and  C7_9 
REMARK       I    between atoms: C7_9  and  N3_11 
REMARK    2  A    between atoms: N3_11  and  C8_12 
REMARK    3  A    between atoms: N3_11  and  C15_20 
REMARK    4  A    between atoms: C8_12  and  C9_13 
REMARK    5  A    between atoms: C12_16  and  O2_17 
REMARK    6  A    between atoms: C15_20  and  C16_21 
REMARK    7  A    between atoms: C21_27  and  O3_28 
ROOT
HETATM    1  N2  UNL     1      25.249   4.899  50.824  1.00  0.00    -0.307 N 
HETATM    2  C7  UNL     1      24.659   3.617  50.707  1.00  0.00     0.323 C 
HETATM    3  O1  UNL     1      24.210   3.326  49.552  1.00  0.00    -0.247 OA
HETATM    4  N3  UNL     1      24.549   2.678  51.773  1.00  0.00    -0.325 N 
HETATM    5  H7  UNL     1      25.586   5.045  51.817  1.00  0.00     0.170 HD
ENDROOT
BRANCH   4   6
HETATM    6  C8  UNL     1      24.987   2.801  53.130  1.00  0.00     0.166 C 
BRANCH   6   7
HETATM    7  C9  UNL     1      26.151   1.953  53.487  1.00  0.00    -0.040 A 
HETATM    8  C10 UNL     1      27.392   2.124  52.862  1.00  0.00     0.011 A 
HETATM    9  C11 UNL     1      28.510   1.370  53.148  1.00  0.00     0.037 A 
HETATM   10  C12 UNL     1      28.439   0.392  54.090  1.00  0.00     0.065 A 
HETATM   11  C13 UNL     1      27.257   0.182  54.730  1.00  0.00     0.037 A 
HETATM   12  C14 UNL     1      26.161   0.944  54.428  1.00  0.00     0.011 A 
BRANCH  10  13
HETATM   13  O2  UNL     1      29.519  -0.400  54.428  1.00  0.00    -0.361 OA
HETATM   14  H12 UNL     1      29.624  -1.368  54.226  1.00  0.00     0.217 HD
ENDBRANCH  10  13
ENDBRANCH   6   7
ENDBRANCH   4   6
BRANCH   4  15
HETATM   15  C15 UNL     1      23.901   1.400  51.481  1.00  0.00     0.169 C 
BRANCH  15  16
HETATM   16  C16 UNL     1      22.625   1.227  52.196  1.00  0.00    -0.005 A 
HETATM   17  C17 UNL     1      21.526   2.047  52.178  1.00  0.00     0.012 A 
HETATM   18  C18 UNL     1      20.410   1.728  52.915  1.00  0.00     0.002 A 
HETATM   19  C19 UNL     1      20.337   0.594  53.693  1.00  0.00     0.026 A 
HETATM   20  C20 UNL     1      21.456  -0.239  53.712  1.00  0.00     0.067 A 
HETATM   21 CL1  UNL     1      21.332  -1.677  54.713  1.00  0.00    -0.081 Cl
HETATM   22  C21 UNL     1      22.596   0.076  52.966  1.00  0.00     0.095 A 
BRANCH  22  23
HETATM   23  O3  UNL     1      23.616  -0.855  53.095  1.00  0.00    -0.358 OA
HETATM   24  H20 UNL     1      23.630  -1.581  53.795  1.00  0.00     0.217 HD
ENDBRANCH  22  23
ENDBRANCH  15  16
ENDBRANCH   4  15
BRANCH   1  25
HETATM   25  C6  UNL     1      25.444   5.931  49.915  1.00  0.00     0.061 A 
HETATM   26  C2  UNL     1      26.522   5.835  48.942  1.00  0.00    -0.016 A 
HETATM   27  C1  UNL     1      27.328   4.792  48.891  1.00  0.00     0.026 C 
HETATM   28  C3  UNL     1      26.771   6.886  47.967  1.00  0.00     0.030 A 
HETATM   29  C4  UNL     1      26.023   7.976  47.927  1.00  0.00     0.088 A 
HETATM   30  N1  UNL     1      24.963   8.099  48.865  1.00  0.00    -0.373 N 
HETATM   31  C5  UNL     1      24.756   7.049  49.799  1.00  0.00     0.117 A 
HETATM   32  H5  UNL     1      24.383   8.951  48.830  1.00  0.00     0.164 HD
ENDBRANCH   1  25
TORSDOF 7
ENDMDL
MODEL 8
REMARK VINA RESULT:      -8.2      3.094      6.748
REMARK  7 active torsions:
REMARK  status: ('A' for Active; 'I' for Inactive)
REMARK    1  A    between atoms: C6_7  and  N2_8 
REMARK       I    between atoms: N2_8  and  C7_9 
REMARK       I    between atoms: C7_9  and  N3_11 
REMARK    2  A    between atoms: N3_11  and  C8_12 
REMARK    3  A    between atoms: N3_11  and  C15_20 
REMARK    4  A    between atoms: C8_12  and  C9_13 
REMARK    5  A    between atoms: C12_16  and  O2_17 
REMARK    6  A    between atoms: C15_20  and  C16_21 
REMARK    7  A    between atoms: C21_27  and  O3_28 
ROOT
HETATM    1  N2  UNL     1      23.500   3.625  52.362  1.00  0.00    -0.307 N 
HETATM    2  C7  UNL     1      24.366   2.618  51.870  1.00  0.00     0.323 C 
HETATM    3  O1  UNL     1      24.887   2.854  50.732  1.00  0.00    -0.247 OA
HETATM    4  N3  UNL     1      24.668   1.407  52.556  1.00  0.00    -0.325 N 
HETATM    5  H7  UNL     1      23.118   3.334  53.306  1.00  0.00     0.170 HD
ENDROOT
BRANCH   4   6
HETATM    6  C8  UNL     1      24.201   0.953  53.830  1.00  0.00     0.166 C 
BRANCH   6   7
HETATM    7  C9  UNL     1      22.872   0.291  53.806  1.00  0.00    -0.040 A 
HETATM    8  C10 UNL     1      22.644  -0.904  54.497  1.00  0.00     0.011 A 
HETATM    9  C11 UNL     1      21.436  -1.567  54.515  1.00  0.00     0.037 A 
HETATM   10  C12 UNL     1      20.379  -1.057  53.829  1.00  0.00     0.065 A 
HETATM   11  C13 UNL     1      20.544   0.103  53.138  1.00  0.00     0.037 A 
HETATM   12  C14 UNL     1      21.754   0.743  53.136  1.00  0.00     0.011 A 
BRANCH  10  13
HETATM   13  O2  UNL     1      19.140  -1.668  53.802  1.00  0.00    -0.361 OA
HETATM   14  H12 UNL     1      18.336  -1.389  54.318  1.00  0.00     0.217 HD
ENDBRANCH  10  13
ENDBRANCH   6   7
ENDBRANCH   4   6
BRANCH   4  15
HETATM   15  C15 UNL     1      25.578   0.469  51.899  1.00  0.00     0.169 C 
BRANCH  15  16
HETATM   16  C16 UNL     1      26.917   0.444  52.513  1.00  0.00    -0.005 A 
HETATM   17  C17 UNL     1      27.685   1.507  52.915  1.00  0.00     0.012 A 
HETATM   18  C18 UNL     1      28.922   1.295  53.474  1.00  0.00     0.002 A 
HETATM   19  C19 UNL     1      29.447   0.036  53.657  1.00  0.00     0.026 A 
HETATM   20  C20 UNL     1      28.665  -1.045  53.248  1.00  0.00     0.067 A 
HETATM   21 CL1  UNL     1      29.360  -2.639  53.494  1.00  0.00    -0.081 Cl
HETATM   22  C21 UNL     1      27.404  -0.842  52.678  1.00  0.00     0.095 A 
BRANCH  22  23
HETATM   23  O3  UNL     1      26.759  -2.019  52.327  1.00  0.00    -0.358 OA
HETATM   24  H20 UNL     1      25.761  -2.098  52.206  1.00  0.00     0.217 HD
ENDBRANCH  22  23
ENDBRANCH  15  16
ENDBRANCH   4  15
BRANCH   1  25
HETATM   25  C6  UNL     1      23.092   4.849  51.846  1.00  0.00     0.061 A 
HETATM   26  C2  UNL     1      21.726   5.008  51.372  1.00  0.00    -0.016 A 
HETATM   27  C1  UNL     1      20.851   4.022  51.416  1.00  0.00     0.026 C 
HETATM   28  C3  UNL     1      21.247   6.267  50.823  1.00  0.00     0.030 A 
HETATM   29  C4  UNL     1      22.038   7.323  50.733  1.00  0.00     0.088 A 
HETATM   30  N1  UNL     1      23.379   7.198  51.188  1.00  0.00    -0.373 N 
HETATM   31  C5  UNL     1      23.804   5.950  51.716  1.00  0.00     0.117 A 
HETATM   32  H5  UNL     1      23.993   8.024  51.114  1.00  0.00     0.164 HD
ENDBRANCH   1  25
TORSDOF 7
ENDMDL
MODEL 9
REMARK VINA RESULT:      -8.2      2.716      6.356
REMARK  7 active torsions:
REMARK  status: ('A' for Active; 'I' for Inactive)
REMARK    1  A    between atoms: C6_7  and  N2_8 
REMARK       I    between atoms: N2_8  and  C7_9 
REMARK       I    between atoms: C7_9  and  N3_11 
REMARK    2  A    between atoms: N3_11  and  C8_12 
REMARK    3  A    between atoms: N3_11  and  C15_20 
REMARK    4  A    between atoms: C8_12  and  C9_13 
REMARK    5  A    between atoms: C12_16  and  O2_17 
REMARK    6  A    between atoms: C15_20  and  C16_21 
REMARK    7  A    between atoms: C21_27  and  O3_28 
ROOT
HETATM    1  N2  UNL     1      23.493   3.374  51.546  1.00  0.00    -0.307 N 
HETATM    2  C7  UNL     1      24.008   2.586  52.604  1.00  0.00     0.323 C 
HETATM    3  O1  UNL     1      24.706   3.216  53.464  1.00  0.00    -0.247 OA
HETATM    4  N3  UNL     1      23.794   1.186  52.746  1.00  0.00    -0.325 N 
HETATM    5  H7  UNL     1      22.935   2.762  50.887  1.00  0.00     0.170 HD
ENDROOT
BRANCH   4   6
HETATM    6  C8  UNL     1      23.048   0.299  51.906  1.00  0.00     0.166 C 
BRANCH   6   7
HETATM    7  C9  UNL     1      21.727  -0.107  52.447  1.00  0.00    -0.040 A 
HETATM    8  C10 UNL     1      20.536   0.377  51.893  1.00  0.00     0.011 A 
HETATM    9  C11 UNL     1      19.280   0.040  52.349  1.00  0.00     0.037 A 
HETATM   10  C12 UNL     1      19.152  -0.813  53.400  1.00  0.00     0.065 A 
HETATM   11  C13 UNL     1      20.277  -1.314  53.979  1.00  0.00     0.037 A 
HETATM   12  C14 UNL     1      21.513  -0.963  53.508  1.00  0.00     0.011 A 
BRANCH  10  13
HETATM   13  O2  UNL     1      17.926  -1.194  53.908  1.00  0.00    -0.361 OA
HETATM   14  H12 UNL     1      17.038  -0.849  53.622  1.00  0.00     0.217 HD
ENDBRANCH  10  13
ENDBRANCH   6   7
ENDBRANCH   4   6
BRANCH   4  15
HETATM   15  C15 UNL     1      24.408   0.523  53.896  1.00  0.00     0.169 C 
BRANCH  15  16
HETATM   16  C16 UNL     1      25.682  -0.138  53.564  1.00  0.00    -0.005 A 
HETATM   17  C17 UNL     1      25.874  -1.337  52.925  1.00  0.00     0.012 A 
HETATM   18  C18 UNL     1      27.146  -1.805  52.696  1.00  0.00     0.002 A 
HETATM   19  C19 UNL     1      28.270  -1.113  53.086  1.00  0.00     0.026 A 
HETATM   20  C20 UNL     1      28.075   0.106  53.736  1.00  0.00     0.067 A 
HETATM   21 CL1  UNL     1      29.528   0.965  54.221  1.00  0.00    -0.081 Cl
HETATM   22  C21 UNL     1      26.786   0.592  53.974  1.00  0.00     0.095 A 
BRANCH  22  23
HETATM   23  O3  UNL     1      26.767   1.815  54.629  1.00  0.00    -0.358 OA
HETATM   24  H20 UNL     1      26.128   2.043  55.375  1.00  0.00     0.217 HD
ENDBRANCH  22  23
ENDBRANCH  15  16
ENDBRANCH   4  15
BRANCH   1  25
HETATM   25  C6  UNL     1      23.594   4.727  51.246  1.00  0.00     0.061 A 
HETATM   26  C2  UNL     1      24.700   5.200  50.430  1.00  0.00    -0.016 A 
HETATM   27  C1  UNL     1      25.621   4.383  49.957  1.00  0.00     0.026 C 
HETATM   28  C3  UNL     1      24.854   6.605  50.085  1.00  0.00     0.030 A 
HETATM   29  C4  UNL     1      23.987   7.514  50.504  1.00  0.00     0.088 A 
HETATM   30  N1  UNL     1      22.896   7.082  51.304  1.00  0.00    -0.373 N 
HETATM   31  C5  UNL     1      22.786   5.700  51.616  1.00  0.00     0.117 A 
HETATM   32  H5  UNL     1      22.223   7.794  51.629  1.00  0.00     0.164 HD
ENDBRANCH   1  25
TORSDOF 7
ENDMDL
