MODEL 1
REMARK VINA RESULT:      -7.6      0.000      0.000
REMARK  8 active torsions:
REMARK  status: ('A' for Active; 'I' for Inactive)
REMARK    1  A    between atoms: N1_7  and  C6_8 
REMARK    2  A    between atoms: C6_8  and  C7_9 
REMARK    3  A    between atoms: C7_9  and  C8_10 
REMARK    4  A    between atoms: C8_10  and  C9_11 
REMARK    5  A    between atoms: C9_11  and  C10_13 
REMARK    6  A    between atoms: C13_16  and  O3_17 
REMARK    7  A    between atoms: O3_17  and  C14_18 
REMARK    8  A    between atoms: C14_18  and  C15_19 
ROOT
HETATM    1  C10 UNL     1      25.011   3.888  49.623  1.00  0.00     0.107 A 
HETATM    2  C11 UNL     1      24.684   5.163  50.316  1.00  0.00    -0.007 A 
HETATM    3  C12 UNL     1      23.600   4.975  51.077  1.00  0.00     0.033 A 
HETATM    4  C13 UNL     1      23.160   3.586  50.931  1.00  0.00     0.066 A 
HETATM    5  C21 UNL     1      23.958   2.964  50.106  1.00  0.00     0.026 A 
ENDROOT
BRANCH   1   6
HETATM    6  C9  UNL     1      26.365   3.413  49.943  1.00  0.00     0.160 C 
HETATM    7  O2  UNL     1      27.305   3.995  49.375  1.00  0.00    -0.292 OA
BRANCH   6   8
HETATM    8  C8  UNL     1      26.540   2.304  50.896  1.00  0.00     0.049 C 
BRANCH   8   9
HETATM    9  C7  UNL     1      27.188   2.241  52.038  1.00  0.00    -0.004 C 
BRANCH   9  10
HETATM   10  C6  UNL     1      27.693   1.797  53.314  1.00  0.00     0.150 C 
BRANCH  10  11
HETATM   11  N1  UNL     1      27.807   0.369  53.532  1.00  0.00    -0.380 N 
HETATM   12  C2  UNL     1      26.852  -0.679  53.449  1.00  0.00     0.009 C 
HETATM   13  C1  UNL     1      25.656  -0.350  53.943  1.00  0.00     0.060 C 
HETATM   14  C3  UNL     1      27.344  -1.942  52.840  1.00  0.00     0.219 C 
HETATM   15  O1  UNL     1      28.559  -2.335  53.395  1.00  0.00    -0.384 OA
HETATM   16  C4  UNL     1      29.544  -1.383  53.351  1.00  0.00     0.187 C 
HETATM   17  C5  UNL     1      29.152  -0.036  53.928  1.00  0.00     0.149 C 
ENDBRANCH  10  11
ENDBRANCH   9  10
ENDBRANCH   8   9
ENDBRANCH   6   8
ENDBRANCH   1   6
BRANCH   4  18
HETATM   18  O3  UNL     1      22.114   2.824  51.464  1.00  0.00    -0.347 OA
BRANCH  18  19
HETATM   19  C14 UNL     1      21.972   1.447  51.169  1.00  0.00     0.214 C 
BRANCH  19  20
HETATM   20  C15 UNL     1      21.662   0.718  52.413  1.00  0.00    -0.034 A 
HETATM   21  C16 UNL     1      22.303  -0.504  52.513  1.00  0.00     0.009 A 
HETATM   22  C17 UNL     1      22.147  -1.343  53.598  1.00  0.00     0.001 A 
HETATM   23  C18 UNL     1      21.316  -0.946  54.625  1.00  0.00     0.000 A 
HETATM   24  C19 UNL     1      20.686   0.270  54.509  1.00  0.00     0.001 A 
HETATM   25  C20 UNL     1      20.823   1.126  53.442  1.00  0.00     0.009 A 
ENDBRANCH  19  20
ENDBRANCH  18  19
ENDBRANCH   4  18
TORSDOF 8
ENDMDL
MODEL 2
REMARK VINA RESULT:      -7.5      2.047      7.019
REMARK  8 active torsions:
REMARK  status: ('A' for Active; 'I' for Inactive)
REMARK    1  A    between atoms: N1_7  and  C6_8 
REMARK    2  A    between atoms: C6_8  and  C7_9 
REMARK    3  A    between atoms: C7_9  and  C8_10 
REMARK    4  A    between atoms: C8_10  and  C9_11 
REMARK    5  A    between atoms: C9_11  and  C10_13 
REMARK    6  A    between atoms: C13_16  and  O3_17 
REMARK    7  A    between atoms: O3_17  and  C14_18 
REMARK    8  A    between atoms: C14_18  and  C15_19 
ROOT
HETATM    1  C10 UNL     1      27.362   0.095  52.571  1.00  0.00     0.107 A 
HETATM    2  C11 UNL     1      28.006   1.058  53.504  1.00  0.00    -0.007 A 
HETATM    3  C12 UNL     1      27.706   2.303  53.116  1.00  0.00     0.033 A 
HETATM    4  C13 UNL     1      26.858   2.230  51.923  1.00  0.00     0.066 A 
HETATM    5  C21 UNL     1      26.660   0.979  51.610  1.00  0.00     0.026 A 
ENDROOT
BRANCH   1   6
HETATM    6  C9  UNL     1      26.444  -0.821  53.264  1.00  0.00     0.160 C 
HETATM    7  O2  UNL     1      26.717  -2.032  53.199  1.00  0.00    -0.292 OA
BRANCH   6   8
HETATM    8  C8  UNL     1      25.280  -0.278  53.984  1.00  0.00     0.049 C 
BRANCH   8   9
HETATM    9  C7  UNL     1      23.991  -0.413  53.768  1.00  0.00    -0.004 C 
BRANCH   9  10
HETATM   10  C6  UNL     1      22.716  -0.637  53.133  1.00  0.00     0.150 C 
BRANCH  10  11
HETATM   11  N1  UNL     1      22.077   0.492  52.488  1.00  0.00    -0.380 N 
HETATM   12  C2  UNL     1      20.750   0.993  52.555  1.00  0.00     0.009 C 
HETATM   13  C1  UNL     1      19.820   0.036  52.570  1.00  0.00     0.060 C 
HETATM   14  C3  UNL     1      20.628   2.474  52.593  1.00  0.00     0.219 C 
HETATM   15  O1  UNL     1      21.403   3.073  51.603  1.00  0.00    -0.384 OA
HETATM   16  C4  UNL     1      22.726   2.715  51.615  1.00  0.00     0.187 C 
HETATM   17  C5  UNL     1      22.979   1.220  51.600  1.00  0.00     0.149 C 
ENDBRANCH  10  11
ENDBRANCH   9  10
ENDBRANCH   8   9
ENDBRANCH   6   8
ENDBRANCH   1   6
BRANCH   4  18
HETATM   18  O3  UNL     1      26.248   3.175  51.092  1.00  0.00    -0.347 OA
BRANCH  18  19
HETATM   19  C14 UNL     1      26.371   3.116  49.683  1.00  0.00     0.214 C 
BRANCH  19  20
HETATM   20  C15 UNL     1      26.532   4.483  49.156  1.00  0.00    -0.034 A 
HETATM   21  C16 UNL     1      27.820   4.767  48.737  1.00  0.00     0.009 A 
HETATM   22  C17 UNL     1      28.182   5.991  48.212  1.00  0.00     0.001 A 
HETATM   23  C18 UNL     1      27.220   6.973  48.101  1.00  0.00     0.000 A 
HETATM   24  C19 UNL     1      25.946   6.675  48.522  1.00  0.00     0.001 A 
HETATM   25  C20 UNL     1      25.556   5.466  49.048  1.00  0.00     0.009 A 
ENDBRANCH  19  20
ENDBRANCH  18  19
ENDBRANCH   4  18
TORSDOF 8
ENDMDL
MODEL 3
REMARK VINA RESULT:      -7.5      1.660      5.210
REMARK  8 active torsions:
REMARK  status: ('A' for Active; 'I' for Inactive)
REMARK    1  A    between atoms: N1_7  and  C6_8 
REMARK    2  A    between atoms: C6_8  and  C7_9 
REMARK    3  A    between atoms: C7_9  and  C8_10 
REMARK    4  A    between atoms: C8_10  and  C9_11 
REMARK    5  A    between atoms: C9_11  and  C10_13 
REMARK    6  A    between atoms: C13_16  and  O3_17 
REMARK    7  A    between atoms: O3_17  and  C14_18 
REMARK    8  A    between atoms: C14_18  and  C15_19 
ROOT
HETATM    1  C10 UNL     1      20.927   0.951  52.253  1.00  0.00     0.107 A 
HETATM    2  C11 UNL     1      21.250   0.378  50.918  1.00  0.00    -0.007 A 
HETATM    3  C12 UNL     1      21.901   1.300  50.199  1.00  0.00     0.033 A 
HETATM    4  C13 UNL     1      22.042   2.512  51.008  1.00  0.00     0.066 A 
HETATM    5  C21 UNL     1      21.491   2.319  52.176  1.00  0.00     0.026 A 
ENDROOT
BRANCH   1   6
HETATM    6  C9  UNL     1      21.510   0.164  53.350  1.00  0.00     0.160 C 
HETATM    7  O2  UNL     1      20.843   0.096  54.396  1.00  0.00    -0.292 OA
BRANCH   6   8
HETATM    8  C8  UNL     1      22.817  -0.487  53.163  1.00  0.00     0.049 C 
BRANCH   8   9
HETATM    9  C7  UNL     1      24.035   0.005  53.163  1.00  0.00    -0.004 C 
BRANCH   9  10
HETATM   10  C6  UNL     1      25.349   0.435  52.750  1.00  0.00     0.150 C 
BRANCH  10  11
HETATM   11  N1  UNL     1      26.491  -0.211  53.364  1.00  0.00    -0.380 N 
HETATM   12  C2  UNL     1      27.368  -1.225  52.896  1.00  0.00     0.009 C 
HETATM   13  C1  UNL     1      26.747  -2.195  52.221  1.00  0.00     0.060 C 
HETATM   14  C3  UNL     1      28.802  -1.037  53.238  1.00  0.00     0.219 C 
HETATM   15  O1  UNL     1      28.966  -0.733  54.587  1.00  0.00    -0.384 OA
HETATM   16  C4  UNL     1      28.239   0.342  55.026  1.00  0.00     0.187 C 
HETATM   17  C5  UNL     1      26.756   0.274  54.715  1.00  0.00     0.149 C 
ENDBRANCH  10  11
ENDBRANCH   9  10
ENDBRANCH   8   9
ENDBRANCH   6   8
ENDBRANCH   1   6
BRANCH   4  18
HETATM   18  O3  UNL     1      22.616   3.771  50.801  1.00  0.00    -0.347 OA
BRANCH  18  19
HETATM   19  C14 UNL     1      23.747   4.202  51.535  1.00  0.00     0.214 C 
BRANCH  19  20
HETATM   20  C15 UNL     1      24.846   4.495  50.597  1.00  0.00    -0.034 A 
HETATM   21  C16 UNL     1      25.659   3.405  50.339  1.00  0.00     0.009 A 
HETATM   22  C17 UNL     1      26.744   3.467  49.488  1.00  0.00     0.001 A 
HETATM   23  C18 UNL     1      27.032   4.667  48.871  1.00  0.00     0.000 A 
HETATM   24  C19 UNL     1      26.215   5.740  49.139  1.00  0.00     0.001 A 
HETATM   25  C20 UNL     1      25.128   5.707  49.979  1.00  0.00     0.009 A 
ENDBRANCH  19  20
ENDBRANCH  18  19
ENDBRANCH   4  18
TORSDOF 8
ENDMDL
MODEL 4
REMARK VINA RESULT:      -7.4      2.308      7.063
REMARK  8 active torsions:
REMARK  status: ('A' for Active; 'I' for Inactive)
REMARK    1  A    between atoms: N1_7  and  C6_8 
REMARK    2  A    between atoms: C6_8  and  C7_9 
REMARK    3  A    between atoms: C7_9  and  C8_10 
REMARK    4  A    between atoms: C8_10  and  C9_11 
REMARK    5  A    between atoms: C9_11  and  C10_13 
REMARK    6  A    between atoms: C13_16  and  O3_17 
REMARK    7  A    between atoms: O3_17  and  C14_18 
REMARK    8  A    between atoms: C14_18  and  C15_19 
ROOT
HETATM    1  C10 UNL     1      21.816  -0.800  53.095  1.00  0.00     0.107 A 
HETATM    2  C11 UNL     1      21.594  -1.204  54.509  1.00  0.00    -0.007 A 
HETATM    3  C12 UNL     1      22.757  -1.131  55.167  1.00  0.00     0.033 A 
HETATM    4  C13 UNL     1      23.794  -0.680  54.237  1.00  0.00     0.066 A 
HETATM    5  C21 UNL     1      23.265  -0.490  53.059  1.00  0.00     0.026 A 
ENDROOT
BRANCH   1   6
HETATM    6  C9  UNL     1      20.987   0.351  52.709  1.00  0.00     0.160 C 
HETATM    7  O2  UNL     1      20.614   1.098  53.630  1.00  0.00    -0.292 OA
BRANCH   6   8
HETATM    8  C8  UNL     1      20.647   0.560  51.292  1.00  0.00     0.049 C 
BRANCH   8   9
HETATM    9  C7  UNL     1      21.337   1.090  50.307  1.00  0.00    -0.004 C 
BRANCH   9  10
HETATM   10  C6  UNL     1      22.374   1.741  49.544  1.00  0.00     0.150 C 
BRANCH  10  11
HETATM   11  N1  UNL     1      22.941   2.960  50.083  1.00  0.00    -0.380 N 
HETATM   12  C2  UNL     1      22.799   4.320  49.697  1.00  0.00     0.009 C 
HETATM   13  C1  UNL     1      22.791   4.500  48.375  1.00  0.00     0.060 C 
HETATM   14  C3  UNL     1      22.689   5.292  50.816  1.00  0.00     0.219 C 
HETATM   15  O1  UNL     1      23.681   5.081  51.771  1.00  0.00    -0.384 OA
HETATM   16  C4  UNL     1      23.737   3.806  52.267  1.00  0.00     0.187 C 
HETATM   17  C5  UNL     1      23.830   2.718  51.214  1.00  0.00     0.149 C 
ENDBRANCH  10  11
ENDBRANCH   9  10
ENDBRANCH   8   9
ENDBRANCH   6   8
ENDBRANCH   1   6
BRANCH   4  18
HETATM   18  O3  UNL     1      25.165  -0.423  54.343  1.00  0.00    -0.347 OA
BRANCH  18  19
HETATM   19  C14 UNL     1      25.853   0.354  53.379  1.00  0.00     0.214 C 
BRANCH  19  20
HETATM   20  C15 UNL     1      27.292   0.039  53.444  1.00  0.00    -0.034 A 
HETATM   21  C16 UNL     1      27.586  -1.274  53.122  1.00  0.00     0.009 A 
HETATM   22  C17 UNL     1      28.873  -1.773  53.123  1.00  0.00     0.001 A 
HETATM   23  C18 UNL     1      29.909  -0.927  53.460  1.00  0.00     0.000 A 
HETATM   24  C19 UNL     1      29.599   0.374  53.778  1.00  0.00     0.001 A 
HETATM   25  C20 UNL     1      28.328   0.898  53.785  1.00  0.00     0.009 A 
ENDBRANCH  19  20
ENDBRANCH  18  19
ENDBRANCH   4  18
TORSDOF 8
ENDMDL
MODEL 5
REMARK VINA RESULT:      -7.3      4.301      7.669
REMARK  8 active torsions:
REMARK  status: ('A' for Active; 'I' for Inactive)
REMARK    1  A    between atoms: N1_7  and  C6_8 
REMARK    2  A    between atoms: C6_8  and  C7_9 
REMARK    3  A    between atoms: C7_9  and  C8_10 
REMARK    4  A    between atoms: C8_10  and  C9_11 
REMARK    5  A    between atoms: C9_11  and  C10_13 
REMARK    6  A    between atoms: C13_16  and  O3_17 
REMARK    7  A    between atoms: O3_17  and  C14_18 
REMARK    8  A    between atoms: C14_18  and  C15_19 
ROOT
HETATM    1  C10 UNL     1      26.127   3.315  49.486  1.00  0.00     0.107 A 
HETATM    2  C11 UNL     1      24.645   3.296  49.612  1.00  0.00    -0.007 A 
HETATM    3  C12 UNL     1      24.319   2.793  50.808  1.00  0.00     0.033 A 
HETATM    4  C13 UNL     1      25.550   2.459  51.527  1.00  0.00     0.066 A 
HETATM    5  C21 UNL     1      26.580   2.754  50.781  1.00  0.00     0.026 A 
ENDROOT
BRANCH   1   6
HETATM    6  C9  UNL     1      26.647   4.670  49.249  1.00  0.00     0.160 C 
HETATM    7  O2  UNL     1      25.971   5.609  49.703  1.00  0.00    -0.292 OA
BRANCH   6   8
HETATM    8  C8  UNL     1      27.908   4.845  48.509  1.00  0.00     0.049 C 
BRANCH   8   9
HETATM    9  C7  UNL     1      28.672   5.901  48.343  1.00  0.00    -0.004 C 
BRANCH   9  10
HETATM   10  C6  UNL     1      29.536   6.901  47.765  1.00  0.00     0.150 C 
BRANCH  10  11
HETATM   11  N1  UNL     1      29.682   8.155  48.475  1.00  0.00    -0.380 N 
HETATM   12  C2  UNL     1      30.828   8.834  48.968  1.00  0.00     0.009 C 
HETATM   13  C1  UNL     1      31.733   8.021  49.517  1.00  0.00     0.060 C 
HETATM   14  C3  UNL     1      30.819  10.310  48.795  1.00  0.00     0.219 C 
HETATM   15  O1  UNL     1      29.614  10.864  49.219  1.00  0.00    -0.384 OA
HETATM   16  C4  UNL     1      28.497  10.321  48.640  1.00  0.00     0.187 C 
HETATM   17  C5  UNL     1      28.404   8.810  48.735  1.00  0.00     0.149 C 
ENDBRANCH  10  11
ENDBRANCH   9  10
ENDBRANCH   8   9
ENDBRANCH   6   8
ENDBRANCH   1   6
BRANCH   4  18
HETATM   18  O3  UNL     1      25.838   1.917  52.784  1.00  0.00    -0.347 OA
BRANCH  18  19
HETATM   19  C14 UNL     1      25.916   0.518  52.990  1.00  0.00     0.214 C 
BRANCH  19  20
HETATM   20  C15 UNL     1      27.325   0.141  53.209  1.00  0.00    -0.034 A 
HETATM   21  C16 UNL     1      27.578  -1.202  52.993  1.00  0.00     0.009 A 
HETATM   22  C17 UNL     1      28.832  -1.759  53.144  1.00  0.00     0.001 A 
HETATM   23  C18 UNL     1      29.876  -0.943  53.527  1.00  0.00     0.000 A 
HETATM   24  C19 UNL     1      29.606   0.389  53.738  1.00  0.00     0.001 A 
HETATM   25  C20 UNL     1      28.369   0.971  53.595  1.00  0.00     0.009 A 
ENDBRANCH  19  20
ENDBRANCH  18  19
ENDBRANCH   4  18
TORSDOF 8
ENDMDL
MODEL 6
REMARK VINA RESULT:      -7.3      3.547      7.310
REMARK  8 active torsions:
REMARK  status: ('A' for Active; 'I' for Inactive)
REMARK    1  A    between atoms: N1_7  and  C6_8 
REMARK    2  A    between atoms: C6_8  and  C7_9 
REMARK    3  A    between atoms: C7_9  and  C8_10 
REMARK    4  A    between atoms: C8_10  and  C9_11 
REMARK    5  A    between atoms: C9_11  and  C10_13 
REMARK    6  A    between atoms: C13_16  and  O3_17 
REMARK    7  A    between atoms: O3_17  and  C14_18 
REMARK    8  A    between atoms: C14_18  and  C15_19 
ROOT
HETATM    1  C10 UNL     1      25.780   3.200  49.668  1.00  0.00     0.107 A 
HETATM    2  C11 UNL     1      24.302   3.237  49.834  1.00  0.00    -0.007 A 
HETATM    3  C12 UNL     1      23.988   2.726  51.030  1.00  0.00     0.033 A 
HETATM    4  C13 UNL     1      25.225   2.330  51.709  1.00  0.00     0.066 A 
HETATM    5  C21 UNL     1      26.245   2.598  50.940  1.00  0.00     0.026 A 
ENDROOT
BRANCH   1   6
HETATM    6  C9  UNL     1      26.347   4.538  49.440  1.00  0.00     0.160 C 
HETATM    7  O2  UNL     1      25.715   5.495  49.917  1.00  0.00    -0.292 OA
BRANCH   6   8
HETATM    8  C8  UNL     1      27.601   4.676  48.682  1.00  0.00     0.049 C 
BRANCH   8   9
HETATM    9  C7  UNL     1      28.236   5.742  48.249  1.00  0.00    -0.004 C 
BRANCH   9  10
HETATM   10  C6  UNL     1      28.538   7.076  47.791  1.00  0.00     0.150 C 
BRANCH  10  11
HETATM   11  N1  UNL     1      27.705   8.158  48.276  1.00  0.00    -0.380 N 
HETATM   12  C2  UNL     1      26.397   8.577  47.919  1.00  0.00     0.009 C 
HETATM   13  C1  UNL     1      26.160   8.524  46.606  1.00  0.00     0.060 C 
HETATM   14  C3  UNL     1      25.531   8.999  49.051  1.00  0.00     0.219 C 
HETATM   15  O1  UNL     1      26.194   9.889  49.893  1.00  0.00    -0.384 OA
HETATM   16  C4  UNL     1      27.397   9.439  50.370  1.00  0.00     0.187 C 
HETATM   17  C5  UNL     1      28.363   8.959  49.304  1.00  0.00     0.149 C 
ENDBRANCH  10  11
ENDBRANCH   9  10
ENDBRANCH   8   9
ENDBRANCH   6   8
ENDBRANCH   1   6
BRANCH   4  18
HETATM   18  O3  UNL     1      25.524   1.754  52.948  1.00  0.00    -0.347 OA
BRANCH  18  19
HETATM   19  C14 UNL     1      25.500   0.351  53.141  1.00  0.00     0.214 C 
BRANCH  19  20
HETATM   20  C15 UNL     1      26.877  -0.128  53.362  1.00  0.00    -0.034 A 
HETATM   21  C16 UNL     1      27.629   0.704  54.173  1.00  0.00     0.009 A 
HETATM   22  C17 UNL     1      28.942   0.437  54.503  1.00  0.00     0.001 A 
HETATM   23  C18 UNL     1      29.530  -0.707  54.003  1.00  0.00     0.000 A 
HETATM   24  C19 UNL     1      28.769  -1.522  53.198  1.00  0.00     0.001 A 
HETATM   25  C20 UNL     1      27.460  -1.282  52.854  1.00  0.00     0.009 A 
ENDBRANCH  19  20
ENDBRANCH  18  19
ENDBRANCH   4  18
TORSDOF 8
ENDMDL
MODEL 7
REMARK VINA RESULT:      -7.3      2.040      5.746
REMARK  8 active torsions:
REMARK  status: ('A' for Active; 'I' for Inactive)
REMARK    1  A    between atoms: N1_7  and  C6_8 
REMARK    2  A    between atoms: C6_8  and  C7_9 
REMARK    3  A    between atoms: C7_9  and  C8_10 
REMARK    4  A    between atoms: C8_10  and  C9_11 
REMARK    5  A    between atoms: C9_11  and  C10_13 
REMARK    6  A    between atoms: C13_16  and  O3_17 
REMARK    7  A    between atoms: O3_17  and  C14_18 
REMARK    8  A    between atoms: C14_18  and  C15_19 
ROOT
HETATM    1  C10 UNL     1      28.141   0.900  53.988  1.00  0.00     0.107 A 
HETATM    2  C11 UNL     1      28.783  -0.229  53.264  1.00  0.00    -0.007 A 
HETATM    3  C12 UNL     1      27.921  -1.250  53.203  1.00  0.00     0.033 A 
HETATM    4  C13 UNL     1      26.680  -0.855  53.874  1.00  0.00     0.066 A 
HETATM    5  C21 UNL     1      26.800   0.365  54.321  1.00  0.00     0.026 A 
ENDROOT
BRANCH   1   6
HETATM    6  C9  UNL     1      28.071   2.119  53.168  1.00  0.00     0.160 C 
HETATM    7  O2  UNL     1      29.044   2.889  53.238  1.00  0.00    -0.292 OA
BRANCH   6   8
HETATM    8  C8  UNL     1      26.888   2.361  52.326  1.00  0.00     0.049 C 
BRANCH   8   9
HETATM    9  C7  UNL     1      26.784   2.710  51.064  1.00  0.00    -0.004 C 
BRANCH   9  10
HETATM   10  C6  UNL     1      26.355   3.335  49.836  1.00  0.00     0.150 C 
BRANCH  10  11
HETATM   11  N1  UNL     1      25.288   4.312  49.917  1.00  0.00    -0.380 N 
HETATM   12  C2  UNL     1      23.906   4.181  50.215  1.00  0.00     0.009 C 
HETATM   13  C1  UNL     1      23.343   3.103  49.665  1.00  0.00     0.060 C 
HETATM   14  C3  UNL     1      23.334   5.252  51.071  1.00  0.00     0.219 C 
HETATM   15  O1  UNL     1      23.689   6.517  50.608  1.00  0.00    -0.384 OA
HETATM   16  C4  UNL     1      25.036   6.714  50.454  1.00  0.00     0.187 C 
HETATM   17  C5  UNL     1      25.739   5.667  49.613  1.00  0.00     0.149 C 
ENDBRANCH  10  11
ENDBRANCH   9  10
ENDBRANCH   8   9
ENDBRANCH   6   8
ENDBRANCH   1   6
BRANCH   4  18
HETATM   18  O3  UNL     1      25.455  -1.482  54.123  1.00  0.00    -0.347 OA
BRANCH  18  19
HETATM   19  C14 UNL     1      24.513  -0.942  55.032  1.00  0.00     0.214 C 
BRANCH  19  20
HETATM   20  C15 UNL     1      23.226  -0.756  54.338  1.00  0.00    -0.034 A 
HETATM   21  C16 UNL     1      23.322   0.009  53.189  1.00  0.00     0.009 A 
HETATM   22  C17 UNL     1      22.232   0.302  52.394  1.00  0.00     0.001 A 
HETATM   23  C18 UNL     1      20.995  -0.187  52.761  1.00  0.00     0.000 A 
HETATM   24  C19 UNL     1      20.918  -0.944  53.906  1.00  0.00     0.001 A 
HETATM   25  C20 UNL     1      21.985  -1.253  54.716  1.00  0.00     0.009 A 
ENDBRANCH  19  20
ENDBRANCH  18  19
ENDBRANCH   4  18
TORSDOF 8
ENDMDL
MODEL 8
REMARK VINA RESULT:      -7.3      2.131      6.680
REMARK  8 active torsions:
REMARK  status: ('A' for Active; 'I' for Inactive)
REMARK    1  A    between atoms: N1_7  and  C6_8 
REMARK    2  A    between atoms: C6_8  and  C7_9 
REMARK    3  A    between atoms: C7_9  and  C8_10 
REMARK    4  A    between atoms: C8_10  and  C9_11 
REMARK    5  A    between atoms: C9_11  and  C10_13 
REMARK    6  A    between atoms: C13_16  and  O3_17 
REMARK    7  A    between atoms: O3_17  and  C14_18 
REMARK    8  A    between atoms: C14_18  and  C15_19 
ROOT
HETATM    1  C10 UNL     1      21.458   0.873  52.626  1.00  0.00     0.107 A 
HETATM    2  C11 UNL     1      21.089   0.314  53.954  1.00  0.00    -0.007 A 
HETATM    3  C12 UNL     1      22.138  -0.352  54.450  1.00  0.00     0.033 A 
HETATM    4  C13 UNL     1      23.241  -0.271  53.489  1.00  0.00     0.066 A 
HETATM    5  C21 UNL     1      22.860   0.424  52.452  1.00  0.00     0.026 A 
ENDROOT
BRANCH   1   6
HETATM    6  C9  UNL     1      21.328   2.337  52.583  1.00  0.00     0.160 C 
HETATM    7  O2  UNL     1      20.182   2.794  52.721  1.00  0.00    -0.292 OA
BRANCH   6   8
HETATM    8  C8  UNL     1      22.528   3.167  52.385  1.00  0.00     0.049 C 
BRANCH   8   9
HETATM    9  C7  UNL     1      22.991   3.773  51.315  1.00  0.00    -0.004 C 
BRANCH   9  10
HETATM   10  C6  UNL     1      23.595   4.036  50.031  1.00  0.00     0.150 C 
BRANCH  10  11
HETATM   11  N1  UNL     1      24.762   4.893  50.000  1.00  0.00    -0.380 N 
HETATM   12  C2  UNL     1      26.060   4.704  49.456  1.00  0.00     0.009 C 
HETATM   13  C1  UNL     1      26.543   3.474  49.646  1.00  0.00     0.060 C 
HETATM   14  C3  UNL     1      26.649   5.891  48.783  1.00  0.00     0.219 C 
HETATM   15  O1  UNL     1      26.534   7.032  49.573  1.00  0.00    -0.384 OA
HETATM   16  C4  UNL     1      25.260   7.317  49.987  1.00  0.00     0.187 C 
HETATM   17  C5  UNL     1      24.544   6.170  50.674  1.00  0.00     0.149 C 
ENDBRANCH  10  11
ENDBRANCH   9  10
ENDBRANCH   8   9
ENDBRANCH   6   8
ENDBRANCH   1   6
BRANCH   4  18
HETATM   18  O3  UNL     1      24.552  -0.758  53.453  1.00  0.00    -0.347 OA
BRANCH  18  19
HETATM   19  C14 UNL     1      25.442  -0.579  54.540  1.00  0.00     0.214 C 
BRANCH  19  20
HETATM   20  C15 UNL     1      26.475   0.401  54.159  1.00  0.00    -0.034 A 
HETATM   21  C16 UNL     1      27.724   0.120  54.685  1.00  0.00     0.009 A 
HETATM   22  C17 UNL     1      28.829   0.913  54.449  1.00  0.00     0.001 A 
HETATM   23  C18 UNL     1      28.682   2.033  53.657  1.00  0.00     0.000 A 
HETATM   24  C19 UNL     1      27.434   2.298  53.144  1.00  0.00     0.001 A 
HETATM   25  C20 UNL     1      26.317   1.526  53.361  1.00  0.00     0.009 A 
ENDBRANCH  19  20
ENDBRANCH  18  19
ENDBRANCH   4  18
TORSDOF 8
ENDMDL
MODEL 9
REMARK VINA RESULT:      -7.2      1.963      6.755
REMARK  8 active torsions:
REMARK  status: ('A' for Active; 'I' for Inactive)
REMARK    1  A    between atoms: N1_7  and  C6_8 
REMARK    2  A    between atoms: C6_8  and  C7_9 
REMARK    3  A    between atoms: C7_9  and  C8_10 
REMARK    4  A    between atoms: C8_10  and  C9_11 
REMARK    5  A    between atoms: C9_11  and  C10_13 
REMARK    6  A    between atoms: C13_16  and  O3_17 
REMARK    7  A    between atoms: O3_17  and  C14_18 
REMARK    8  A    between atoms: C14_18  and  C15_19 
ROOT
HETATM    1  C10 UNL     1      22.129  -0.057  53.064  1.00  0.00     0.107 A 
HETATM    2  C11 UNL     1      21.647  -0.584  54.369  1.00  0.00    -0.007 A 
HETATM    3  C12 UNL     1      22.698  -1.013  55.077  1.00  0.00     0.033 A 
HETATM    4  C13 UNL     1      23.913  -0.795  54.290  1.00  0.00     0.066 A 
HETATM    5  C21 UNL     1      23.596  -0.252  53.146  1.00  0.00     0.026 A 
ENDROOT
BRANCH   1   6
HETATM    6  C9  UNL     1      21.761   1.352  52.863  1.00  0.00     0.160 C 
HETATM    7  O2  UNL     1      20.546   1.613  52.876  1.00  0.00    -0.292 OA
BRANCH   6   8
HETATM    8  C8  UNL     1      22.817   2.358  52.665  1.00  0.00     0.049 C 
BRANCH   8   9
HETATM    9  C7  UNL     1      23.097   3.124  51.634  1.00  0.00    -0.004 C 
BRANCH   9  10
HETATM   10  C6  UNL     1      22.997   4.082  50.561  1.00  0.00     0.150 C 
BRANCH  10  11
HETATM   11  N1  UNL     1      24.180   4.319  49.759  1.00  0.00    -0.380 N 
HETATM   12  C2  UNL     1      24.552   5.402  48.919  1.00  0.00     0.009 C 
HETATM   13  C1  UNL     1      23.542   5.882  48.191  1.00  0.00     0.060 C 
HETATM   14  C3  UNL     1      25.981   5.805  48.993  1.00  0.00     0.219 C 
HETATM   15  O1  UNL     1      26.825   4.703  48.891  1.00  0.00    -0.384 OA
HETATM   16  C4  UNL     1      26.577   3.704  49.796  1.00  0.00     0.187 C 
HETATM   17  C5  UNL     1      25.139   3.221  49.829  1.00  0.00     0.149 C 
ENDBRANCH  10  11
ENDBRANCH   9  10
ENDBRANCH   8   9
ENDBRANCH   6   8
ENDBRANCH   1   6
BRANCH   4  18
HETATM   18  O3  UNL     1      25.275  -1.036  54.499  1.00  0.00    -0.347 OA
BRANCH  18  19
HETATM   19  C14 UNL     1      26.196  -1.080  53.423  1.00  0.00     0.214 C 
BRANCH  19  20
HETATM   20  C15 UNL     1      27.113   0.070  53.526  1.00  0.00    -0.034 A 
HETATM   21  C16 UNL     1      28.403  -0.281  53.883  1.00  0.00     0.009 A 
HETATM   22  C17 UNL     1      29.414   0.647  54.034  1.00  0.00     0.001 A 
HETATM   23  C18 UNL     1      29.126   1.979  53.821  1.00  0.00     0.000 A 
HETATM   24  C19 UNL     1      27.839   2.310  53.469  1.00  0.00     0.001 A 
HETATM   25  C20 UNL     1      26.813   1.409  53.310  1.00  0.00     0.009 A 
ENDBRANCH  19  20
ENDBRANCH  18  19
ENDBRANCH   4  18
TORSDOF 8
ENDMDL
