MODEL 1
REMARK VINA RESULT:      -8.2      0.000      0.000
REMARK  0 active torsions:
REMARK  status: ('A' for Active; 'I' for Inactive)
ROOT
HETATM    1  C1  UNL     1      23.773   5.657  51.903  1.00  0.00     0.038 C 
HETATM    2  C2  UNL     1      22.925   4.465  52.173  1.00  0.00    -0.002 C 
HETATM    3  C3  UNL     1      23.727   3.482  52.260  1.00  0.00     0.034 C 
HETATM    4  C4  UNL     1      22.953   2.286  52.524  1.00  0.00     0.063 C 
HETATM    5  C5  UNL     1      22.161   1.271  52.761  1.00  0.00     0.085 A 
HETATM    6  N1  UNL     1      20.794   1.656  52.831  1.00  0.00    -0.240 NA
HETATM    7  C6  UNL     1      20.125   0.556  53.104  1.00  0.00     0.234 A 
HETATM    8  N2  UNL     1      21.061  -0.496  53.204  1.00  0.00    -0.244 NA
HETATM    9  C7  UNL     1      22.273  -0.148  53.014  1.00  0.00     0.066 A 
HETATM   10  C8  UNL     1      23.720  -0.529  52.920  1.00  0.00     0.088 C 
HETATM   11  C9  UNL     1      24.405  -0.224  54.196  1.00  0.00     0.146 C 
HETATM   12 CL1  UNL     1      23.933  -1.301  55.504  1.00  0.00    -0.117 Cl
HETATM   13  C10 UNL     1      25.896  -0.385  53.962  1.00  0.00     0.101 C 
HETATM   14  F1  UNL     1      26.284  -1.639  53.623  1.00  0.00    -0.213 F 
HETATM   15  C11 UNL     1      27.161   0.131  53.910  1.00  0.00     0.113 C 
HETATM   16  P1  UNL     1      28.721   1.143  53.931  1.00  0.00     0.060 P 
HETATM   17  N3  UNL     1      28.732   2.552  52.930  1.00  0.00    -0.101 NA
HETATM   18  N4  UNL     1      27.448   2.643  52.252  1.00  0.00    -0.251 N 
HETATM   19  C12 UNL     1      26.212   2.730  51.597  1.00  0.00     0.336 C 
HETATM   20  O1  UNL     1      25.722   2.464  50.521  1.00  0.00    -0.246 OA
HETATM   21  N5  UNL     1      25.116   3.247  52.267  1.00  0.00    -0.308 N 
HETATM   22  H11 UNL     1      28.032   2.205  51.471  1.00  0.00     0.187 HD
HETATM   23  H12 UNL     1      25.084   3.707  53.174  1.00  0.00     0.170 HD
ENDROOT
TORSDOF 0
ENDMDL
MODEL 2
REMARK VINA RESULT:      -7.8      3.250      5.028
REMARK  0 active torsions:
REMARK  status: ('A' for Active; 'I' for Inactive)
ROOT
HETATM    1  C1  UNL     1      26.171   4.186  49.425  1.00  0.00     0.038 C 
HETATM    2  C2  UNL     1      26.383   2.982  50.274  1.00  0.00    -0.002 C 
HETATM    3  C3  UNL     1      25.331   2.867  50.979  1.00  0.00     0.034 C 
HETATM    4  C4  UNL     1      25.481   1.704  51.830  1.00  0.00     0.063 C 
HETATM    5  C5  UNL     1      25.719   0.638  52.553  1.00  0.00     0.085 A 
HETATM    6  N1  UNL     1      26.988   0.062  52.267  1.00  0.00    -0.240 NA
HETATM    7  C6  UNL     1      27.078  -1.005  53.030  1.00  0.00     0.234 A 
HETATM    8  N2  UNL     1      25.883  -1.095  53.777  1.00  0.00    -0.244 NA
HETATM    9  C7  UNL     1      25.042  -0.164  53.548  1.00  0.00     0.066 A 
HETATM   10  C8  UNL     1      23.716   0.472  53.839  1.00  0.00     0.088 C 
HETATM   11  C9  UNL     1      22.728   0.072  52.813  1.00  0.00     0.146 C 
HETATM   12 CL1  UNL     1      22.247  -1.615  52.942  1.00  0.00    -0.117 Cl
HETATM   13  C10 UNL     1      21.495   0.935  53.007  1.00  0.00     0.101 C 
HETATM   14  F1  UNL     1      20.874   0.775  54.201  1.00  0.00    -0.213 F 
HETATM   15  C11 UNL     1      20.612   1.877  52.558  1.00  0.00     0.113 C 
HETATM   16  P1  UNL     1      19.616   3.158  51.649  1.00  0.00     0.060 P 
HETATM   17  N3  UNL     1      20.482   4.547  51.094  1.00  0.00    -0.101 NA
HETATM   18  N4  UNL     1      21.877   4.403  51.480  1.00  0.00    -0.251 N 
HETATM   19  C12 UNL     1      23.221   4.265  51.853  1.00  0.00     0.336 C 
HETATM   20  O1  UNL     1      23.975   4.643  52.723  1.00  0.00    -0.246 OA
HETATM   21  N5  UNL     1      24.064   3.470  51.097  1.00  0.00    -0.308 N 
HETATM   22  H11 UNL     1      21.540   5.048  52.262  1.00  0.00     0.187 HD
HETATM   23  H12 UNL     1      23.887   3.033  50.195  1.00  0.00     0.170 HD
ENDROOT
TORSDOF 0
ENDMDL
MODEL 3
REMARK VINA RESULT:      -7.8      1.454      1.796
REMARK  0 active torsions:
REMARK  status: ('A' for Active; 'I' for Inactive)
ROOT
HETATM    1  C1  UNL     1      24.147   6.658  51.289  1.00  0.00     0.038 C 
HETATM    2  C2  UNL     1      22.987   5.736  51.416  1.00  0.00    -0.002 C 
HETATM    3  C3  UNL     1      23.481   4.570  51.520  1.00  0.00     0.034 C 
HETATM    4  C4  UNL     1      22.391   3.623  51.647  1.00  0.00     0.063 C 
HETATM    5  C5  UNL     1      21.335   2.857  51.755  1.00  0.00     0.085 A 
HETATM    6  N1  UNL     1      20.122   3.599  51.724  1.00  0.00    -0.240 NA
HETATM    7  C6  UNL     1      19.158   2.717  51.875  1.00  0.00     0.234 A 
HETATM    8  N2  UNL     1      19.760   1.446  52.000  1.00  0.00    -0.244 NA
HETATM    9  C7  UNL     1      21.034   1.454  51.938  1.00  0.00     0.066 A 
HETATM   10  C8  UNL     1      22.327   0.696  51.953  1.00  0.00     0.088 C 
HETATM   11  C9  UNL     1      22.936   0.764  53.300  1.00  0.00     0.146 C 
HETATM   12 CL1  UNL     1      22.062  -0.180  54.499  1.00  0.00    -0.117 Cl
HETATM   13  C10 UNL     1      24.345   0.208  53.191  1.00  0.00     0.101 C 
HETATM   14  F1  UNL     1      24.413  -1.093  52.820  1.00  0.00    -0.213 F 
HETATM   15  C11 UNL     1      25.700   0.360  53.281  1.00  0.00     0.113 C 
HETATM   16  P1  UNL     1      27.464   0.906  53.498  1.00  0.00     0.060 P 
HETATM   17  N3  UNL     1      27.956   2.287  52.581  1.00  0.00    -0.101 NA
HETATM   18  N4  UNL     1      26.819   2.745  51.798  1.00  0.00    -0.251 N 
HETATM   19  C12 UNL     1      25.725   3.186  51.041  1.00  0.00     0.336 C 
HETATM   20  O1  UNL     1      25.292   3.095  49.912  1.00  0.00    -0.246 OA
HETATM   21  N5  UNL     1      24.747   3.963  51.637  1.00  0.00    -0.308 N 
HETATM   22  H11 UNL     1      27.339   2.188  51.049  1.00  0.00     0.187 HD
HETATM   23  H12 UNL     1      24.749   4.388  52.562  1.00  0.00     0.170 HD
ENDROOT
TORSDOF 0
ENDMDL
MODEL 4
REMARK VINA RESULT:      -7.7      3.048      4.516
REMARK  0 active torsions:
REMARK  status: ('A' for Active; 'I' for Inactive)
ROOT
HETATM    1  C1  UNL     1      27.468  -1.350  52.873  1.00  0.00     0.038 C 
HETATM    2  C2  UNL     1      26.012  -1.342  53.178  1.00  0.00    -0.002 C 
HETATM    3  C3  UNL     1      25.597  -0.185  52.854  1.00  0.00     0.034 C 
HETATM    4  C4  UNL     1      24.177  -0.118  53.131  1.00  0.00     0.063 C 
HETATM    5  C5  UNL     1      22.899  -0.165  53.418  1.00  0.00     0.085 A 
HETATM    6  N1  UNL     1      22.508  -1.428  53.940  1.00  0.00    -0.240 NA
HETATM    7  C6  UNL     1      21.212  -1.344  54.148  1.00  0.00     0.234 A 
HETATM    8  N2  UNL     1      20.802  -0.050  53.759  1.00  0.00    -0.244 NA
HETATM    9  C7  UNL     1      21.741   0.695  53.322  1.00  0.00     0.066 A 
HETATM   10  C8  UNL     1      22.184   2.022  52.782  1.00  0.00     0.088 C 
HETATM   11  C9  UNL     1      22.286   1.958  51.307  1.00  0.00     0.146 C 
HETATM   12 CL1  UNL     1      20.720   1.859  50.513  1.00  0.00    -0.117 Cl
HETATM   13  C10 UNL     1      22.976   3.228  50.844  1.00  0.00     0.101 C 
HETATM   14  F1  UNL     1      22.302   4.371  51.119  1.00  0.00    -0.213 F 
HETATM   15  C11 UNL     1      24.021   3.868  50.239  1.00  0.00     0.113 C 
HETATM   16  P1  UNL     1      25.576   4.405  49.372  1.00  0.00     0.060 P 
HETATM   17  N3  UNL     1      27.065   3.870  50.068  1.00  0.00    -0.101 NA
HETATM   18  N4  UNL     1      26.759   3.072  51.246  1.00  0.00    -0.251 N 
HETATM   19  C12 UNL     1      26.466   2.305  52.381  1.00  0.00     0.336 C 
HETATM   20  O1  UNL     1      26.415   2.430  53.586  1.00  0.00    -0.246 OA
HETATM   21  N5  UNL     1      26.089   0.981  52.235  1.00  0.00    -0.308 N 
HETATM   22  H11 UNL     1      26.990   4.004  51.716  1.00  0.00     0.187 HD
HETATM   23  H12 UNL     1      26.100   0.406  51.396  1.00  0.00     0.170 HD
ENDROOT
TORSDOF 0
ENDMDL
MODEL 5
REMARK VINA RESULT:      -7.4      3.206      3.726
REMARK  0 active torsions:
REMARK  status: ('A' for Active; 'I' for Inactive)
ROOT
HETATM    1  C1  UNL     1      19.376   3.605  51.528  1.00  0.00     0.038 C 
HETATM    2  C2  UNL     1      20.043   2.556  52.345  1.00  0.00    -0.002 C 
HETATM    3  C3  UNL     1      21.214   2.437  51.867  1.00  0.00     0.034 C 
HETATM    4  C4  UNL     1      21.915   1.423  52.628  1.00  0.00     0.063 C 
HETATM    5  C5  UNL     1      22.454   0.494  53.378  1.00  0.00     0.085 A 
HETATM    6  N1  UNL     1      21.561   0.022  54.380  1.00  0.00    -0.240 NA
HETATM    7  C6  UNL     1      22.238  -0.870  55.071  1.00  0.00     0.234 A 
HETATM    8  N2  UNL     1      23.531  -0.951  54.510  1.00  0.00    -0.244 NA
HETATM    9  C7  UNL     1      23.727  -0.179  53.514  1.00  0.00     0.066 A 
HETATM   10  C8  UNL     1      24.641   0.327  52.439  1.00  0.00     0.088 C 
HETATM   11  C9  UNL     1      25.250   1.610  52.857  1.00  0.00     0.146 C 
HETATM   12 CL1  UNL     1      26.433   1.423  54.145  1.00  0.00    -0.117 Cl
HETATM   13  C10 UNL     1      25.953   2.196  51.646  1.00  0.00     0.101 C 
HETATM   14  F1  UNL     1      26.971   1.443  51.163  1.00  0.00    -0.213 F 
HETATM   15  C11 UNL     1      26.098   3.178  50.707  1.00  0.00     0.113 C 
HETATM   16  P1  UNL     1      26.018   4.671  49.601  1.00  0.00     0.060 P 
HETATM   17  N3  UNL     1      24.494   4.983  48.847  1.00  0.00    -0.101 NA
HETATM   18  N4  UNL     1      23.556   3.954  49.266  1.00  0.00    -0.251 N 
HETATM   19  C12 UNL     1      22.652   2.961  49.667  1.00  0.00     0.336 C 
HETATM   20  O1  UNL     1      22.186   1.921  49.254  1.00  0.00    -0.246 OA
HETATM   21  N5  UNL     1      22.031   3.057  50.901  1.00  0.00    -0.308 N 
HETATM   22  H11 UNL     1      23.836   3.563  48.311  1.00  0.00     0.187 HD
HETATM   23  H12 UNL     1      22.037   3.835  51.557  1.00  0.00     0.170 HD
ENDROOT
TORSDOF 0
ENDMDL
MODEL 6
REMARK VINA RESULT:      -7.4      3.001      5.220
REMARK  0 active torsions:
REMARK  status: ('A' for Active; 'I' for Inactive)
ROOT
HETATM    1  C1  UNL     1      20.331   2.831  48.883  1.00  0.00     0.038 C 
HETATM    2  C2  UNL     1      21.797   3.036  49.035  1.00  0.00    -0.002 C 
HETATM    3  C3  UNL     1      22.101   2.538  50.164  1.00  0.00     0.034 C 
HETATM    4  C4  UNL     1      23.525   2.709  50.368  1.00  0.00     0.063 C 
HETATM    5  C5  UNL     1      24.816   2.916  50.450  1.00  0.00     0.085 A 
HETATM    6  N1  UNL     1      25.334   3.572  49.300  1.00  0.00    -0.240 NA
HETATM    7  C6  UNL     1      26.629   3.681  49.502  1.00  0.00     0.234 A 
HETATM    8  N2  UNL     1      26.913   3.101  50.757  1.00  0.00    -0.244 NA
HETATM    9  C7  UNL     1      25.896   2.633  51.368  1.00  0.00     0.066 A 
HETATM   10  C8  UNL     1      25.321   1.955  52.576  1.00  0.00     0.088 C 
HETATM   11  C9  UNL     1      25.142   0.511  52.306  1.00  0.00     0.146 C 
HETATM   12 CL1  UNL     1      26.664  -0.365  52.212  1.00  0.00    -0.117 Cl
HETATM   13  C10 UNL     1      24.330  -0.068  53.450  1.00  0.00     0.101 C 
HETATM   14  F1  UNL     1      24.926   0.011  54.665  1.00  0.00    -0.213 F 
HETATM   15  C11 UNL     1      23.205  -0.681  53.928  1.00  0.00     0.113 C 
HETATM   16  P1  UNL     1      21.567  -1.507  54.232  1.00  0.00     0.060 P 
HETATM   17  N3  UNL     1      20.166  -0.650  53.692  1.00  0.00    -0.101 NA
HETATM   18  N4  UNL     1      20.599   0.598  53.084  1.00  0.00    -0.251 N 
HETATM   19  C12 UNL     1      21.014   1.802  52.500  1.00  0.00     0.336 C 
HETATM   20  O1  UNL     1      21.122   2.974  52.789  1.00  0.00    -0.246 OA
HETATM   21  N5  UNL     1      21.485   1.806  51.198  1.00  0.00    -0.308 N 
HETATM   22  H11 UNL     1      20.322   0.957  54.052  1.00  0.00     0.187 HD
HETATM   23  H12 UNL     1      21.473   1.051  50.515  1.00  0.00     0.170 HD
ENDROOT
TORSDOF 0
ENDMDL
MODEL 7
REMARK VINA RESULT:      -7.2      3.925      5.311
REMARK  0 active torsions:
REMARK  status: ('A' for Active; 'I' for Inactive)
ROOT
HETATM    1  C1  UNL     1      26.454   1.833  51.292  1.00  0.00     0.038 C 
HETATM    2  C2  UNL     1      25.548   1.053  52.177  1.00  0.00    -0.002 C 
HETATM    3  C3  UNL     1      24.409   1.609  52.084  1.00  0.00     0.034 C 
HETATM    4  C4  UNL     1      23.480   0.888  52.930  1.00  0.00     0.063 C 
HETATM    5  C5  UNL     1      22.727   0.167  53.722  1.00  0.00     0.085 A 
HETATM    6  N1  UNL     1      23.446  -0.899  54.331  1.00  0.00    -0.240 NA
HETATM    7  C6  UNL     1      22.569  -1.551  55.063  1.00  0.00     0.234 A 
HETATM    8  N2  UNL     1      21.324  -0.903  54.911  1.00  0.00    -0.244 NA
HETATM    9  C7  UNL     1      21.344   0.112  54.139  1.00  0.00     0.066 A 
HETATM   10  C8  UNL     1      20.614   1.252  53.496  1.00  0.00     0.088 C 
HETATM   11  C9  UNL     1      20.234   0.891  52.112  1.00  0.00     0.146 C 
HETATM   12 CL1  UNL     1      18.955  -0.314  52.042  1.00  0.00    -0.117 Cl
HETATM   13  C10 UNL     1      19.736   2.153  51.432  1.00  0.00     0.101 C 
HETATM   14  F1  UNL     1      18.627   2.697  51.990  1.00  0.00    -0.213 F 
HETATM   15  C11 UNL     1      19.842   3.110  50.461  1.00  0.00     0.113 C 
HETATM   16  P1  UNL     1      20.276   4.224  49.037  1.00  0.00     0.060 P 
HETATM   17  N3  UNL     1      21.878   4.874  49.035  1.00  0.00    -0.101 NA
HETATM   18  N4  UNL     1      22.574   4.381  50.213  1.00  0.00    -0.251 N 
HETATM   19  C12 UNL     1      23.245   3.908  51.349  1.00  0.00     0.336 C 
HETATM   20  O1  UNL     1      23.531   4.277  52.468  1.00  0.00    -0.246 OA
HETATM   21  N5  UNL     1      23.790   2.635  51.343  1.00  0.00    -0.308 N 
HETATM   22  H11 UNL     1      22.289   5.348  50.566  1.00  0.00     0.187 HD
HETATM   23  H12 UNL     1      23.889   1.990  50.563  1.00  0.00     0.170 HD
ENDROOT
TORSDOF 0
ENDMDL
MODEL 8
REMARK VINA RESULT:      -6.8      8.933     11.352
REMARK  0 active torsions:
REMARK  status: ('A' for Active; 'I' for Inactive)
ROOT
HETATM    1  C1  UNL     1      26.815   5.546  48.845  1.00  0.00     0.038 C 
HETATM    2  C2  UNL     1      28.186   5.107  48.469  1.00  0.00    -0.002 C 
HETATM    3  C3  UNL     1      28.798   6.160  48.104  1.00  0.00     0.034 C 
HETATM    4  C4  UNL     1      30.147   5.792  47.723  1.00  0.00     0.063 C 
HETATM    5  C5  UNL     1      31.339   5.351  47.405  1.00  0.00     0.085 A 
HETATM    6  N1  UNL     1      31.465   3.947  47.594  1.00  0.00    -0.240 NA
HETATM    7  C6  UNL     1      32.707   3.653  47.273  1.00  0.00     0.234 A 
HETATM    8  N2  UNL     1      33.343   4.854  46.892  1.00  0.00    -0.244 NA
HETATM    9  C7  UNL     1      32.599   5.889  46.945  1.00  0.00     0.066 A 
HETATM   10  C8  UNL     1      32.433   7.365  46.741  1.00  0.00     0.088 C 
HETATM   11  C9  UNL     1      32.577   8.072  48.033  1.00  0.00     0.146 C 
HETATM   12 CL1  UNL     1      34.230   8.073  48.636  1.00  0.00    -0.117 Cl
HETATM   13  C10 UNL     1      32.150   9.512  47.814  1.00  0.00     0.101 C 
HETATM   14  F1  UNL     1      32.911  10.200  46.929  1.00  0.00    -0.213 F 
HETATM   15  C11 UNL     1      31.317  10.564  48.072  1.00  0.00     0.113 C 
HETATM   16  P1  UNL     1      30.018  11.765  48.647  1.00  0.00     0.060 P 
HETATM   17  N3  UNL     1      28.374  11.264  48.453  1.00  0.00    -0.101 NA
HETATM   18  N4  UNL     1      28.366   9.941  47.850  1.00  0.00    -0.251 N 
HETATM   19  C12 UNL     1      28.357   8.666  47.267  1.00  0.00     0.336 C 
HETATM   20  O1  UNL     1      28.218   8.156  46.176  1.00  0.00    -0.246 OA
HETATM   21  N5  UNL     1      28.577   7.550  48.055  1.00  0.00    -0.308 N 
HETATM   22  H11 UNL     1      28.184  10.535  46.981  1.00  0.00     0.187 HD
HETATM   23  H12 UNL     1      28.634   7.489  49.070  1.00  0.00     0.170 HD
ENDROOT
TORSDOF 0
ENDMDL
MODEL 9
REMARK VINA RESULT:      -6.7      3.678      5.784
REMARK  0 active torsions:
REMARK  status: ('A' for Active; 'I' for Inactive)
ROOT
HETATM    1  C1  UNL     1      21.879   3.004  47.293  1.00  0.00     0.038 C 
HETATM    2  C2  UNL     1      22.984   2.892  48.282  1.00  0.00    -0.002 C 
HETATM    3  C3  UNL     1      22.434   2.570  49.381  1.00  0.00     0.034 C 
HETATM    4  C4  UNL     1      23.469   2.445  50.388  1.00  0.00     0.063 C 
HETATM    5  C5  UNL     1      24.479   2.360  51.217  1.00  0.00     0.085 A 
HETATM    6  N1  UNL     1      25.722   2.640  50.586  1.00  0.00    -0.240 NA
HETATM    7  C6  UNL     1      26.639   2.486  51.516  1.00  0.00     0.234 A 
HETATM    8  N2  UNL     1      25.978   2.115  52.707  1.00  0.00    -0.244 NA
HETATM    9  C7  UNL     1      24.710   2.023  52.604  1.00  0.00     0.066 A 
HETATM   10  C8  UNL     1      23.384   1.747  53.247  1.00  0.00     0.088 C 
HETATM   11  C9  UNL     1      22.962   0.359  52.957  1.00  0.00     0.146 C 
HETATM   12 CL1  UNL     1      23.923  -0.845  53.805  1.00  0.00    -0.117 Cl
HETATM   13  C10 UNL     1      21.519   0.218  53.406  1.00  0.00     0.101 C 
HETATM   14  F1  UNL     1      21.320   0.395  54.735  1.00  0.00    -0.213 F 
HETATM   15  C11 UNL     1      20.199  -0.013  53.134  1.00  0.00     0.113 C 
HETATM   16  P1  UNL     1      18.517  -0.363  52.424  1.00  0.00     0.060 P 
HETATM   17  N3  UNL     1      18.000   0.670  51.138  1.00  0.00    -0.101 NA
HETATM   18  N4  UNL     1      19.051   1.641  50.878  1.00  0.00    -0.251 N 
HETATM   19  C12 UNL     1      20.063   2.578  50.629  1.00  0.00     0.336 C 
HETATM   20  O1  UNL     1      20.338   3.727  50.900  1.00  0.00    -0.246 OA
HETATM   21  N5  UNL     1      21.158   2.217  49.863  1.00  0.00    -0.308 N 
HETATM   22  H11 UNL     1      18.403   2.236  51.484  1.00  0.00     0.187 HD
HETATM   23  H12 UNL     1      21.304   1.366  49.323  1.00  0.00     0.170 HD
ENDROOT
TORSDOF 0
ENDMDL
