MODEL 1
REMARK VINA RESULT:      -7.1      0.000      0.000
REMARK  7 active torsions:
REMARK  status: ('A' for Active; 'I' for Inactive)
REMARK    1  A    between atoms: C1_2  and  C2_3 
REMARK    2  A    between atoms: C2_3  and  C3_4 
REMARK    3  A    between atoms: C4_5  and  N1_6 
REMARK    4  A    between atoms: N1_6  and  C5_7 
REMARK    5  A    between atoms: C12_16  and  C13_17 
REMARK    6  A    between atoms: C13_17  and  C14_18 
REMARK    7  A    between atoms: C14_18  and  C15_19 
ROOT
HETATM    1  C5  UNL     1      22.906   5.027  50.206  1.00  0.00     0.032 C 
HETATM    2  C6  UNL     1      23.287   3.743  50.432  1.00  0.00    -0.040 C 
HETATM    3  C7  UNL     1      23.159   2.597  49.513  1.00  0.00     0.066 C 
HETATM    4  C8  UNL     1      22.451   1.440  50.224  1.00  0.00     0.002 C 
HETATM    5  C9  UNL     1      21.650   1.455  51.334  1.00  0.00     0.140 C 
HETATM    6  O1  UNL     1      21.796   2.358  52.460  1.00  0.00    -0.308 OA
HETATM    7  C10 UNL     1      22.267   3.689  52.343  1.00  0.00     0.148 C 
HETATM    8  N2  UNL     1      22.062   4.966  52.427  1.00  0.00    -0.264 NA
HETATM    9  C11 UNL     1      22.612   5.910  51.411  1.00  0.00     0.208 C 
HETATM   10  C12 UNL     1      23.738   3.647  51.886  1.00  0.00     0.093 C 
ENDROOT
BRANCH  10  11
HETATM   11  C13 UNL     1      24.475   2.448  52.276  1.00  0.00     0.020 C 
BRANCH  11  12
HETATM   12  C14 UNL     1      25.145   2.430  53.601  1.00  0.00     0.039 C 
BRANCH  12  13
HETATM   13  C15 UNL     1      26.447   1.612  53.567  1.00  0.00     0.244 C 
HETATM   14  C16 UNL     1      26.427   0.540  54.645  1.00  0.00     0.203 C 
HETATM   15  O2  UNL     1      27.530  -0.273  54.435  1.00  0.00    -0.387 OA
HETATM   16  C17 UNL     1      28.706   0.430  54.624  1.00  0.00     0.197 C 
HETATM   17  C18 UNL     1      28.774   1.714  53.850  1.00  0.00     0.296 C 
HETATM   18  N3  UNL     1      27.562   2.489  53.924  1.00  0.00     0.092 N 
HETATM   19  H26 UNL     1      27.393   2.742  54.944  1.00  0.00     0.316 HD
ENDBRANCH  12  13
ENDBRANCH  11  12
ENDBRANCH  10  11
BRANCH   1  20
HETATM   20  N1  UNL     1      22.870   5.178  48.760  1.00  0.00    -0.368 N 
HETATM   21  H7  UNL     1      22.089   4.788  48.194  1.00  0.00     0.165 HD
BRANCH  20  22
HETATM   22  C4  UNL     1      24.001   5.899  48.286  1.00  0.00     0.084 C 
HETATM   23  C3  UNL     1      25.229   5.739  48.752  1.00  0.00    -0.009 C 
BRANCH  23  24
HETATM   24  C2  UNL     1      26.600   6.293  48.511  1.00  0.00     0.043 C 
BRANCH  24  25
HETATM   25  C1  UNL     1      27.618   5.149  48.615  1.00  0.00     0.118 C 
HETATM   26 CL1  UNL     1      26.908   3.685  49.297  1.00  0.00    -0.130 Cl
ENDBRANCH  24  25
ENDBRANCH  23  24
ENDBRANCH  20  22
ENDBRANCH   1  20
TORSDOF 7
ENDMDL
MODEL 2
REMARK VINA RESULT:      -7.1      2.363      4.793
REMARK  7 active torsions:
REMARK  status: ('A' for Active; 'I' for Inactive)
REMARK    1  A    between atoms: C1_2  and  C2_3 
REMARK    2  A    between atoms: C2_3  and  C3_4 
REMARK    3  A    between atoms: C4_5  and  N1_6 
REMARK    4  A    between atoms: N1_6  and  C5_7 
REMARK    5  A    between atoms: C12_16  and  C13_17 
REMARK    6  A    between atoms: C13_17  and  C14_18 
REMARK    7  A    between atoms: C14_18  and  C15_19 
ROOT
HETATM    1  C5  UNL     1      21.637   2.174  51.189  1.00  0.00     0.032 C 
HETATM    2  C6  UNL     1      22.648   2.907  51.724  1.00  0.00    -0.040 C 
HETATM    3  C7  UNL     1      22.531   4.118  52.557  1.00  0.00     0.066 C 
HETATM    4  C8  UNL     1      23.394   5.237  51.968  1.00  0.00     0.002 C 
HETATM    5  C9  UNL     1      23.885   5.386  50.699  1.00  0.00     0.140 C 
HETATM    6  O1  UNL     1      24.294   4.301  49.826  1.00  0.00    -0.308 OA
HETATM    7  C10 UNL     1      23.682   3.023  49.823  1.00  0.00     0.148 C 
HETATM    8  N2  UNL     1      22.975   2.116  49.225  1.00  0.00    -0.264 NA
HETATM    9  C11 UNL     1      21.937   1.332  49.957  1.00  0.00     0.208 C 
HETATM   10  C12 UNL     1      23.958   2.347  51.180  1.00  0.00     0.093 C 
ENDROOT
BRANCH  10  11
HETATM   11  C13 UNL     1      25.189   2.769  51.844  1.00  0.00     0.020 C 
BRANCH  11  12
HETATM   12  C14 UNL     1      25.398   2.377  53.261  1.00  0.00     0.039 C 
BRANCH  12  13
HETATM   13  C15 UNL     1      26.686   1.555  53.437  1.00  0.00     0.244 C 
HETATM   14  C16 UNL     1      26.509   0.522  54.539  1.00  0.00     0.203 C 
HETATM   15  O2  UNL     1      27.625  -0.300  54.513  1.00  0.00    -0.387 OA
HETATM   16  C17 UNL     1      28.768   0.407  54.839  1.00  0.00     0.197 C 
HETATM   17  C18 UNL     1      28.952   1.662  54.037  1.00  0.00     0.296 C 
HETATM   18  N3  UNL     1      27.748   2.442  53.914  1.00  0.00     0.092 N 
HETATM   19  H26 UNL     1      27.440   2.731  54.891  1.00  0.00     0.316 HD
ENDBRANCH  12  13
ENDBRANCH  11  12
ENDBRANCH  10  11
BRANCH   1  20
HETATM   20  N1  UNL     1      20.470   2.455  52.010  1.00  0.00    -0.368 N 
HETATM   21  H7  UNL     1      20.001   3.383  51.985  1.00  0.00     0.165 HD
BRANCH  20  22
HETATM   22  C4  UNL     1      20.105   1.326  52.795  1.00  0.00     0.084 C 
HETATM   23  C3  UNL     1      20.916   0.727  53.652  1.00  0.00    -0.009 C 
BRANCH  23  24
HETATM   24  C2  UNL     1      20.884  -0.429  54.604  1.00  0.00     0.043 C 
BRANCH  24  25
HETATM   25  C1  UNL     1      22.120  -1.305  54.357  1.00  0.00     0.118 C 
HETATM   26 CL1  UNL     1      23.238  -0.570  53.207  1.00  0.00    -0.130 Cl
ENDBRANCH  24  25
ENDBRANCH  23  24
ENDBRANCH  20  22
ENDBRANCH   1  20
TORSDOF 7
ENDMDL
MODEL 3
REMARK VINA RESULT:      -6.8      3.156      5.980
REMARK  7 active torsions:
REMARK  status: ('A' for Active; 'I' for Inactive)
REMARK    1  A    between atoms: C1_2  and  C2_3 
REMARK    2  A    between atoms: C2_3  and  C3_4 
REMARK    3  A    between atoms: C4_5  and  N1_6 
REMARK    4  A    between atoms: N1_6  and  C5_7 
REMARK    5  A    between atoms: C12_16  and  C13_17 
REMARK    6  A    between atoms: C13_17  and  C14_18 
REMARK    7  A    between atoms: C14_18  and  C15_19 
ROOT
HETATM    1  C5  UNL     1      22.659   2.592  50.811  1.00  0.00     0.032 C 
HETATM    2  C6  UNL     1      23.597   3.542  51.064  1.00  0.00    -0.040 C 
HETATM    3  C7  UNL     1      23.583   4.548  52.142  1.00  0.00     0.066 C 
HETATM    4  C8  UNL     1      23.797   5.944  51.550  1.00  0.00     0.002 C 
HETATM    5  C9  UNL     1      23.616   6.386  50.267  1.00  0.00     0.140 C 
HETATM    6  O1  UNL     1      23.834   5.596  49.070  1.00  0.00    -0.308 OA
HETATM    7  C10 UNL     1      23.608   4.199  49.000  1.00  0.00     0.148 C 
HETATM    8  N2  UNL     1      22.946   3.190  48.529  1.00  0.00    -0.264 NA
HETATM    9  C11 UNL     1      22.564   2.038  49.397  1.00  0.00     0.208 C 
HETATM   10  C12 UNL     1      24.615   3.495  49.929  1.00  0.00     0.093 C 
ENDROOT
BRANCH  10  11
HETATM   11  C13 UNL     1      25.873   4.208  50.135  1.00  0.00     0.020 C 
BRANCH  11  12
HETATM   12  C14 UNL     1      26.945   4.058  49.118  1.00  0.00     0.039 C 
BRANCH  12  13
HETATM   13  C15 UNL     1      27.349   5.415  48.517  1.00  0.00     0.244 C 
HETATM   14  C16 UNL     1      28.859   5.495  48.357  1.00  0.00     0.203 C 
HETATM   15  O2  UNL     1      29.135   6.649  47.641  1.00  0.00    -0.387 OA
HETATM   16  C17 UNL     1      28.772   7.775  48.359  1.00  0.00     0.197 C 
HETATM   17  C18 UNL     1      27.364   7.734  48.876  1.00  0.00     0.296 C 
HETATM   18  N3  UNL     1      27.011   6.471  49.472  1.00  0.00     0.092 N 
HETATM   19  H26 UNL     1      27.659   6.304  50.300  1.00  0.00     0.316 HD
ENDBRANCH  12  13
ENDBRANCH  11  12
ENDBRANCH  10  11
BRANCH   1  20
HETATM   20  N1  UNL     1      21.954   2.390  52.067  1.00  0.00    -0.368 N 
HETATM   21  H7  UNL     1      21.346   3.130  52.473  1.00  0.00     0.165 HD
BRANCH  20  22
HETATM   22  C4  UNL     1      22.219   1.101  52.608  1.00  0.00     0.084 C 
HETATM   23  C3  UNL     1      23.378   0.745  53.139  1.00  0.00    -0.009 C 
BRANCH  23  24
HETATM   24  C2  UNL     1      23.995  -0.463  53.775  1.00  0.00     0.043 C 
BRANCH  24  25
HETATM   25  C1  UNL     1      25.420  -0.632  53.232  1.00  0.00     0.118 C 
HETATM   26 CL1  UNL     1      25.838   0.619  52.059  1.00  0.00    -0.130 Cl
ENDBRANCH  24  25
ENDBRANCH  23  24
ENDBRANCH  20  22
ENDBRANCH   1  20
TORSDOF 7
ENDMDL
MODEL 4
REMARK VINA RESULT:      -6.7      2.723      6.179
REMARK  7 active torsions:
REMARK  status: ('A' for Active; 'I' for Inactive)
REMARK    1  A    between atoms: C1_2  and  C2_3 
REMARK    2  A    between atoms: C2_3  and  C3_4 
REMARK    3  A    between atoms: C4_5  and  N1_6 
REMARK    4  A    between atoms: N1_6  and  C5_7 
REMARK    5  A    between atoms: C12_16  and  C13_17 
REMARK    6  A    between atoms: C13_17  and  C14_18 
REMARK    7  A    between atoms: C14_18  and  C15_19 
ROOT
HETATM    1  C5  UNL     1      25.474   2.877  51.765  1.00  0.00     0.032 C 
HETATM    2  C6  UNL     1      25.045   3.216  50.521  1.00  0.00    -0.040 C 
HETATM    3  C7  UNL     1      25.782   3.979  49.497  1.00  0.00     0.066 C 
HETATM    4  C8  UNL     1      24.925   5.148  49.004  1.00  0.00     0.002 C 
HETATM    5  C9  UNL     1      23.854   5.758  49.600  1.00  0.00     0.140 C 
HETATM    6  O1  UNL     1      22.873   5.096  50.440  1.00  0.00    -0.308 OA
HETATM    7  C10 UNL     1      23.178   4.003  51.289  1.00  0.00     0.148 C 
HETATM    8  N2  UNL     1      23.294   3.501  52.478  1.00  0.00    -0.264 NA
HETATM    9  C11 UNL     1      24.426   2.596  52.832  1.00  0.00     0.208 C 
HETATM   10  C12 UNL     1      23.581   2.802  50.412  1.00  0.00     0.093 C 
ENDROOT
BRANCH  10  11
HETATM   11  C13 UNL     1      22.993   2.784  49.075  1.00  0.00     0.020 C 
BRANCH  11  12
HETATM   12  C14 UNL     1      22.037   1.699  48.737  1.00  0.00     0.039 C 
BRANCH  12  13
HETATM   13  C15 UNL     1      20.917   1.583  49.785  1.00  0.00     0.244 C 
HETATM   14  C16 UNL     1      21.125   0.350  50.649  1.00  0.00     0.203 C 
HETATM   15  O2  UNL     1      20.202   0.411  51.681  1.00  0.00    -0.387 OA
HETATM   16  C17 UNL     1      18.910   0.318  51.195  1.00  0.00     0.197 C 
HETATM   17  C18 UNL     1      18.609   1.285  50.087  1.00  0.00     0.296 C 
HETATM   18  N3  UNL     1      19.649   1.353  49.092  1.00  0.00     0.092 N 
HETATM   19  H26 UNL     1      19.751   0.389  48.654  1.00  0.00     0.316 HD
ENDBRANCH  12  13
ENDBRANCH  11  12
ENDBRANCH  10  11
BRANCH   1  20
HETATM   20  N1  UNL     1      26.927   2.910  51.703  1.00  0.00    -0.368 N 
HETATM   21  H7  UNL     1      27.427   3.553  51.055  1.00  0.00     0.165 HD
BRANCH  20  22
HETATM   22  C4  UNL     1      27.505   1.983  52.613  1.00  0.00     0.084 C 
HETATM   23  C3  UNL     1      28.471   2.286  53.466  1.00  0.00    -0.009 C 
BRANCH  23  24
HETATM   24  C2  UNL     1      29.287   1.607  54.522  1.00  0.00     0.043 C 
BRANCH  24  25
HETATM   25  C1  UNL     1      28.895   0.124  54.569  1.00  0.00     0.118 C 
HETATM   26 CL1  UNL     1      29.843  -0.851  53.443  1.00  0.00    -0.130 Cl
ENDBRANCH  24  25
ENDBRANCH  23  24
ENDBRANCH  20  22
ENDBRANCH   1  20
TORSDOF 7
ENDMDL
MODEL 5
REMARK VINA RESULT:      -6.6      2.766      3.575
REMARK  7 active torsions:
REMARK  status: ('A' for Active; 'I' for Inactive)
REMARK    1  A    between atoms: C1_2  and  C2_3 
REMARK    2  A    between atoms: C2_3  and  C3_4 
REMARK    3  A    between atoms: C4_5  and  N1_6 
REMARK    4  A    between atoms: N1_6  and  C5_7 
REMARK    5  A    between atoms: C12_16  and  C13_17 
REMARK    6  A    between atoms: C13_17  and  C14_18 
REMARK    7  A    between atoms: C14_18  and  C15_19 
ROOT
HETATM    1  C5  UNL     1      24.070   4.958  50.378  1.00  0.00     0.032 C 
HETATM    2  C6  UNL     1      23.783   3.644  50.191  1.00  0.00    -0.040 C 
HETATM    3  C7  UNL     1      23.488   2.966  48.915  1.00  0.00     0.066 C 
HETATM    4  C8  UNL     1      22.175   2.188  49.032  1.00  0.00     0.002 C 
HETATM    5  C9  UNL     1      21.145   2.343  49.921  1.00  0.00     0.140 C 
HETATM    6  O1  UNL     1      21.286   2.760  51.303  1.00  0.00    -0.308 OA
HETATM    7  C10 UNL     1      22.282   3.663  51.752  1.00  0.00     0.148 C 
HETATM    8  N2  UNL     1      22.615   4.811  52.252  1.00  0.00    -0.264 NA
HETATM    9  C11 UNL     1      23.804   5.561  51.751  1.00  0.00     0.208 C 
HETATM   10  C12 UNL     1      23.660   3.000  51.567  1.00  0.00     0.093 C 
ENDROOT
BRANCH  10  11
HETATM   11  C13 UNL     1      23.659   1.540  51.621  1.00  0.00     0.020 C 
BRANCH  11  12
HETATM   12  C14 UNL     1      23.957   0.880  52.918  1.00  0.00     0.039 C 
BRANCH  12  13
HETATM   13  C15 UNL     1      22.677   0.365  53.598  1.00  0.00     0.244 C 
HETATM   14  C16 UNL     1      22.958  -0.929  54.344  1.00  0.00     0.203 C 
HETATM   15  O2  UNL     1      21.825  -1.231  55.084  1.00  0.00    -0.387 OA
HETATM   16  C17 UNL     1      20.751  -1.500  54.255  1.00  0.00     0.197 C 
HETATM   17  C18 UNL     1      20.506  -0.440  53.220  1.00  0.00     0.296 C 
HETATM   18  N3  UNL     1      21.708   0.004  52.563  1.00  0.00     0.092 N 
HETATM   19  H26 UNL     1      22.141  -0.832  52.066  1.00  0.00     0.316 HD
ENDBRANCH  12  13
ENDBRANCH  11  12
ENDBRANCH  10  11
BRANCH   1  20
HETATM   20  N1  UNL     1      24.566   5.440  49.098  1.00  0.00    -0.368 N 
HETATM   21  H7  UNL     1      23.960   5.452  48.253  1.00  0.00     0.165 HD
BRANCH  20  22
HETATM   22  C4  UNL     1      25.921   5.862  49.194  1.00  0.00     0.084 C 
HETATM   23  C3  UNL     1      26.932   5.247  48.601  1.00  0.00    -0.009 C 
BRANCH  23  24
HETATM   24  C2  UNL     1      28.417   5.394  48.480  1.00  0.00     0.043 C 
BRANCH  24  25
HETATM   25  C1  UNL     1      28.758   6.887  48.379  1.00  0.00     0.118 C 
HETATM   26 CL1  UNL     1      28.089   7.626  46.922  1.00  0.00    -0.130 Cl
ENDBRANCH  24  25
ENDBRANCH  23  24
ENDBRANCH  20  22
ENDBRANCH   1  20
TORSDOF 7
ENDMDL
MODEL 6
REMARK VINA RESULT:      -6.4      3.113      5.461
REMARK  7 active torsions:
REMARK  status: ('A' for Active; 'I' for Inactive)
REMARK    1  A    between atoms: C1_2  and  C2_3 
REMARK    2  A    between atoms: C2_3  and  C3_4 
REMARK    3  A    between atoms: C4_5  and  N1_6 
REMARK    4  A    between atoms: N1_6  and  C5_7 
REMARK    5  A    between atoms: C12_16  and  C13_17 
REMARK    6  A    between atoms: C13_17  and  C14_18 
REMARK    7  A    between atoms: C14_18  and  C15_19 
ROOT
HETATM    1  C5  UNL     1      20.612   1.826  49.771  1.00  0.00     0.032 C 
HETATM    2  C6  UNL     1      21.254   2.226  50.899  1.00  0.00    -0.040 C 
HETATM    3  C7  UNL     1      20.739   3.121  51.952  1.00  0.00     0.066 C 
HETATM    4  C8  UNL     1      21.739   4.253  52.203  1.00  0.00     0.002 C 
HETATM    5  C9  UNL     1      22.740   4.729  51.400  1.00  0.00     0.140 C 
HETATM    6  O1  UNL     1      23.530   3.928  50.482  1.00  0.00    -0.308 OA
HETATM    7  C10 UNL     1      23.023   2.800  49.790  1.00  0.00     0.148 C 
HETATM    8  N2  UNL     1      22.688   2.219  48.681  1.00  0.00    -0.264 NA
HETATM    9  C11 UNL     1      21.457   1.381  48.586  1.00  0.00     0.208 C 
HETATM   10  C12 UNL     1      22.686   1.707  50.821  1.00  0.00     0.093 C 
ENDROOT
BRANCH  10  11
HETATM   11  C13 UNL     1      23.476   1.746  52.049  1.00  0.00     0.020 C 
BRANCH  11  12
HETATM   12  C14 UNL     1      23.727   0.472  52.769  1.00  0.00     0.039 C 
BRANCH  12  13
HETATM   13  C15 UNL     1      25.218   0.293  53.100  1.00  0.00     0.244 C 
HETATM   14  C16 UNL     1      25.387  -0.611  54.311  1.00  0.00     0.203 C 
HETATM   15  O2  UNL     1      26.741  -0.883  54.434  1.00  0.00    -0.387 OA
HETATM   16  C17 UNL     1      27.452   0.269  54.721  1.00  0.00     0.197 C 
HETATM   17  C18 UNL     1      27.170   1.404  53.781  1.00  0.00     0.296 C 
HETATM   18  N3  UNL     1      25.767   1.586  53.511  1.00  0.00     0.092 N 
HETATM   19  H26 UNL     1      25.279   1.807  54.432  1.00  0.00     0.316 HD
ENDBRANCH  12  13
ENDBRANCH  11  12
ENDBRANCH  10  11
BRANCH   1  20
HETATM   20  N1  UNL     1      19.193   1.978  50.050  1.00  0.00    -0.368 N 
HETATM   21  H7  UNL     1      18.741   2.915  50.065  1.00  0.00     0.165 HD
BRANCH  20  22
HETATM   22  C4  UNL     1      18.573   0.719  50.282  1.00  0.00     0.084 C 
HETATM   23  C3  UNL     1      18.111   0.327  51.459  1.00  0.00    -0.009 C 
BRANCH  23  24
HETATM   24  C2  UNL     1      17.432  -0.868  52.055  1.00  0.00     0.043 C 
BRANCH  24  25
HETATM   25  C1  UNL     1      18.202  -1.296  53.312  1.00  0.00     0.118 C 
HETATM   26 CL1  UNL     1      19.793  -0.539  53.408  1.00  0.00    -0.130 Cl
ENDBRANCH  24  25
ENDBRANCH  23  24
ENDBRANCH  20  22
ENDBRANCH   1  20
TORSDOF 7
ENDMDL
MODEL 7
REMARK VINA RESULT:      -6.4      2.925      7.004
REMARK  7 active torsions:
REMARK  status: ('A' for Active; 'I' for Inactive)
REMARK    1  A    between atoms: C1_2  and  C2_3 
REMARK    2  A    between atoms: C2_3  and  C3_4 
REMARK    3  A    between atoms: C4_5  and  N1_6 
REMARK    4  A    between atoms: N1_6  and  C5_7 
REMARK    5  A    between atoms: C12_16  and  C13_17 
REMARK    6  A    between atoms: C13_17  and  C14_18 
REMARK    7  A    between atoms: C14_18  and  C15_19 
ROOT
HETATM    1  C5  UNL     1      25.846   2.733  51.813  1.00  0.00     0.032 C 
HETATM    2  C6  UNL     1      25.556   3.177  50.562  1.00  0.00    -0.040 C 
HETATM    3  C7  UNL     1      26.442   3.920  49.649  1.00  0.00     0.066 C 
HETATM    4  C8  UNL     1      25.737   5.189  49.161  1.00  0.00     0.002 C 
HETATM    5  C9  UNL     1      24.678   5.864  49.705  1.00  0.00     0.140 C 
HETATM    6  O1  UNL     1      23.575   5.254  50.424  1.00  0.00    -0.308 OA
HETATM    7  C10 UNL     1      23.708   4.094  51.226  1.00  0.00     0.148 C 
HETATM    8  N2  UNL     1      23.678   3.521  52.388  1.00  0.00    -0.264 NA
HETATM    9  C11 UNL     1      24.691   2.495  52.775  1.00  0.00     0.208 C 
HETATM   10  C12 UNL     1      24.075   2.909  50.313  1.00  0.00     0.093 C 
ENDROOT
BRANCH  10  11
HETATM   11  C13 UNL     1      23.603   3.017  48.935  1.00  0.00     0.020 C 
BRANCH  11  12
HETATM   12  C14 UNL     1      22.362   2.296  48.554  1.00  0.00     0.039 C 
BRANCH  12  13
HETATM   13  C15 UNL     1      21.371   3.219  47.825  1.00  0.00     0.244 C 
HETATM   14  C16 UNL     1      21.791   3.409  46.376  1.00  0.00     0.203 C 
HETATM   15  O2  UNL     1      20.764   4.084  45.736  1.00  0.00    -0.387 OA
HETATM   16  C17 UNL     1      20.611   5.358  46.255  1.00  0.00     0.197 C 
HETATM   17  C18 UNL     1      20.487   5.391  47.750  1.00  0.00     0.296 C 
HETATM   18  N3  UNL     1      21.447   4.553  48.421  1.00  0.00     0.092 N 
HETATM   19  H26 UNL     1      22.421   4.905  48.175  1.00  0.00     0.316 HD
ENDBRANCH  12  13
ENDBRANCH  11  12
ENDBRANCH  10  11
BRANCH   1  20
HETATM   20  N1  UNL     1      27.296   2.633  51.869  1.00  0.00    -0.368 N 
HETATM   21  H7  UNL     1      27.891   2.934  51.070  1.00  0.00     0.165 HD
BRANCH  20  22
HETATM   22  C4  UNL     1      27.730   2.093  53.111  1.00  0.00     0.084 C 
HETATM   23  C3  UNL     1      28.265   0.890  53.249  1.00  0.00    -0.009 C 
BRANCH  23  24
HETATM   24  C2  UNL     1      28.812   0.025  54.343  1.00  0.00     0.043 C 
BRANCH  24  25
HETATM   25  C1  UNL     1      29.851  -0.931  53.742  1.00  0.00     0.118 C 
HETATM   26 CL1  UNL     1      29.123  -2.438  53.180  1.00  0.00    -0.130 Cl
ENDBRANCH  24  25
ENDBRANCH  23  24
ENDBRANCH  20  22
ENDBRANCH   1  20
TORSDOF 7
ENDMDL
MODEL 8
REMARK VINA RESULT:      -6.3      3.215      6.730
REMARK  7 active torsions:
REMARK  status: ('A' for Active; 'I' for Inactive)
REMARK    1  A    between atoms: C1_2  and  C2_3 
REMARK    2  A    between atoms: C2_3  and  C3_4 
REMARK    3  A    between atoms: C4_5  and  N1_6 
REMARK    4  A    between atoms: N1_6  and  C5_7 
REMARK    5  A    between atoms: C12_16  and  C13_17 
REMARK    6  A    between atoms: C13_17  and  C14_18 
REMARK    7  A    between atoms: C14_18  and  C15_19 
ROOT
HETATM    1  C5  UNL     1      24.630   1.700  53.068  1.00  0.00     0.032 C 
HETATM    2  C6  UNL     1      23.968   2.449  52.148  1.00  0.00    -0.040 C 
HETATM    3  C7  UNL     1      23.933   3.919  52.051  1.00  0.00     0.066 C 
HETATM    4  C8  UNL     1      22.480   4.399  51.989  1.00  0.00     0.002 C 
HETATM    5  C9  UNL     1      21.332   3.761  52.375  1.00  0.00     0.140 C 
HETATM    6  O1  UNL     1      21.102   2.331  52.299  1.00  0.00    -0.308 OA
HETATM    7  C10 UNL     1      22.122   1.362  52.469  1.00  0.00     0.148 C 
HETATM    8  N2  UNL     1      22.648   0.390  53.146  1.00  0.00    -0.264 NA
HETATM    9  C11 UNL     1      24.123   0.291  53.344  1.00  0.00     0.208 C 
HETATM   10  C12 UNL     1      23.123   1.499  51.306  1.00  0.00     0.093 C 
ENDROOT
BRANCH  10  11
HETATM   11  C13 UNL     1      22.564   2.029  50.065  1.00  0.00     0.020 C 
BRANCH  11  12
HETATM   12  C14 UNL     1      21.739   1.129  49.220  1.00  0.00     0.039 C 
BRANCH  12  13
HETATM   13  C15 UNL     1      20.400   1.782  48.837  1.00  0.00     0.244 C 
HETATM   14  C16 UNL     1      20.542   3.294  48.788  1.00  0.00     0.203 C 
HETATM   15  O2  UNL     1      19.367   3.800  48.256  1.00  0.00    -0.387 OA
HETATM   16  C17 UNL     1      18.296   3.549  49.095  1.00  0.00     0.197 C 
HETATM   17  C18 UNL     1      18.176   2.112  49.509  1.00  0.00     0.296 C 
HETATM   18  N3  UNL     1      19.431   1.525  49.903  1.00  0.00     0.092 N 
HETATM   19  H26 UNL     1      19.800   2.068  50.741  1.00  0.00     0.316 HD
ENDBRANCH  12  13
ENDBRANCH  11  12
ENDBRANCH  10  11
BRANCH   1  20
HETATM   20  N1  UNL     1      25.699   2.548  53.572  1.00  0.00    -0.368 N 
HETATM   21  H7  UNL     1      25.499   3.364  54.185  1.00  0.00     0.165 HD
BRANCH  20  22
HETATM   22  C4  UNL     1      26.971   2.104  53.117  1.00  0.00     0.084 C 
HETATM   23  C3  UNL     1      27.758   1.287  53.799  1.00  0.00    -0.009 C 
BRANCH  23  24
HETATM   24  C2  UNL     1      29.098   0.635  53.647  1.00  0.00     0.043 C 
BRANCH  24  25
HETATM   25  C1  UNL     1      28.896  -0.881  53.521  1.00  0.00     0.118 C 
HETATM   26 CL1  UNL     1      27.312  -1.290  52.858  1.00  0.00    -0.130 Cl
ENDBRANCH  24  25
ENDBRANCH  23  24
ENDBRANCH  20  22
ENDBRANCH   1  20
TORSDOF 7
ENDMDL
MODEL 9
REMARK VINA RESULT:      -6.3      2.408      3.486
REMARK  7 active torsions:
REMARK  status: ('A' for Active; 'I' for Inactive)
REMARK    1  A    between atoms: C1_2  and  C2_3 
REMARK    2  A    between atoms: C2_3  and  C3_4 
REMARK    3  A    between atoms: C4_5  and  N1_6 
REMARK    4  A    between atoms: N1_6  and  C5_7 
REMARK    5  A    between atoms: C12_16  and  C13_17 
REMARK    6  A    between atoms: C13_17  and  C14_18 
REMARK    7  A    between atoms: C14_18  and  C15_19 
ROOT
HETATM    1  C5  UNL     1      23.244   2.946  49.017  1.00  0.00     0.032 C 
HETATM    2  C6  UNL     1      23.060   2.208  50.142  1.00  0.00    -0.040 C 
HETATM    3  C7  UNL     1      22.046   1.162  50.369  1.00  0.00     0.066 C 
HETATM    4  C8  UNL     1      21.279   1.456  51.662  1.00  0.00     0.002 C 
HETATM    5  C9  UNL     1      21.139   2.633  52.346  1.00  0.00     0.140 C 
HETATM    6  O1  UNL     1      22.148   3.673  52.439  1.00  0.00    -0.308 OA
HETATM    7  C10 UNL     1      23.065   3.971  51.401  1.00  0.00     0.148 C 
HETATM    8  N2  UNL     1      23.517   4.785  50.499  1.00  0.00    -0.264 NA
HETATM    9  C11 UNL     1      23.932   4.297  49.151  1.00  0.00     0.208 C 
HETATM   10  C12 UNL     1      23.997   2.759  51.211  1.00  0.00     0.093 C 
ENDROOT
BRANCH  10  11
HETATM   11  C13 UNL     1      24.201   1.940  52.403  1.00  0.00     0.020 C 
BRANCH  11  12
HETATM   12  C14 UNL     1      25.129   2.436  53.451  1.00  0.00     0.039 C 
BRANCH  12  13
HETATM   13  C15 UNL     1      26.419   1.601  53.508  1.00  0.00     0.244 C 
HETATM   14  C16 UNL     1      26.338   0.577  54.629  1.00  0.00     0.203 C 
HETATM   15  O2  UNL     1      27.437  -0.258  54.501  1.00  0.00    -0.387 OA
HETATM   16  C17 UNL     1      28.614   0.438  54.710  1.00  0.00     0.197 C 
HETATM   17  C18 UNL     1      28.733   1.686  53.886  1.00  0.00     0.296 C 
HETATM   18  N3  UNL     1      27.531   2.479  53.874  1.00  0.00     0.092 N 
HETATM   19  H26 UNL     1      27.322   2.777  54.875  1.00  0.00     0.316 HD
ENDBRANCH  12  13
ENDBRANCH  11  12
ENDBRANCH  10  11
BRANCH   1  20
HETATM   20  N1  UNL     1      22.658   2.169  47.936  1.00  0.00    -0.368 N 
HETATM   21  H7  UNL     1      22.957   1.191  47.748  1.00  0.00     0.165 HD
BRANCH  20  22
HETATM   22  C4  UNL     1      21.677   2.921  47.231  1.00  0.00     0.084 C 
HETATM   23  C3  UNL     1      20.425   3.069  47.635  1.00  0.00    -0.009 C 
BRANCH  23  24
HETATM   24  C2  UNL     1      19.174   3.753  47.178  1.00  0.00     0.043 C 
BRANCH  24  25
HETATM   25  C1  UNL     1      18.656   4.644  48.315  1.00  0.00     0.118 C 
HETATM   26 CL1  UNL     1      19.777   4.705  49.677  1.00  0.00    -0.130 Cl
ENDBRANCH  24  25
ENDBRANCH  23  24
ENDBRANCH  20  22
ENDBRANCH   1  20
TORSDOF 7
ENDMDL
