MODEL 1
REMARK VINA RESULT:      -6.9      0.000      0.000
REMARK  5 active torsions:
REMARK  status: ('A' for Active; 'I' for Inactive)
REMARK    1  A    between atoms: C4_5  and  C5_6 
REMARK    2  A    between atoms: C6_7  and  C7_8 
REMARK    3  A    between atoms: C7_8  and  N2_9 
REMARK    4  A    between atoms: C13_17  and  O2_18 
REMARK    5  A    between atoms: O2_18  and  C14_19 
ROOT
HETATM    1  C1  UNL     1      22.237  -1.306  54.940  1.00  0.00     0.038 C 
HETATM    2  C2  UNL     1      21.671  -0.770  53.681  1.00  0.00     0.001 C 
HETATM    3  C3  UNL     1      22.175   0.205  52.964  1.00  0.00     0.058 C 
HETATM    4  N1  UNL     1      23.353   0.908  53.280  1.00  0.00    -0.378 N 
HETATM    5  C4  UNL     1      24.190   1.577  52.323  1.00  0.00     0.127 C 
HETATM    6  C11 UNL     1      23.312   2.372  51.404  1.00  0.00     0.134 C 
HETATM    7 CL1  UNL     1      24.150   2.870  49.929  1.00  0.00    -0.118 Cl
HETATM    8  C12 UNL     1      22.084   1.598  51.125  1.00  0.00     0.034 C 
HETATM    9  C13 UNL     1      21.466   0.591  51.758  1.00  0.00     0.092 C 
HETATM   10  H5  UNL     1      23.653   0.955  54.275  1.00  0.00     0.160 HD
ENDROOT
BRANCH   5  11
HETATM   11  C5  UNL     1      25.242   2.397  52.963  1.00  0.00    -0.003 C 
HETATM   12  C6  UNL     1      26.258   2.082  53.746  1.00  0.00     0.001 C 
BRANCH  12  13
HETATM   13  C7  UNL     1      26.639   0.748  54.219  1.00  0.00     0.302 C 
BRANCH  13  14
HETATM   14  N2  UNL     1      27.827   0.248  53.555  1.00  0.00     0.116 N 
HETATM   15  C8  UNL     1      28.955   0.089  54.463  1.00  0.00     0.301 C 
HETATM   16  C9  UNL     1      29.709  -1.019  53.716  1.00  0.00     0.200 C 
HETATM   17  O1  UNL     1      28.632  -1.897  53.480  1.00  0.00    -0.361 OA
HETATM   18  C10 UNL     1      27.597  -1.098  53.041  1.00  0.00     0.440 C 
ENDBRANCH  13  14
ENDBRANCH  12  13
ENDBRANCH   5  11
BRANCH   9  19
HETATM   19  O2  UNL     1      20.331   0.124  51.192  1.00  0.00    -0.349 OA
BRANCH  19  20
HETATM   20  C14 UNL     1      19.007   0.467  51.330  1.00  0.00     0.171 C 
HETATM   21  C15 UNL     1      18.218  -0.548  52.166  1.00  0.00     0.034 C 
ENDBRANCH  19  20
ENDBRANCH   9  19
TORSDOF 5
ENDMDL
MODEL 2
REMARK VINA RESULT:      -6.8      1.633      6.541
REMARK  5 active torsions:
REMARK  status: ('A' for Active; 'I' for Inactive)
REMARK    1  A    between atoms: C4_5  and  C5_6 
REMARK    2  A    between atoms: C6_7  and  C7_8 
REMARK    3  A    between atoms: C7_8  and  N2_9 
REMARK    4  A    between atoms: C13_17  and  O2_18 
REMARK    5  A    between atoms: O2_18  and  C14_19 
ROOT
HETATM    1  C1  UNL     1      23.210  -1.308  55.332  1.00  0.00     0.038 C 
HETATM    2  C2  UNL     1      24.613  -0.987  54.984  1.00  0.00     0.001 C 
HETATM    3  C3  UNL     1      25.007  -0.290  53.947  1.00  0.00     0.058 C 
HETATM    4  N1  UNL     1      24.149   0.276  52.984  1.00  0.00    -0.378 N 
HETATM    5  C4  UNL     1      24.463   1.422  52.179  1.00  0.00     0.127 C 
HETATM    6  C11 UNL     1      25.850   1.251  51.636  1.00  0.00     0.134 C 
HETATM    7 CL1  UNL     1      26.526   2.761  51.014  1.00  0.00    -0.118 Cl
HETATM    8  C12 UNL     1      26.699   0.635  52.677  1.00  0.00     0.034 C 
HETATM    9  C13 UNL     1      26.434  -0.088  53.774  1.00  0.00     0.092 C 
HETATM   10  H5  UNL     1      23.215  -0.157  52.836  1.00  0.00     0.160 HD
ENDROOT
BRANCH   5  11
HETATM   11  C5  UNL     1      23.458   1.665  51.120  1.00  0.00    -0.003 C 
HETATM   12  C6  UNL     1      22.241   2.175  51.153  1.00  0.00     0.001 C 
BRANCH  12  13
HETATM   13  C7  UNL     1      21.513   2.670  52.325  1.00  0.00     0.302 C 
BRANCH  13  14
HETATM   14  N2  UNL     1      20.325   1.888  52.604  1.00  0.00     0.116 N 
HETATM   15  C8  UNL     1      19.827   1.184  51.429  1.00  0.00     0.301 C 
HETATM   16  C9  UNL     1      19.123   0.015  52.132  1.00  0.00     0.200 C 
HETATM   17  O1  UNL     1      20.152  -0.359  53.020  1.00  0.00    -0.361 OA
HETATM   18  C10 UNL     1      20.625   0.822  53.552  1.00  0.00     0.440 C 
ENDBRANCH  13  14
ENDBRANCH  12  13
ENDBRANCH   5  11
BRANCH   9  19
HETATM   19  O2  UNL     1      27.496  -0.493  54.505  1.00  0.00    -0.349 OA
BRANCH  19  20
HETATM   20  C14 UNL     1      28.799  -0.059  54.582  1.00  0.00     0.171 C 
HETATM   21  C15 UNL     1      29.765  -0.944  53.785  1.00  0.00     0.034 C 
ENDBRANCH  19  20
ENDBRANCH   9  19
TORSDOF 5
ENDMDL
MODEL 3
REMARK VINA RESULT:      -6.8      3.365      6.250
REMARK  5 active torsions:
REMARK  status: ('A' for Active; 'I' for Inactive)
REMARK    1  A    between atoms: C4_5  and  C5_6 
REMARK    2  A    between atoms: C6_7  and  C7_8 
REMARK    3  A    between atoms: C7_8  and  N2_9 
REMARK    4  A    between atoms: C13_17  and  O2_18 
REMARK    5  A    between atoms: O2_18  and  C14_19 
ROOT
HETATM    1  C1  UNL     1      28.858   2.438  53.756  1.00  0.00     0.038 C 
HETATM    2  C2  UNL     1      28.028   1.215  53.673  1.00  0.00     0.001 C 
HETATM    3  C3  UNL     1      26.733   1.176  53.475  1.00  0.00     0.058 C 
HETATM    4  N1  UNL     1      25.911   2.307  53.306  1.00  0.00    -0.378 N 
HETATM    5  C4  UNL     1      24.661   2.313  52.601  1.00  0.00     0.127 C 
HETATM    6  C11 UNL     1      23.864   1.124  53.045  1.00  0.00     0.134 C 
HETATM    7 CL1  UNL     1      22.524   0.758  51.950  1.00  0.00    -0.118 Cl
HETATM    8  C12 UNL     1      24.776  -0.024  53.228  1.00  0.00     0.034 C 
HETATM    9  C13 UNL     1      26.097  -0.128  53.431  1.00  0.00     0.092 C 
HETATM   10  H5  UNL     1      26.221   3.212  53.716  1.00  0.00     0.160 HD
ENDROOT
BRANCH   5  11
HETATM   11  C5  UNL     1      23.926   3.588  52.758  1.00  0.00    -0.003 C 
HETATM   12  C6  UNL     1      23.654   4.564  51.911  1.00  0.00     0.001 C 
BRANCH  12  13
HETATM   13  C7  UNL     1      24.031   4.650  50.497  1.00  0.00     0.302 C 
BRANCH  13  14
HETATM   14  N2  UNL     1      25.459   4.833  50.320  1.00  0.00     0.116 N 
HETATM   15  C8  UNL     1      26.059   3.799  49.488  1.00  0.00     0.301 C 
HETATM   16  C9  UNL     1      27.253   4.594  48.943  1.00  0.00     0.200 C 
HETATM   17  O1  UNL     1      26.576   5.766  48.550  1.00  0.00    -0.361 OA
HETATM   18  C10 UNL     1      25.730   6.069  49.595  1.00  0.00     0.440 C 
ENDBRANCH  13  14
ENDBRANCH  12  13
ENDBRANCH   5  11
BRANCH   9  19
HETATM   19  O2  UNL     1      26.595  -1.378  53.557  1.00  0.00    -0.349 OA
BRANCH  19  20
HETATM   20  C14 UNL     1      27.223  -2.228  52.678  1.00  0.00     0.171 C 
HETATM   21  C15 UNL     1      28.711  -2.414  52.996  1.00  0.00     0.034 C 
ENDBRANCH  19  20
ENDBRANCH   9  19
TORSDOF 5
ENDMDL
MODEL 4
REMARK VINA RESULT:      -6.8      2.528      3.936
REMARK  5 active torsions:
REMARK  status: ('A' for Active; 'I' for Inactive)
REMARK    1  A    between atoms: C4_5  and  C5_6 
REMARK    2  A    between atoms: C6_7  and  C7_8 
REMARK    3  A    between atoms: C7_8  and  N2_9 
REMARK    4  A    between atoms: C13_17  and  O2_18 
REMARK    5  A    between atoms: O2_18  and  C14_19 
ROOT
HETATM    1  C1  UNL     1      25.980   3.208  50.155  1.00  0.00     0.038 C 
HETATM    2  C2  UNL     1      24.520   3.262  50.398  1.00  0.00     0.001 C 
HETATM    3  C3  UNL     1      23.830   2.419  51.127  1.00  0.00     0.058 C 
HETATM    4  N1  UNL     1      24.373   1.312  51.807  1.00  0.00    -0.378 N 
HETATM    5  C4  UNL     1      23.799   0.705  52.975  1.00  0.00     0.127 C 
HETATM    6  C11 UNL     1      22.329   0.531  52.740  1.00  0.00     0.134 C 
HETATM    7 CL1  UNL     1      21.436   0.223  54.235  1.00  0.00    -0.118 Cl
HETATM    8  C12 UNL     1      21.818   1.708  52.006  1.00  0.00     0.034 C 
HETATM    9  C13 UNL     1      22.400   2.640  51.240  1.00  0.00     0.092 C 
HETATM   10  H5  UNL     1      25.256   0.893  51.449  1.00  0.00     0.160 HD
ENDROOT
BRANCH   5  11
HETATM   11  C5  UNL     1      24.474  -0.557  53.349  1.00  0.00    -0.003 C 
HETATM   12  C6  UNL     1      25.514  -0.811  54.122  1.00  0.00     0.001 C 
BRANCH  12  13
HETATM   13  C7  UNL     1      26.331   0.154  54.863  1.00  0.00     0.302 C 
BRANCH  13  14
HETATM   14  N2  UNL     1      27.436   0.661  54.072  1.00  0.00     0.116 N 
HETATM   15  C8  UNL     1      27.291   2.074  53.746  1.00  0.00     0.301 C 
HETATM   16  C9  UNL     1      28.775   2.435  53.587  1.00  0.00     0.200 C 
HETATM   17  O1  UNL     1      29.272   1.844  54.767  1.00  0.00    -0.361 OA
HETATM   18  C10 UNL     1      28.679   0.601  54.832  1.00  0.00     0.440 C 
ENDBRANCH  13  14
ENDBRANCH  12  13
ENDBRANCH   5  11
BRANCH   9  19
HETATM   19  O2  UNL     1      21.592   3.590  50.720  1.00  0.00    -0.349 OA
BRANCH  19  20
HETATM   20  C14 UNL     1      21.025   4.726  51.246  1.00  0.00     0.171 C 
HETATM   21  C15 UNL     1      21.970   5.933  51.204  1.00  0.00     0.034 C 
ENDBRANCH  19  20
ENDBRANCH   9  19
TORSDOF 5
ENDMDL
MODEL 5
REMARK VINA RESULT:      -6.6      2.416      6.810
REMARK  5 active torsions:
REMARK  status: ('A' for Active; 'I' for Inactive)
REMARK    1  A    between atoms: C4_5  and  C5_6 
REMARK    2  A    between atoms: C6_7  and  C7_8 
REMARK    3  A    between atoms: C7_8  and  N2_9 
REMARK    4  A    between atoms: C13_17  and  O2_18 
REMARK    5  A    between atoms: O2_18  and  C14_19 
ROOT
HETATM    1  C1  UNL     1      23.327  -1.311  55.363  1.00  0.00     0.038 C 
HETATM    2  C2  UNL     1      24.726  -0.984  55.004  1.00  0.00     0.001 C 
HETATM    3  C3  UNL     1      25.110  -0.286  53.963  1.00  0.00     0.058 C 
HETATM    4  N1  UNL     1      24.242   0.273  53.005  1.00  0.00    -0.378 N 
HETATM    5  C4  UNL     1      24.544   1.419  52.195  1.00  0.00     0.127 C 
HETATM    6  C11 UNL     1      25.928   1.254  51.643  1.00  0.00     0.134 C 
HETATM    7 CL1  UNL     1      26.592   2.768  51.014  1.00  0.00    -0.118 Cl
HETATM    8  C12 UNL     1      26.788   0.645  52.679  1.00  0.00     0.034 C 
HETATM    9  C13 UNL     1      26.534  -0.077  53.780  1.00  0.00     0.092 C 
HETATM   10  H5  UNL     1      23.309  -0.165  52.864  1.00  0.00     0.160 HD
ENDROOT
BRANCH   5  11
HETATM   11  C5  UNL     1      23.531   1.655  51.143  1.00  0.00    -0.003 C 
HETATM   12  C6  UNL     1      22.321   2.182  51.180  1.00  0.00     0.001 C 
BRANCH  12  13
HETATM   13  C7  UNL     1      21.612   2.708  52.350  1.00  0.00     0.302 C 
BRANCH  13  14
HETATM   14  N2  UNL     1      21.276   4.111  52.203  1.00  0.00     0.116 N 
HETATM   15  C8  UNL     1      22.429   4.933  51.861  1.00  0.00     0.301 C 
HETATM   16  C9  UNL     1      21.703   6.070  51.128  1.00  0.00     0.200 C 
HETATM   17  O1  UNL     1      20.884   5.297  50.281  1.00  0.00    -0.361 OA
HETATM   18  C10 UNL     1      20.363   4.303  51.082  1.00  0.00     0.440 C 
ENDBRANCH  13  14
ENDBRANCH  12  13
ENDBRANCH   5  11
BRANCH   9  19
HETATM   19  O2  UNL     1      27.603  -0.475  54.504  1.00  0.00    -0.349 OA
BRANCH  19  20
HETATM   20  C14 UNL     1      28.922  -0.086  54.516  1.00  0.00     0.171 C 
HETATM   21  C15 UNL     1      29.825  -1.033  53.715  1.00  0.00     0.034 C 
ENDBRANCH  19  20
ENDBRANCH   9  19
TORSDOF 5
ENDMDL
MODEL 6
REMARK VINA RESULT:      -6.5      2.579      6.932
REMARK  5 active torsions:
REMARK  status: ('A' for Active; 'I' for Inactive)
REMARK    1  A    between atoms: C4_5  and  C5_6 
REMARK    2  A    between atoms: C6_7  and  C7_8 
REMARK    3  A    between atoms: C7_8  and  N2_9 
REMARK    4  A    between atoms: C13_17  and  O2_18 
REMARK    5  A    between atoms: O2_18  and  C14_19 
ROOT
HETATM    1  C1  UNL     1      26.549   2.152  50.924  1.00  0.00     0.038 C 
HETATM    2  C2  UNL     1      26.761   1.178  52.019  1.00  0.00     0.001 C 
HETATM    3  C3  UNL     1      25.831   0.677  52.794  1.00  0.00     0.058 C 
HETATM    4  N1  UNL     1      24.460   0.988  52.709  1.00  0.00    -0.378 N 
HETATM    5  C4  UNL     1      23.396   0.129  53.145  1.00  0.00     0.127 C 
HETATM    6  C11 UNL     1      23.749  -0.407  54.500  1.00  0.00     0.134 C 
HETATM    7 CL1  UNL     1      22.766  -1.806  54.953  1.00  0.00    -0.118 Cl
HETATM    8  C12 UNL     1      25.198  -0.694  54.540  1.00  0.00     0.034 C 
HETATM    9  C13 UNL     1      26.242  -0.265  53.818  1.00  0.00     0.092 C 
HETATM   10  H5  UNL     1      24.183   1.905  52.301  1.00  0.00     0.160 HD
ENDROOT
BRANCH   5  11
HETATM   11  C5  UNL     1      22.077   0.799  53.118  1.00  0.00    -0.003 C 
HETATM   12  C6  UNL     1      21.215   1.020  52.144  1.00  0.00     0.001 C 
BRANCH  12  13
HETATM   13  C7  UNL     1      21.343   0.635  50.735  1.00  0.00     0.302 C 
BRANCH  13  14
HETATM   14  N2  UNL     1      21.513   1.783  49.865  1.00  0.00     0.116 N 
HETATM   15  C8  UNL     1      22.865   2.325  49.908  1.00  0.00     0.301 C 
HETATM   16  C9  UNL     1      22.914   2.953  48.508  1.00  0.00     0.200 C 
HETATM   17  O1  UNL     1      22.419   1.865  47.761  1.00  0.00    -0.361 OA
HETATM   18  C10 UNL     1      21.333   1.398  48.470  1.00  0.00     0.440 C 
ENDBRANCH  13  14
ENDBRANCH  12  13
ENDBRANCH   5  11
BRANCH   9  19
HETATM   19  O2  UNL     1      27.455  -0.759  54.153  1.00  0.00    -0.349 OA
BRANCH  19  20
HETATM   20  C14 UNL     1      28.622  -0.168  54.574  1.00  0.00     0.171 C 
HETATM   21  C15 UNL     1      29.827  -0.554  53.707  1.00  0.00     0.034 C 
ENDBRANCH  19  20
ENDBRANCH   9  19
TORSDOF 5
ENDMDL
MODEL 7
REMARK VINA RESULT:      -6.5      2.304      3.265
REMARK  5 active torsions:
REMARK  status: ('A' for Active; 'I' for Inactive)
REMARK    1  A    between atoms: C4_5  and  C5_6 
REMARK    2  A    between atoms: C6_7  and  C7_8 
REMARK    3  A    between atoms: C7_8  and  N2_9 
REMARK    4  A    between atoms: C13_17  and  O2_18 
REMARK    5  A    between atoms: O2_18  and  C14_19 
ROOT
HETATM    1  C1  UNL     1      23.845   4.355  51.621  1.00  0.00     0.038 C 
HETATM    2  C2  UNL     1      22.482   3.878  51.949  1.00  0.00     0.001 C 
HETATM    3  C3  UNL     1      22.165   2.673  52.355  1.00  0.00     0.058 C 
HETATM    4  N1  UNL     1      23.083   1.623  52.548  1.00  0.00    -0.378 N 
HETATM    5  C4  UNL     1      22.885   0.516  53.441  1.00  0.00     0.127 C 
HETATM    6  C11 UNL     1      21.494  -0.007  53.242  1.00  0.00     0.134 C 
HETATM    7 CL1  UNL     1      20.968  -1.054  54.567  1.00  0.00    -0.118 Cl
HETATM    8  C12 UNL     1      20.580   1.133  53.022  1.00  0.00     0.034 C 
HETATM    9  C13 UNL     1      20.765   2.398  52.620  1.00  0.00     0.092 C 
HETATM   10  H5  UNL     1      23.974   1.637  52.012  1.00  0.00     0.160 HD
ENDROOT
BRANCH   5  11
HETATM   11  C5  UNL     1      23.920  -0.531  53.287  1.00  0.00    -0.003 C 
HETATM   12  C6  UNL     1      25.229  -0.515  53.457  1.00  0.00     0.001 C 
BRANCH  12  13
HETATM   13  C7  UNL     1      26.061   0.619  53.870  1.00  0.00     0.302 C 
BRANCH  13  14
HETATM   14  N2  UNL     1      27.465   0.406  53.576  1.00  0.00     0.116 N 
HETATM   15  C8  UNL     1      28.278   0.277  54.779  1.00  0.00     0.301 C 
HETATM   16  C9  UNL     1      29.414  -0.582  54.208  1.00  0.00     0.200 C 
HETATM   17  O1  UNL     1      28.641  -1.561  53.551  1.00  0.00    -0.361 OA
HETATM   18  C10 UNL     1      27.655  -0.864  52.885  1.00  0.00     0.440 C 
ENDBRANCH  13  14
ENDBRANCH  12  13
ENDBRANCH   5  11
BRANCH   9  19
HETATM   19  O2  UNL     1      19.662   3.174  52.532  1.00  0.00    -0.349 OA
BRANCH  19  20
HETATM   20  C14 UNL     1      18.661   3.273  51.595  1.00  0.00     0.171 C 
HETATM   21  C15 UNL     1      19.200   3.430  50.168  1.00  0.00     0.034 C 
ENDBRANCH  19  20
ENDBRANCH   9  19
TORSDOF 5
ENDMDL
MODEL 8
REMARK VINA RESULT:      -6.5      4.183      5.993
REMARK  5 active torsions:
REMARK  status: ('A' for Active; 'I' for Inactive)
REMARK    1  A    between atoms: C4_5  and  C5_6 
REMARK    2  A    between atoms: C6_7  and  C7_8 
REMARK    3  A    between atoms: C7_8  and  N2_9 
REMARK    4  A    between atoms: C13_17  and  O2_18 
REMARK    5  A    between atoms: O2_18  and  C14_19 
ROOT
HETATM    1  C1  UNL     1      28.855   5.467  48.123  1.00  0.00     0.038 C 
HETATM    2  C2  UNL     1      27.506   5.920  48.536  1.00  0.00     0.001 C 
HETATM    3  C3  UNL     1      26.630   5.214  49.207  1.00  0.00     0.058 C 
HETATM    4  N1  UNL     1      26.832   3.893  49.651  1.00  0.00    -0.378 N 
HETATM    5  C4  UNL     1      26.167   3.296  50.775  1.00  0.00     0.127 C 
HETATM    6  C11 UNL     1      24.707   3.622  50.686  1.00  0.00     0.134 C 
HETATM    7 CL1  UNL     1      23.856   3.345  52.212  1.00  0.00    -0.118 Cl
HETATM    8  C12 UNL     1      24.554   5.008  50.196  1.00  0.00     0.034 C 
HETATM    9  C13 UNL     1      25.355   5.837  49.513  1.00  0.00     0.092 C 
HETATM   10  H5  UNL     1      27.511   3.295  49.137  1.00  0.00     0.160 HD
ENDROOT
BRANCH   5  11
HETATM   11  C5  UNL     1      26.425   1.843  50.881  1.00  0.00    -0.003 C 
HETATM   12  C6  UNL     1      26.703   1.065  51.911  1.00  0.00     0.001 C 
BRANCH  12  13
HETATM   13  C7  UNL     1      26.837   1.459  53.317  1.00  0.00     0.302 C 
BRANCH  13  14
HETATM   14  N2  UNL     1      27.780   0.623  54.034  1.00  0.00     0.116 N 
HETATM   15  C8  UNL     1      28.054  -0.632  53.347  1.00  0.00     0.301 C 
HETATM   16  C9  UNL     1      29.461  -0.902  53.896  1.00  0.00     0.200 C 
HETATM   17  O1  UNL     1      30.030   0.369  53.679  1.00  0.00    -0.361 OA
HETATM   18  C10 UNL     1      29.083   1.273  54.112  1.00  0.00     0.440 C 
ENDBRANCH  13  14
ENDBRANCH  12  13
ENDBRANCH   5  11
BRANCH   9  19
HETATM   19  O2  UNL     1      24.862   7.064  49.233  1.00  0.00    -0.349 OA
BRANCH  19  20
HETATM   20  C14 UNL     1      24.395   8.087  50.023  1.00  0.00     0.171 C 
HETATM   21  C15 UNL     1      22.893   8.338  49.841  1.00  0.00     0.034 C 
ENDBRANCH  19  20
ENDBRANCH   9  19
TORSDOF 5
ENDMDL
MODEL 9
REMARK VINA RESULT:      -6.2      2.883      6.899
REMARK  5 active torsions:
REMARK  status: ('A' for Active; 'I' for Inactive)
REMARK    1  A    between atoms: C4_5  and  C5_6 
REMARK    2  A    between atoms: C6_7  and  C7_8 
REMARK    3  A    between atoms: C7_8  and  N2_9 
REMARK    4  A    between atoms: C13_17  and  O2_18 
REMARK    5  A    between atoms: O2_18  and  C14_19 
ROOT
HETATM    1  C1  UNL     1      26.542   2.536  50.821  1.00  0.00     0.038 C 
HETATM    2  C2  UNL     1      26.586   1.334  51.684  1.00  0.00     0.001 C 
HETATM    3  C3  UNL     1      25.579   0.834  52.358  1.00  0.00     0.058 C 
HETATM    4  N1  UNL     1      24.276   1.367  52.370  1.00  0.00    -0.378 N 
HETATM    5  C4  UNL     1      23.084   0.612  52.641  1.00  0.00     0.127 C 
HETATM    6  C11 UNL     1      23.333  -0.243  53.848  1.00  0.00     0.134 C 
HETATM    7 CL1  UNL     1      22.137  -1.534  54.021  1.00  0.00    -0.118 Cl
HETATM    8  C12 UNL     1      24.718  -0.755  53.795  1.00  0.00     0.034 C 
HETATM    9  C13 UNL     1      25.825  -0.353  53.156  1.00  0.00     0.092 C 
HETATM   10  H5  UNL     1      24.151   2.380  52.168  1.00  0.00     0.160 HD
ENDROOT
BRANCH   5  11
HETATM   11  C5  UNL     1      21.888   1.471  52.783  1.00  0.00    -0.003 C 
HETATM   12  C6  UNL     1      21.263   2.268  51.936  1.00  0.00     0.001 C 
BRANCH  12  13
HETATM   13  C7  UNL     1      21.612   2.531  50.536  1.00  0.00     0.302 C 
BRANCH  13  14
HETATM   14  N2  UNL     1      21.798   3.945  50.274  1.00  0.00     0.116 N 
HETATM   15  C8  UNL     1      20.957   4.789  51.113  1.00  0.00     0.301 C 
HETATM   16  C9  UNL     1      21.826   6.054  51.127  1.00  0.00     0.200 C 
HETATM   17  O1  UNL     1      23.070   5.463  51.428  1.00  0.00    -0.361 OA
HETATM   18  C10 UNL     1      23.156   4.354  50.613  1.00  0.00     0.440 C 
ENDBRANCH  13  14
ENDBRANCH  12  13
ENDBRANCH   5  11
BRANCH   9  19
HETATM   19  O2  UNL     1      26.941  -1.090  53.354  1.00  0.00    -0.349 OA
BRANCH  19  20
HETATM   20  C14 UNL     1      28.257  -0.755  53.565  1.00  0.00     0.171 C 
HETATM   21  C15 UNL     1      28.452   0.123  54.807  1.00  0.00     0.034 C 
ENDBRANCH  19  20
ENDBRANCH   9  19
TORSDOF 5
ENDMDL
