MODEL 1
REMARK VINA RESULT:      -7.4      0.000      0.000
REMARK  3 active torsions:
REMARK  status: ('A' for Active; 'I' for Inactive)
REMARK    1  A    between atoms: N3_14  and  C11_15 
REMARK       I    between atoms: C17_22  and  N4_23 
REMARK    2  A    between atoms: N4_23  and  C18_24 
REMARK    3  A    between atoms: C18_24  and  C19_25 
ROOT
HETATM    1  C19 UNL     1      26.776   2.355  51.605  1.00  0.00     0.170 C 
HETATM    2  C20 UNL     1      26.726   2.110  53.046  1.00  0.00     0.064 C 
HETATM    3  N5  UNL     1      26.689   1.922  54.198  1.00  0.00    -0.197 NA
ENDROOT
BRANCH   1   4
HETATM    4  C18 UNL     1      25.401   2.543  51.051  1.00  0.00     0.101 C 
BRANCH   4   5
HETATM    5  N4  UNL     1      24.275   2.812  50.507  1.00  0.00    -0.260 NA
HETATM    6  C17 UNL     1      23.130   3.213  51.241  1.00  0.00     0.311 C 
HETATM    7  N1  UNL     1      22.986   4.651  51.151  1.00  0.00    -0.376 N 
HETATM    8  N3  UNL     1      21.952   2.552  50.705  1.00  0.00    -0.341 N 
HETATM    9  C1  UNL     1      24.078   5.407  51.628  1.00  0.00     0.147 C 
HETATM   10  C2  UNL     1      21.714   5.158  51.546  1.00  0.00     0.149 C 
HETATM   11  C3  UNL     1      21.466   6.461  50.834  1.00  0.00     0.019 C 
HETATM   12  C4  UNL     1      20.454   6.699  50.004  1.00  0.00     0.165 C 
HETATM   13  O1  UNL     1      19.507   5.733  49.716  1.00  0.00    -0.251 OA
HETATM   14  N2  UNL     1      18.514   5.890  48.783  1.00  0.00    -0.276 N 
HETATM   15  C5  UNL     1      19.131   5.489  47.528  1.00  0.00     0.097 C 
HETATM   16  H8  UNL     1      17.536   6.161  48.572  1.00  0.00     0.193 HD
HETATM   17  C6  UNL     1      19.977   4.832  46.710  1.00  0.00     0.061 C 
HETATM   18  C7  UNL     1      21.088   3.856  46.591  1.00  0.00    -0.020 C 
HETATM   19  C8  UNL     1      22.003   2.988  46.996  1.00  0.00    -0.028 C 
HETATM   20  C9  UNL     1      22.516   2.367  48.272  1.00  0.00     0.047 C 
HETATM   21  C10 UNL     1      21.661   2.902  49.358  1.00  0.00     0.131 C 
BRANCH   8  22
HETATM   22  C11 UNL     1      21.154   1.628  51.428  1.00  0.00     0.034 A 
HETATM   23  C12 UNL     1      19.905   1.183  51.057  1.00  0.00     0.029 A 
HETATM   24  C13 UNL     1      19.127   0.293  51.761  1.00  0.00     0.004 A 
HETATM   25  C14 UNL     1      19.618  -0.212  52.949  1.00  0.00     0.024 A 
HETATM   26  C15 UNL     1      20.861   0.201  53.364  1.00  0.00     0.036 A 
HETATM   27 CL1  UNL     1      21.415  -0.478  54.873  1.00  0.00    -0.084 Cl
HETATM   28  C16 UNL     1      21.595   1.094  52.617  1.00  0.00     0.053 A 
ENDBRANCH   8  22
ENDBRANCH   4   5
ENDBRANCH   1   4
TORSDOF 3
ENDMDL
MODEL 2
REMARK VINA RESULT:      -7.4      2.538      4.125
REMARK  3 active torsions:
REMARK  status: ('A' for Active; 'I' for Inactive)
REMARK    1  A    between atoms: N3_14  and  C11_15 
REMARK       I    between atoms: C17_22  and  N4_23 
REMARK    2  A    between atoms: N4_23  and  C18_24 
REMARK    3  A    between atoms: C18_24  and  C19_25 
ROOT
HETATM    1  C19 UNL     1      27.741   5.598  48.658  1.00  0.00     0.170 C 
HETATM    2  C20 UNL     1      27.367   6.947  48.236  1.00  0.00     0.064 C 
HETATM    3  N5  UNL     1      27.072   8.023  47.892  1.00  0.00    -0.197 NA
ENDROOT
BRANCH   1   4
HETATM    4  C18 UNL     1      26.525   4.770  48.924  1.00  0.00     0.101 C 
BRANCH   4   5
HETATM    5  N4  UNL     1      25.446   4.161  49.241  1.00  0.00    -0.260 NA
HETATM    6  C17 UNL     1      25.027   3.965  50.582  1.00  0.00     0.311 C 
HETATM    7  N1  UNL     1      24.015   4.947  50.913  1.00  0.00    -0.376 N 
HETATM    8  N3  UNL     1      24.495   2.621  50.733  1.00  0.00    -0.341 N 
HETATM    9  C1  UNL     1      24.409   6.296  50.788  1.00  0.00     0.147 C 
HETATM   10  C2  UNL     1      23.264   4.669  52.092  1.00  0.00     0.149 C 
HETATM   11  C3  UNL     1      21.916   5.328  51.978  1.00  0.00     0.019 C 
HETATM   12  C4  UNL     1      20.748   4.692  52.000  1.00  0.00     0.165 C 
HETATM   13  O1  UNL     1      20.672   3.317  52.137  1.00  0.00    -0.251 OA
HETATM   14  N2  UNL     1      19.503   2.605  52.050  1.00  0.00    -0.276 N 
HETATM   15  C5  UNL     1      19.338   2.353  50.627  1.00  0.00     0.097 C 
HETATM   16  H8  UNL     1      18.696   2.171  52.536  1.00  0.00     0.193 HD
HETATM   17  C6  UNL     1      19.708   2.154  49.346  1.00  0.00     0.061 C 
HETATM   18  C7  UNL     1      20.823   2.049  48.374  1.00  0.00    -0.020 C 
HETATM   19  C8  UNL     1      22.077   2.042  47.946  1.00  0.00    -0.028 C 
HETATM   20  C9  UNL     1      23.477   2.202  48.483  1.00  0.00     0.047 C 
HETATM   21  C10 UNL     1      23.336   2.370  49.949  1.00  0.00     0.131 C 
BRANCH   8  22
HETATM   22  C11 UNL     1      25.065   1.623  51.567  1.00  0.00     0.034 A 
HETATM   23  C12 UNL     1      26.378   1.208  51.539  1.00  0.00     0.029 A 
HETATM   24  C13 UNL     1      26.929   0.235  52.342  1.00  0.00     0.004 A 
HETATM   25  C14 UNL     1      26.116  -0.395  53.263  1.00  0.00     0.024 A 
HETATM   26  C15 UNL     1      24.797  -0.017  53.330  1.00  0.00     0.036 A 
HETATM   27 CL1  UNL     1      23.831  -0.857  54.515  1.00  0.00    -0.084 Cl
HETATM   28  C16 UNL     1      24.301   0.964  52.501  1.00  0.00     0.053 A 
ENDBRANCH   8  22
ENDBRANCH   4   5
ENDBRANCH   1   4
TORSDOF 3
ENDMDL
MODEL 3
REMARK VINA RESULT:      -7.2      9.057     11.851
REMARK  3 active torsions:
REMARK  status: ('A' for Active; 'I' for Inactive)
REMARK    1  A    between atoms: N3_14  and  C11_15 
REMARK       I    between atoms: C17_22  and  N4_23 
REMARK    2  A    between atoms: N4_23  and  C18_24 
REMARK    3  A    between atoms: C18_24  and  C19_25 
ROOT
HETATM    1  C19 UNL     1      30.077  12.549  48.375  1.00  0.00     0.170 C 
HETATM    2  C20 UNL     1      28.641  12.415  48.619  1.00  0.00     0.064 C 
HETATM    3  N5  UNL     1      27.494  12.311  48.808  1.00  0.00    -0.197 NA
ENDROOT
BRANCH   1   4
HETATM    4  C18 UNL     1      30.708  11.210  48.172  1.00  0.00     0.101 C 
BRANCH   4   5
HETATM    5  N4  UNL     1      31.122  10.018  47.966  1.00  0.00    -0.260 NA
HETATM    6  C17 UNL     1      30.491   9.118  47.070  1.00  0.00     0.311 C 
HETATM    7  N1  UNL     1      31.230   9.089  45.824  1.00  0.00    -0.376 N 
HETATM    8  N3  UNL     1      30.447   7.792  47.662  1.00  0.00    -0.341 N 
HETATM    9  C1  UNL     1      31.356  10.327  45.158  1.00  0.00     0.147 C 
HETATM   10  C2  UNL     1      30.922   7.996  44.962  1.00  0.00     0.149 C 
HETATM   11  C3  UNL     1      32.116   7.709  44.093  1.00  0.00     0.019 C 
HETATM   12  C4  UNL     1      32.781   6.558  44.062  1.00  0.00     0.165 C 
HETATM   13  O1  UNL     1      32.415   5.485  44.855  1.00  0.00    -0.251 OA
HETATM   14  N2  UNL     1      33.134   4.321  44.944  1.00  0.00    -0.276 N 
HETATM   15  C5  UNL     1      34.129   4.588  45.972  1.00  0.00     0.097 C 
HETATM   16  H8  UNL     1      33.285   3.349  44.615  1.00  0.00     0.193 HD
HETATM   17  C6  UNL     1      34.662   5.155  47.072  1.00  0.00     0.061 C 
HETATM   18  C7  UNL     1      34.482   6.113  48.190  1.00  0.00    -0.020 C 
HETATM   19  C8  UNL     1      33.869   7.014  48.943  1.00  0.00    -0.028 C 
HETATM   20  C9  UNL     1      32.555   7.752  49.015  1.00  0.00     0.047 C 
HETATM   21  C10 UNL     1      31.730   7.227  47.901  1.00  0.00     0.131 C 
BRANCH   8  22
HETATM   22  C11 UNL     1      29.252   7.103  47.997  1.00  0.00     0.034 A 
HETATM   23  C12 UNL     1      29.144   5.751  48.234  1.00  0.00     0.029 A 
HETATM   24  C13 UNL     1      27.984   5.082  48.551  1.00  0.00     0.004 A 
HETATM   25  C14 UNL     1      26.812   5.806  48.643  1.00  0.00     0.024 A 
HETATM   26  C15 UNL     1      26.866   7.160  48.415  1.00  0.00     0.036 A 
HETATM   27 CL1  UNL     1      25.348   8.008  48.549  1.00  0.00    -0.084 Cl
HETATM   28  C16 UNL     1      28.057   7.776  48.102  1.00  0.00     0.053 A 
ENDBRANCH   8  22
ENDBRANCH   4   5
ENDBRANCH   1   4
TORSDOF 3
ENDMDL
MODEL 4
REMARK VINA RESULT:      -7.2      8.019      9.595
REMARK  3 active torsions:
REMARK  status: ('A' for Active; 'I' for Inactive)
REMARK    1  A    between atoms: N3_14  and  C11_15 
REMARK       I    between atoms: C17_22  and  N4_23 
REMARK    2  A    between atoms: N4_23  and  C18_24 
REMARK    3  A    between atoms: C18_24  and  C19_25 
ROOT
HETATM    1  C19 UNL     1      32.933   4.484  47.643  1.00  0.00     0.170 C 
HETATM    2  C20 UNL     1      34.150   5.031  48.243  1.00  0.00     0.064 C 
HETATM    3  N5  UNL     1      35.126   5.466  48.715  1.00  0.00    -0.197 NA
ENDROOT
BRANCH   1   4
HETATM    4  C18 UNL     1      31.903   5.553  47.467  1.00  0.00     0.101 C 
BRANCH   4   5
HETATM    5  N4  UNL     1      31.118   6.537  47.244  1.00  0.00    -0.260 NA
HETATM    6  C17 UNL     1      30.283   7.108  48.238  1.00  0.00     0.311 C 
HETATM    7  N1  UNL     1      30.899   8.321  48.737  1.00  0.00    -0.376 N 
HETATM    8  N3  UNL     1      28.979   7.401  47.669  1.00  0.00    -0.341 N 
HETATM    9  C1  UNL     1      32.183   8.167  49.303  1.00  0.00     0.147 C 
HETATM   10  C2  UNL     1      30.036   9.176  49.483  1.00  0.00     0.149 C 
HETATM   11  C3  UNL     1      30.542  10.589  49.379  1.00  0.00     0.019 C 
HETATM   12  C4  UNL     1      29.860  11.611  48.869  1.00  0.00     0.165 C 
HETATM   13  O1  UNL     1      28.579  11.454  48.372  1.00  0.00    -0.251 OA
HETATM   14  N2  UNL     1      27.881  12.446  47.732  1.00  0.00    -0.276 N 
HETATM   15  C5  UNL     1      28.303  12.348  46.344  1.00  0.00     0.097 C 
HETATM   16  H8  UNL     1      27.197  13.223  47.792  1.00  0.00     0.193 HD
HETATM   17  C6  UNL     1      28.757  11.761  45.219  1.00  0.00     0.061 C 
HETATM   18  C7  UNL     1      29.221  10.513  44.565  1.00  0.00    -0.020 C 
HETATM   19  C8  UNL     1      29.532   9.230  44.459  1.00  0.00    -0.028 C 
HETATM   20  C9  UNL     1      29.557   7.978  45.301  1.00  0.00     0.047 C 
HETATM   21  C10 UNL     1      29.012   8.365  46.624  1.00  0.00     0.131 C 
BRANCH   8  22
HETATM   22  C11 UNL     1      27.768   6.789  48.085  1.00  0.00     0.034 A 
HETATM   23  C12 UNL     1      26.522   7.375  48.058  1.00  0.00     0.029 A 
HETATM   24  C13 UNL     1      25.348   6.784  48.469  1.00  0.00     0.004 A 
HETATM   25  C14 UNL     1      25.397   5.494  48.957  1.00  0.00     0.024 A 
HETATM   26  C15 UNL     1      26.618   4.866  49.006  1.00  0.00     0.036 A 
HETATM   27 CL1  UNL     1      26.603   3.239  49.635  1.00  0.00    -0.084 Cl
HETATM   28  C16 UNL     1      27.760   5.506  48.580  1.00  0.00     0.053 A 
ENDBRANCH   8  22
ENDBRANCH   4   5
ENDBRANCH   1   4
TORSDOF 3
ENDMDL
MODEL 5
REMARK VINA RESULT:      -6.7      2.252      5.107
REMARK  3 active torsions:
REMARK  status: ('A' for Active; 'I' for Inactive)
REMARK    1  A    between atoms: N3_14  and  C11_15 
REMARK       I    between atoms: C17_22  and  N4_23 
REMARK    2  A    between atoms: N4_23  and  C18_24 
REMARK    3  A    between atoms: C18_24  and  C19_25 
ROOT
HETATM    1  C19 UNL     1      19.445   0.244  52.227  1.00  0.00     0.170 C 
HETATM    2  C20 UNL     1      20.215  -0.371  53.308  1.00  0.00     0.064 C 
HETATM    3  N5  UNL     1      20.832  -0.868  54.166  1.00  0.00    -0.197 NA
ENDROOT
BRANCH   1   4
HETATM    4  C18 UNL     1      20.106   1.496  51.751  1.00  0.00     0.101 C 
BRANCH   4   5
HETATM    5  N4  UNL     1      20.766   2.486  51.281  1.00  0.00    -0.260 NA
HETATM    6  C17 UNL     1      21.758   2.356  50.276  1.00  0.00     0.311 C 
HETATM    7  N1  UNL     1      21.193   2.729  48.997  1.00  0.00    -0.376 N 
HETATM    8  N3  UNL     1      22.890   3.208  50.597  1.00  0.00    -0.341 N 
HETATM    9  C1  UNL     1      20.071   1.980  48.581  1.00  0.00     0.147 C 
HETATM   10  C2  UNL     1      22.143   2.973  47.962  1.00  0.00     0.149 C 
HETATM   11  C3  UNL     1      21.542   3.926  46.964  1.00  0.00     0.019 C 
HETATM   12  C4  UNL     1      22.037   5.122  46.655  1.00  0.00     0.165 C 
HETATM   13  O1  UNL     1      23.189   5.608  47.246  1.00  0.00    -0.251 OA
HETATM   14  N2  UNL     1      23.672   6.876  47.048  1.00  0.00    -0.276 N 
HETATM   15  C5  UNL     1      22.969   7.689  48.028  1.00  0.00     0.097 C 
HETATM   16  H8  UNL     1      24.305   7.507  46.523  1.00  0.00     0.193 HD
HETATM   17  C6  UNL     1      22.320   7.974  49.174  1.00  0.00     0.061 C 
HETATM   18  C7  UNL     1      21.802   7.471  50.470  1.00  0.00    -0.020 C 
HETATM   19  C8  UNL     1      21.552   6.595  51.432  1.00  0.00    -0.028 C 
HETATM   20  C9  UNL     1      21.784   5.138  51.749  1.00  0.00     0.047 C 
HETATM   21  C10 UNL     1      22.576   4.595  50.620  1.00  0.00     0.131 C 
BRANCH   8  22
HETATM   22  C11 UNL     1      24.197   2.732  50.881  1.00  0.00     0.034 A 
HETATM   23  C12 UNL     1      25.371   3.295  50.434  1.00  0.00     0.029 A 
HETATM   24  C13 UNL     1      26.638   2.829  50.702  1.00  0.00     0.004 A 
HETATM   25  C14 UNL     1      26.771   1.698  51.483  1.00  0.00     0.024 A 
HETATM   26  C15 UNL     1      25.628   1.098  51.953  1.00  0.00     0.036 A 
HETATM   27 CL1  UNL     1      25.873  -0.326  52.932  1.00  0.00    -0.084 Cl
HETATM   28  C16 UNL     1      24.386   1.610  51.653  1.00  0.00     0.053 A 
ENDBRANCH   8  22
ENDBRANCH   4   5
ENDBRANCH   1   4
TORSDOF 3
ENDMDL
MODEL 6
REMARK VINA RESULT:      -6.7      4.094      7.247
REMARK  3 active torsions:
REMARK  status: ('A' for Active; 'I' for Inactive)
REMARK    1  A    between atoms: N3_14  and  C11_15 
REMARK       I    between atoms: C17_22  and  N4_23 
REMARK    2  A    between atoms: N4_23  and  C18_24 
REMARK    3  A    between atoms: C18_24  and  C19_25 
ROOT
HETATM    1  C19 UNL     1      21.126   9.788  47.249  1.00  0.00     0.170 C 
HETATM    2  C20 UNL     1      20.775  10.678  48.355  1.00  0.00     0.064 C 
HETATM    3  N5  UNL     1      20.487  11.389  49.235  1.00  0.00    -0.197 NA
ENDROOT
BRANCH   1   4
HETATM    4  C18 UNL     1      21.548   8.448  47.760  1.00  0.00     0.101 C 
BRANCH   4   5
HETATM    5  N4  UNL     1      21.876   7.253  48.072  1.00  0.00    -0.260 NA
HETATM    6  C17 UNL     1      22.784   6.941  49.116  1.00  0.00     0.311 C 
HETATM    7  N1  UNL     1      22.040   6.544  50.293  1.00  0.00    -0.376 N 
HETATM    8  N3  UNL     1      23.666   5.867  48.690  1.00  0.00    -0.341 N 
HETATM    9  C1  UNL     1      21.133   7.502  50.796  1.00  0.00     0.147 C 
HETATM   10  C2  UNL     1      22.804   5.885  51.300  1.00  0.00     0.149 C 
HETATM   11  C3  UNL     1      21.892   4.993  52.098  1.00  0.00     0.019 C 
HETATM   12  C4  UNL     1      22.019   3.674  52.213  1.00  0.00     0.165 C 
HETATM   13  O1  UNL     1      23.040   2.985  51.583  1.00  0.00    -0.251 OA
HETATM   14  N2  UNL     1      23.145   1.617  51.575  1.00  0.00    -0.276 N 
HETATM   15  C5  UNL     1      22.328   1.198  50.447  1.00  0.00     0.097 C 
HETATM   16  H8  UNL     1      23.541   0.760  52.004  1.00  0.00     0.193 HD
HETATM   17  C6  UNL     1      21.719   1.289  49.248  1.00  0.00     0.061 C 
HETATM   18  C7  UNL     1      21.460   2.114  48.043  1.00  0.00    -0.020 C 
HETATM   19  C8  UNL     1      21.533   3.165  47.240  1.00  0.00    -0.028 C 
HETATM   20  C9  UNL     1      22.174   4.529  47.186  1.00  0.00     0.047 C 
HETATM   21  C10 UNL     1      22.992   4.645  48.418  1.00  0.00     0.131 C 
BRANCH   8  22
HETATM   22  C11 UNL     1      25.071   5.998  48.535  1.00  0.00     0.034 A 
HETATM   23  C12 UNL     1      26.008   5.052  48.885  1.00  0.00     0.029 A 
HETATM   24  C13 UNL     1      27.371   5.181  48.743  1.00  0.00     0.004 A 
HETATM   25  C14 UNL     1      27.867   6.353  48.207  1.00  0.00     0.024 A 
HETATM   26  C15 UNL     1      26.972   7.329  47.842  1.00  0.00     0.036 A 
HETATM   27 CL1  UNL     1      27.672   8.781  47.174  1.00  0.00    -0.084 Cl
HETATM   28  C16 UNL     1      25.619   7.144  48.007  1.00  0.00     0.053 A 
ENDBRANCH   8  22
ENDBRANCH   4   5
ENDBRANCH   1   4
TORSDOF 3
ENDMDL
MODEL 7
REMARK VINA RESULT:      -6.6      1.897      2.180
REMARK  3 active torsions:
REMARK  status: ('A' for Active; 'I' for Inactive)
REMARK    1  A    between atoms: N3_14  and  C11_15 
REMARK       I    between atoms: C17_22  and  N4_23 
REMARK    2  A    between atoms: N4_23  and  C18_24 
REMARK    3  A    between atoms: C18_24  and  C19_25 
ROOT
HETATM    1  C19 UNL     1      26.766   3.647  49.546  1.00  0.00     0.170 C 
HETATM    2  C20 UNL     1      27.533   4.686  48.859  1.00  0.00     0.064 C 
HETATM    3  N5  UNL     1      28.148   5.509  48.305  1.00  0.00    -0.197 NA
ENDROOT
BRANCH   1   4
HETATM    4  C18 UNL     1      25.301   3.821  49.304  1.00  0.00     0.101 C 
BRANCH   4   5
HETATM    5  N4  UNL     1      24.058   3.863  49.010  1.00  0.00    -0.260 NA
HETATM    6  C17 UNL     1      23.033   4.027  49.976  1.00  0.00     0.311 C 
HETATM    7  N1  UNL     1      22.598   5.408  49.979  1.00  0.00    -0.376 N 
HETATM    8  N3  UNL     1      21.921   3.147  49.661  1.00  0.00    -0.341 N 
HETATM    9  C1  UNL     1      23.598   6.364  50.259  1.00  0.00     0.147 C 
HETATM   10  C2  UNL     1      21.361   5.652  50.644  1.00  0.00     0.149 C 
HETATM   11  C3  UNL     1      20.724   6.881  50.053  1.00  0.00     0.019 C 
HETATM   12  C4  UNL     1      19.537   6.916  49.456  1.00  0.00     0.165 C 
HETATM   13  O1  UNL     1      18.756   5.782  49.323  1.00  0.00    -0.251 OA
HETATM   14  N2  UNL     1      17.581   5.742  48.616  1.00  0.00    -0.276 N 
HETATM   15  C5  UNL     1      17.991   5.474  47.247  1.00  0.00     0.097 C 
HETATM   16  H8  UNL     1      16.547   5.814  48.619  1.00  0.00     0.193 HD
HETATM   17  C6  UNL     1      18.762   5.000  46.247  1.00  0.00     0.061 C 
HETATM   18  C7  UNL     1      19.991   4.263  45.865  1.00  0.00    -0.020 C 
HETATM   19  C8  UNL     1      21.121   3.593  46.039  1.00  0.00    -0.028 C 
HETATM   20  C9  UNL     1      21.996   3.083  47.158  1.00  0.00     0.047 C 
HETATM   21  C10 UNL     1      21.296   3.435  48.416  1.00  0.00     0.131 C 
BRANCH   8  22
HETATM   22  C11 UNL     1      21.483   2.081  50.489  1.00  0.00     0.034 A 
HETATM   23  C12 UNL     1      20.188   1.622  50.590  1.00  0.00     0.029 A 
HETATM   24  C13 UNL     1      19.762   0.594  51.399  1.00  0.00     0.004 A 
HETATM   25  C14 UNL     1      20.693  -0.050  52.190  1.00  0.00     0.024 A 
HETATM   26  C15 UNL     1      21.999   0.371  52.126  1.00  0.00     0.036 A 
HETATM   27 CL1  UNL     1      23.118  -0.487  53.154  1.00  0.00    -0.084 Cl
HETATM   28  C16 UNL     1      22.368   1.406  51.297  1.00  0.00     0.053 A 
ENDBRANCH   8  22
ENDBRANCH   4   5
ENDBRANCH   1   4
TORSDOF 3
ENDMDL
MODEL 8
REMARK VINA RESULT:      -6.4     10.823     13.820
REMARK  3 active torsions:
REMARK  status: ('A' for Active; 'I' for Inactive)
REMARK    1  A    between atoms: N3_14  and  C11_15 
REMARK       I    between atoms: C17_22  and  N4_23 
REMARK    2  A    between atoms: N4_23  and  C18_24 
REMARK    3  A    between atoms: C18_24  and  C19_25 
ROOT
HETATM    1  C19 UNL     1      33.141  10.920  42.199  1.00  0.00     0.170 C 
HETATM    2  C20 UNL     1      32.568  12.164  42.713  1.00  0.00     0.064 C 
HETATM    3  N5  UNL     1      32.104  13.155  43.118  1.00  0.00    -0.197 NA
ENDROOT
BRANCH   1   4
HETATM    4  C18 UNL     1      33.240   9.895  43.282  1.00  0.00     0.101 C 
BRANCH   4   5
HETATM    5  N4  UNL     1      33.351   9.122  44.294  1.00  0.00    -0.260 NA
HETATM    6  C17 UNL     1      32.606   7.925  44.446  1.00  0.00     0.311 C 
HETATM    7  N1  UNL     1      33.439   6.796  44.085  1.00  0.00    -0.376 N 
HETATM    8  N3  UNL     1      32.159   7.802  45.824  1.00  0.00    -0.341 N 
HETATM    9  C1  UNL     1      33.950   6.810  42.769  1.00  0.00     0.147 C 
HETATM   10  C2  UNL     1      32.952   5.524  44.504  1.00  0.00     0.149 C 
HETATM   11  C3  UNL     1      34.116   4.584  44.662  1.00  0.00     0.019 C 
HETATM   12  C4  UNL     1      34.460   3.975  45.794  1.00  0.00     0.165 C 
HETATM   13  O1  UNL     1      33.748   4.162  46.965  1.00  0.00    -0.251 OA
HETATM   14  N2  UNL     1      34.128   3.651  48.180  1.00  0.00    -0.276 N 
HETATM   15  C5  UNL     1      35.044   4.644  48.719  1.00  0.00     0.097 C 
HETATM   16  H8  UNL     1      34.057   2.887  48.877  1.00  0.00     0.193 HD
HETATM   17  C6  UNL     1      35.586   5.862  48.914  1.00  0.00     0.061 C 
HETATM   18  C7  UNL     1      35.544   7.310  48.595  1.00  0.00    -0.020 C 
HETATM   19  C8  UNL     1      35.109   8.426  48.029  1.00  0.00    -0.028 C 
HETATM   20  C9  UNL     1      34.030   8.892  47.083  1.00  0.00     0.047 C 
HETATM   21  C10 UNL     1      33.220   7.692  46.764  1.00  0.00     0.131 C 
BRANCH   8  22
HETATM   22  C11 UNL     1      30.798   7.802  46.227  1.00  0.00     0.034 A 
HETATM   23  C12 UNL     1      29.861   8.753  45.890  1.00  0.00     0.029 A 
HETATM   24  C13 UNL     1      28.544   8.758  46.287  1.00  0.00     0.004 A 
HETATM   25  C14 UNL     1      28.097   7.731  47.095  1.00  0.00     0.024 A 
HETATM   26  C15 UNL     1      28.993   6.757  47.459  1.00  0.00     0.036 A 
HETATM   27 CL1  UNL     1      28.358   5.493  48.481  1.00  0.00    -0.084 Cl
HETATM   28  C16 UNL     1      30.301   6.803  47.031  1.00  0.00     0.053 A 
ENDBRANCH   8  22
ENDBRANCH   4   5
ENDBRANCH   1   4
TORSDOF 3
ENDMDL
MODEL 9
REMARK VINA RESULT:      -6.3      3.851      6.222
REMARK  3 active torsions:
REMARK  status: ('A' for Active; 'I' for Inactive)
REMARK    1  A    between atoms: N3_14  and  C11_15 
REMARK       I    between atoms: C17_22  and  N4_23 
REMARK    2  A    between atoms: N4_23  and  C18_24 
REMARK    3  A    between atoms: C18_24  and  C19_25 
ROOT
HETATM    1  C19 UNL     1      22.965   1.173  51.280  1.00  0.00     0.170 C 
HETATM    2  C20 UNL     1      23.923   1.063  52.380  1.00  0.00     0.064 C 
HETATM    3  N5  UNL     1      24.692   0.970  53.253  1.00  0.00    -0.197 NA
ENDROOT
BRANCH   1   4
HETATM    4  C18 UNL     1      22.886   2.581  50.785  1.00  0.00     0.101 C 
BRANCH   4   5
HETATM    5  N4  UNL     1      22.724   3.741  50.271  1.00  0.00    -0.260 NA
HETATM    6  C17 UNL     1      23.182   4.090  48.975  1.00  0.00     0.311 C 
HETATM    7  N1  UNL     1      22.072   4.039  48.047  1.00  0.00    -0.376 N 
HETATM    8  N3  UNL     1      23.755   5.425  49.005  1.00  0.00    -0.341 N 
HETATM    9  C1  UNL     1      21.419   2.792  47.941  1.00  0.00     0.147 C 
HETATM   10  C2  UNL     1      22.298   4.682  46.796  1.00  0.00     0.149 C 
HETATM   11  C3  UNL     1      20.975   5.122  46.228  1.00  0.00     0.019 C 
HETATM   12  C4  UNL     1      20.642   6.380  45.951  1.00  0.00     0.165 C 
HETATM   13  O1  UNL     1      21.517   7.429  46.168  1.00  0.00    -0.251 OA
HETATM   14  N2  UNL     1      21.180   8.749  46.009  1.00  0.00    -0.276 N 
HETATM   15  C5  UNL     1      20.594   9.130  47.284  1.00  0.00     0.097 C 
HETATM   16  H8  UNL     1      21.158   9.586  45.397  1.00  0.00     0.193 HD
HETATM   17  C6  UNL     1      20.379   9.100  48.614  1.00  0.00     0.061 C 
HETATM   18  C7  UNL     1      20.717   8.477  49.917  1.00  0.00    -0.020 C 
HETATM   19  C8  UNL     1      21.327   7.656  50.760  1.00  0.00    -0.028 C 
HETATM   20  C9  UNL     1      22.359   6.556  50.750  1.00  0.00     0.047 C 
HETATM   21  C10 UNL     1      22.822   6.442  49.347  1.00  0.00     0.131 C 
BRANCH   8  22
HETATM   22  C11 UNL     1      25.118   5.718  48.737  1.00  0.00     0.034 A 
HETATM   23  C12 UNL     1      26.184   4.886  48.996  1.00  0.00     0.029 A 
HETATM   24  C13 UNL     1      27.506   5.173  48.744  1.00  0.00     0.004 A 
HETATM   25  C14 UNL     1      27.818   6.395  48.183  1.00  0.00     0.024 A 
HETATM   26  C15 UNL     1      26.789   7.262  47.906  1.00  0.00     0.036 A 
HETATM   27 CL1  UNL     1      27.259   8.787  47.200  1.00  0.00    -0.084 Cl
HETATM   28  C16 UNL     1      25.484   6.921  48.180  1.00  0.00     0.053 A 
ENDBRANCH   8  22
ENDBRANCH   4   5
ENDBRANCH   1   4
TORSDOF 3
ENDMDL
