MODEL 1
REMARK VINA RESULT:      -7.3      0.000      0.000
REMARK  4 active torsions:
REMARK  status: ('A' for Active; 'I' for Inactive)
REMARK    1  A    between atoms: S1_1  and  C1_2 
REMARK    2  A    between atoms: C4_5  and  N1_6 
REMARK    3  A    between atoms: N1_6  and  C5_7 
REMARK    4  A    between atoms: C5_7  and  C6_8 
ROOT
HETATM    1  C5  UNL     1      24.967   1.021  52.076  1.00  0.00     0.177 C 
ENDROOT
BRANCH   1   2
HETATM    2  N1  UNL     1      23.874   0.960  53.016  1.00  0.00    -0.384 N 
HETATM    3  H4  UNL     1      24.195   1.511  53.874  1.00  0.00     0.160 HD
BRANCH   2   4
HETATM    4  C4  UNL     1      22.569   0.425  53.144  1.00  0.00     0.029 A 
HETATM    5  C3  UNL     1      22.245  -0.447  54.192  1.00  0.00     0.030 A 
HETATM    6  C2  UNL     1      20.970  -0.943  54.229  1.00  0.00     0.022 A 
HETATM    7  C1  UNL     1      20.001  -0.639  53.307  1.00  0.00     0.015 A 
HETATM    8  C14 UNL     1      20.273   0.204  52.272  1.00  0.00     0.029 A 
HETATM    9  C13 UNL     1      21.549   0.701  52.235  1.00  0.00     0.049 A 
HETATM   10 BR1  UNL     1      18.963   0.661  50.964  1.00  0.00    -0.050 Br
BRANCH   7  11
HETATM   11  S1  UNL     1      18.394  -1.363  53.492  1.00  0.00    -0.142 SA
HETATM   12  H1  UNL     1      17.647  -0.741  54.496  1.00  0.00     0.107 HD
ENDBRANCH   7  11
ENDBRANCH   2   4
ENDBRANCH   1   2
BRANCH   1  13
HETATM   13  C6  UNL     1      26.050   0.144  52.498  1.00  0.00     0.038 A 
HETATM   14  C7  UNL     1      27.149   0.741  53.022  1.00  0.00     0.018 A 
HETATM   15  C8  UNL     1      27.436   2.156  53.237  1.00  0.00     0.211 C 
HETATM   16  C11 UNL     1      28.251  -0.159  53.449  1.00  0.00     0.066 A 
HETATM   17  O1  UNL     1      28.224   2.273  54.393  1.00  0.00    -0.383 OA
HETATM   18  C9  UNL     1      29.497   1.755  54.148  1.00  0.00     0.197 C 
HETATM   19  C10 UNL     1      29.409   0.254  53.998  1.00  0.00     0.031 C 
HETATM   20  N2  UNL     1      28.222  -1.577  53.344  1.00  0.00    -0.244 NA
HETATM   21  C12 UNL     1      27.162  -2.114  52.842  1.00  0.00     0.208 A 
HETATM   22  N3  UNL     1      26.103  -1.266  52.431  1.00  0.00    -0.352 N 
HETATM   23  H13 UNL     1      25.295  -1.787  52.043  1.00  0.00     0.166 HD
ENDBRANCH   1  13
TORSDOF 4
ENDMDL
MODEL 2
REMARK VINA RESULT:      -7.2      3.514      4.454
REMARK  4 active torsions:
REMARK  status: ('A' for Active; 'I' for Inactive)
REMARK    1  A    between atoms: S1_1  and  C1_2 
REMARK    2  A    between atoms: C4_5  and  N1_6 
REMARK    3  A    between atoms: N1_6  and  C5_7 
REMARK    4  A    between atoms: C5_7  and  C6_8 
ROOT
HETATM    1  C5  UNL     1      25.361   2.394  53.451  1.00  0.00     0.177 C 
ENDROOT
BRANCH   1   2
HETATM    2  N1  UNL     1      25.245   3.151  52.228  1.00  0.00    -0.384 N 
HETATM    3  H4  UNL     1      25.997   3.909  52.282  1.00  0.00     0.160 HD
BRANCH   2   4
HETATM    4  C4  UNL     1      24.485   3.193  51.034  1.00  0.00     0.029 A 
HETATM    5  C3  UNL     1      24.708   4.184  50.070  1.00  0.00     0.030 A 
HETATM    6  C2  UNL     1      23.911   4.173  48.957  1.00  0.00     0.022 A 
HETATM    7  C1  UNL     1      22.915   3.256  48.735  1.00  0.00     0.015 A 
HETATM    8  C14 UNL     1      22.663   2.275  49.646  1.00  0.00     0.029 A 
HETATM    9  C13 UNL     1      23.461   2.286  50.760  1.00  0.00     0.049 A 
HETATM   10 BR1  UNL     1      21.293   0.977  49.387  1.00  0.00    -0.050 Br
BRANCH   7  11
HETATM   11  S1  UNL     1      21.968   3.375  47.242  1.00  0.00    -0.142 SA
HETATM   12  H1  UNL     1      20.630   3.693  47.490  1.00  0.00     0.107 HD
ENDBRANCH   7  11
ENDBRANCH   2   4
ENDBRANCH   1   2
BRANCH   1  13
HETATM   13  C6  UNL     1      26.715   1.879  53.603  1.00  0.00     0.038 A 
HETATM   14  C7  UNL     1      26.899   0.562  53.337  1.00  0.00     0.018 A 
HETATM   15  C8  UNL     1      25.939  -0.453  52.914  1.00  0.00     0.211 C 
HETATM   16  C11 UNL     1      28.281   0.042  53.496  1.00  0.00     0.066 A 
HETATM   17  O1  UNL     1      26.603  -1.361  52.073  1.00  0.00    -0.383 OA
HETATM   18  C9  UNL     1      27.510  -2.115  52.820  1.00  0.00     0.197 C 
HETATM   19  C10 UNL     1      28.652  -1.232  53.266  1.00  0.00     0.031 C 
HETATM   20  N2  UNL     1      29.397   0.825  53.901  1.00  0.00    -0.244 NA
HETATM   21  C12 UNL     1      29.189   2.074  54.145  1.00  0.00     0.208 A 
HETATM   22  N3  UNL     1      27.874   2.583  53.998  1.00  0.00    -0.352 N 
HETATM   23  H13 UNL     1      27.805   3.595  54.214  1.00  0.00     0.166 HD
ENDBRANCH   1  13
TORSDOF 4
ENDMDL
MODEL 3
REMARK VINA RESULT:      -7.2      1.579      2.089
REMARK  4 active torsions:
REMARK  status: ('A' for Active; 'I' for Inactive)
REMARK    1  A    between atoms: S1_1  and  C1_2 
REMARK    2  A    between atoms: C4_5  and  N1_6 
REMARK    3  A    between atoms: N1_6  and  C5_7 
REMARK    4  A    between atoms: C5_7  and  C6_8 
ROOT
HETATM    1  C5  UNL     1      25.262  -0.836  53.640  1.00  0.00     0.177 C 
ENDROOT
BRANCH   1   2
HETATM    2  N1  UNL     1      23.990  -0.448  54.202  1.00  0.00    -0.384 N 
HETATM    3  H4  UNL     1      24.218   0.067  55.111  1.00  0.00     0.160 HD
BRANCH   2   4
HETATM    4  C4  UNL     1      22.602  -0.530  53.931  1.00  0.00     0.029 A 
HETATM    5  C3  UNL     1      21.826  -1.575  54.450  1.00  0.00     0.030 A 
HETATM    6  C2  UNL     1      20.498  -1.599  54.119  1.00  0.00     0.022 A 
HETATM    7  C1  UNL     1      19.890  -0.668  53.315  1.00  0.00     0.015 A 
HETATM    8  C14 UNL     1      20.608   0.364  52.788  1.00  0.00     0.029 A 
HETATM    9  C13 UNL     1      21.937   0.388  53.121  1.00  0.00     0.049 A 
HETATM   10 BR1  UNL     1      19.814   1.684  51.666  1.00  0.00    -0.050 Br
BRANCH   7  11
HETATM   11  S1  UNL     1      18.160  -0.836  52.977  1.00  0.00    -0.142 SA
HETATM   12  H1  UNL     1      17.368  -0.390  54.040  1.00  0.00     0.107 HD
ENDBRANCH   7  11
ENDBRANCH   2   4
ENDBRANCH   1   2
BRANCH   1  13
HETATM   13  C6  UNL     1      25.915   0.310  53.025  1.00  0.00     0.038 A 
HETATM   14  C7  UNL     1      27.043   0.765  53.627  1.00  0.00     0.018 A 
HETATM   15  C8  UNL     1      27.727   0.283  54.823  1.00  0.00     0.211 C 
HETATM   16  C11 UNL     1      27.704   1.935  52.995  1.00  0.00     0.066 A 
HETATM   17  O1  UNL     1      29.106   0.484  54.650  1.00  0.00    -0.383 OA
HETATM   18  C9  UNL     1      29.389   1.851  54.686  1.00  0.00     0.197 C 
HETATM   19  C10 UNL     1      28.834   2.513  53.447  1.00  0.00     0.031 C 
HETATM   20  N2  UNL     1      27.236   2.592  51.825  1.00  0.00    -0.244 NA
HETATM   21  C12 UNL     1      26.163   2.136  51.276  1.00  0.00     0.208 A 
HETATM   22  N3  UNL     1      25.521   1.019  51.868  1.00  0.00    -0.352 N 
HETATM   23  H13 UNL     1      24.669   0.723  51.356  1.00  0.00     0.166 HD
ENDBRANCH   1  13
TORSDOF 4
ENDMDL
MODEL 4
REMARK VINA RESULT:      -7.1      4.365      5.549
REMARK  4 active torsions:
REMARK  status: ('A' for Active; 'I' for Inactive)
REMARK    1  A    between atoms: S1_1  and  C1_2 
REMARK    2  A    between atoms: C4_5  and  N1_6 
REMARK    3  A    between atoms: N1_6  and  C5_7 
REMARK    4  A    between atoms: C5_7  and  C6_8 
ROOT
HETATM    1  C5  UNL     1      25.234   1.256  53.301  1.00  0.00     0.177 C 
ENDROOT
BRANCH   1   2
HETATM    2  N1  UNL     1      24.979   1.772  51.978  1.00  0.00    -0.384 N 
HETATM    3  H4  UNL     1      24.348   1.052  51.501  1.00  0.00     0.160 HD
BRANCH   2   4
HETATM    4  C4  UNL     1      25.286   2.885  51.158  1.00  0.00     0.029 A 
HETATM    5  C3  UNL     1      26.376   2.855  50.279  1.00  0.00     0.030 A 
HETATM    6  C2  UNL     1      26.624   3.982  49.542  1.00  0.00     0.022 A 
HETATM    7  C1  UNL     1      25.873   5.128  49.616  1.00  0.00     0.015 A 
HETATM    8  C14 UNL     1      24.804   5.200  50.458  1.00  0.00     0.029 A 
HETATM    9  C13 UNL     1      24.556   4.072  51.195  1.00  0.00     0.049 A 
HETATM   10 BR1  UNL     1      23.728   6.767  50.599  1.00  0.00    -0.050 Br
BRANCH   7  11
HETATM   11  S1  UNL     1      26.321   6.506  48.596  1.00  0.00    -0.142 SA
HETATM   12  H1  UNL     1      25.501   7.615  48.817  1.00  0.00     0.107 HD
ENDBRANCH   7  11
ENDBRANCH   2   4
ENDBRANCH   1   2
BRANCH   1  13
HETATM   13  C6  UNL     1      26.663   1.064  53.504  1.00  0.00     0.038 A 
HETATM   14  C7  UNL     1      27.135  -0.200  53.357  1.00  0.00     0.018 A 
HETATM   15  C8  UNL     1      26.428  -1.432  53.021  1.00  0.00     0.211 C 
HETATM   16  C11 UNL     1      28.593  -0.390  53.567  1.00  0.00     0.066 A 
HETATM   17  O1  UNL     1      27.293  -2.242  52.267  1.00  0.00    -0.383 OA
HETATM   18  C9  UNL     1      28.323  -2.713  53.082  1.00  0.00     0.197 C 
HETATM   19  C10 UNL     1      29.237  -1.568  53.453  1.00  0.00     0.031 C 
HETATM   20  N2  UNL     1      29.502   0.649  53.905  1.00  0.00    -0.244 NA
HETATM   21  C12 UNL     1      29.023   1.839  54.037  1.00  0.00     0.208 A 
HETATM   22  N3  UNL     1      27.632   2.034  53.839  1.00  0.00    -0.352 N 
HETATM   23  H13 UNL     1      27.341   3.022  53.964  1.00  0.00     0.166 HD
ENDBRANCH   1  13
TORSDOF 4
ENDMDL
MODEL 5
REMARK VINA RESULT:      -7.1      2.070      2.693
REMARK  4 active torsions:
REMARK  status: ('A' for Active; 'I' for Inactive)
REMARK    1  A    between atoms: S1_1  and  C1_2 
REMARK    2  A    between atoms: C4_5  and  N1_6 
REMARK    3  A    between atoms: N1_6  and  C5_7 
REMARK    4  A    between atoms: C5_7  and  C6_8 
ROOT
HETATM    1  C5  UNL     1      24.028  -0.047  53.494  1.00  0.00     0.177 C 
ENDROOT
BRANCH   1   2
HETATM    2  N1  UNL     1      22.760   0.620  53.318  1.00  0.00    -0.384 N 
HETATM    3  H4  UNL     1      22.795   1.484  53.947  1.00  0.00     0.160 HD
BRANCH   2   4
HETATM    4  C4  UNL     1      21.547   0.494  52.599  1.00  0.00     0.029 A 
HETATM    5  C3  UNL     1      21.383   1.098  51.345  1.00  0.00     0.030 A 
HETATM    6  C2  UNL     1      20.170   0.953  50.728  1.00  0.00     0.022 A 
HETATM    7  C1  UNL     1      19.115   0.257  51.263  1.00  0.00     0.015 A 
HETATM    8  C14 UNL     1      19.231  -0.346  52.479  1.00  0.00     0.029 A 
HETATM    9  C13 UNL     1      20.445  -0.201  53.097  1.00  0.00     0.049 A 
HETATM   10 BR1  UNL     1      17.797  -1.325  53.267  1.00  0.00    -0.050 Br
BRANCH   7  11
HETATM   11  S1  UNL     1      17.606   0.160  50.340  1.00  0.00    -0.142 SA
HETATM   12  H1  UNL     1      17.674  -0.789  49.315  1.00  0.00     0.107 HD
ENDBRANCH   7  11
ENDBRANCH   2   4
ENDBRANCH   1   2
BRANCH   1  13
HETATM   13  C6  UNL     1      25.104   0.750  52.923  1.00  0.00     0.038 A 
HETATM   14  C7  UNL     1      26.297   0.713  53.567  1.00  0.00     0.018 A 
HETATM   15  C8  UNL     1      26.691  -0.010  54.772  1.00  0.00     0.211 C 
HETATM   16  C11 UNL     1      27.391   1.529  52.981  1.00  0.00     0.066 A 
HETATM   17  O1  UNL     1      28.042  -0.373  54.644  1.00  0.00    -0.383 OA
HETATM   18  C9  UNL     1      28.843   0.768  54.718  1.00  0.00     0.197 C 
HETATM   19  C10 UNL     1      28.641   1.606  53.477  1.00  0.00     0.031 C 
HETATM   20  N2  UNL     1      27.265   2.328  51.811  1.00  0.00    -0.244 NA
HETATM   21  C12 UNL     1      26.119   2.341  51.221  1.00  0.00     0.208 A 
HETATM   22  N3  UNL     1      25.066   1.566  51.771  1.00  0.00    -0.352 N 
HETATM   23  H13 UNL     1      24.185   1.638  51.228  1.00  0.00     0.166 HD
ENDBRANCH   1  13
TORSDOF 4
ENDMDL
MODEL 6
REMARK VINA RESULT:      -7.0      5.569      7.080
REMARK  4 active torsions:
REMARK  status: ('A' for Active; 'I' for Inactive)
REMARK    1  A    between atoms: S1_1  and  C1_2 
REMARK    2  A    between atoms: C4_5  and  N1_6 
REMARK    3  A    between atoms: N1_6  and  C5_7 
REMARK    4  A    between atoms: C5_7  and  C6_8 
ROOT
HETATM    1  C5  UNL     1      25.072   2.607  51.172  1.00  0.00     0.177 C 
ENDROOT
BRANCH   1   2
HETATM    2  N1  UNL     1      25.225   4.007  50.855  1.00  0.00    -0.384 N 
HETATM    3  H4  UNL     1      24.555   4.528  51.505  1.00  0.00     0.160 HD
BRANCH   2   4
HETATM    4  C4  UNL     1      25.957   4.862  49.996  1.00  0.00     0.029 A 
HETATM    5  C3  UNL     1      27.005   4.368  49.208  1.00  0.00     0.030 A 
HETATM    6  C2  UNL     1      27.683   5.265  48.425  1.00  0.00     0.022 A 
HETATM    7  C1  UNL     1      27.397   6.605  48.370  1.00  0.00     0.015 A 
HETATM    8  C14 UNL     1      26.386   7.127  49.120  1.00  0.00     0.029 A 
HETATM    9  C13 UNL     1      25.708   6.230  49.903  1.00  0.00     0.049 A 
HETATM   10 BR1  UNL     1      25.947   8.981  49.080  1.00  0.00    -0.050 Br
BRANCH   7  11
HETATM   11  S1  UNL     1      28.366   7.638  47.306  1.00  0.00    -0.142 SA
HETATM   12  H1  UNL     1      27.585   8.574  46.623  1.00  0.00     0.107 HD
ENDBRANCH   7  11
ENDBRANCH   2   4
ENDBRANCH   1   2
BRANCH   1  13
HETATM   13  C6  UNL     1      26.006   2.218  52.219  1.00  0.00     0.038 A 
HETATM   14  C7  UNL     1      25.598   1.242  53.068  1.00  0.00     0.018 A 
HETATM   15  C8  UNL     1      24.343   0.498  53.108  1.00  0.00     0.211 C 
HETATM   16  C11 UNL     1      26.555   0.851  54.135  1.00  0.00     0.066 A 
HETATM   17  O1  UNL     1      24.619  -0.802  53.562  1.00  0.00    -0.383 OA
HETATM   18  C9  UNL     1      24.974  -0.762  54.911  1.00  0.00     0.197 C 
HETATM   19  C10 UNL     1      26.326  -0.103  55.057  1.00  0.00     0.031 C 
HETATM   20  N2  UNL     1      27.842   1.426  54.315  1.00  0.00    -0.244 NA
HETATM   21  C12 UNL     1      28.201   2.351  53.491  1.00  0.00     0.208 A 
HETATM   22  N3  UNL     1      27.297   2.734  52.468  1.00  0.00    -0.352 N 
HETATM   23  H13 UNL     1      27.674   3.481  51.855  1.00  0.00     0.166 HD
ENDBRANCH   1  13
TORSDOF 4
ENDMDL
MODEL 7
REMARK VINA RESULT:      -6.9      4.739      6.025
REMARK  4 active torsions:
REMARK  status: ('A' for Active; 'I' for Inactive)
REMARK    1  A    between atoms: S1_1  and  C1_2 
REMARK    2  A    between atoms: C4_5  and  N1_6 
REMARK    3  A    between atoms: N1_6  and  C5_7 
REMARK    4  A    between atoms: C5_7  and  C6_8 
ROOT
HETATM    1  C5  UNL     1      24.848   2.754  52.686  1.00  0.00     0.177 C 
ENDROOT
BRANCH   1   2
HETATM    2  N1  UNL     1      25.048   3.040  51.286  1.00  0.00    -0.384 N 
HETATM    3  H4  UNL     1      24.591   2.233  50.755  1.00  0.00     0.160 HD
BRANCH   2   4
HETATM    4  C4  UNL     1      25.630   4.016  50.440  1.00  0.00     0.029 A 
HETATM    5  C3  UNL     1      26.706   3.695  49.601  1.00  0.00     0.030 A 
HETATM    6  C2  UNL     1      27.230   4.702  48.835  1.00  0.00     0.022 A 
HETATM    7  C1  UNL     1      26.768   5.993  48.843  1.00  0.00     0.015 A 
HETATM    8  C14 UNL     1      25.724   6.348  49.644  1.00  0.00     0.029 A 
HETATM    9  C13 UNL     1      25.198   5.341  50.410  1.00  0.00     0.049 A 
HETATM   10 BR1  UNL     1      25.042   8.127  49.692  1.00  0.00    -0.050 Br
BRANCH   7  11
HETATM   11  S1  UNL     1      27.554   7.184  47.793  1.00  0.00    -0.142 SA
HETATM   12  H1  UNL     1      27.283   6.956  46.440  1.00  0.00     0.107 HD
ENDBRANCH   7  11
ENDBRANCH   2   4
ENDBRANCH   1   2
BRANCH   1  13
HETATM   13  C6  UNL     1      25.361   1.431  53.012  1.00  0.00     0.038 A 
HETATM   14  C7  UNL     1      26.679   1.348  53.320  1.00  0.00     0.018 A 
HETATM   15  C8  UNL     1      27.697   2.392  53.379  1.00  0.00     0.211 C 
HETATM   16  C11 UNL     1      27.197  -0.005  53.650  1.00  0.00     0.066 A 
HETATM   17  O1  UNL     1      28.609   2.060  54.394  1.00  0.00    -0.383 OA
HETATM   18  C9  UNL     1      29.358   0.948  54.006  1.00  0.00     0.197 C 
HETATM   19  C10 UNL     1      28.472  -0.276  53.989  1.00  0.00     0.031 C 
HETATM   20  N2  UNL     1      26.411  -1.189  53.663  1.00  0.00    -0.244 NA
HETATM   21  C12 UNL     1      25.161  -1.077  53.366  1.00  0.00     0.208 A 
HETATM   22  N3  UNL     1      24.654   0.209  53.049  1.00  0.00    -0.352 N 
HETATM   23  H13 UNL     1      23.641   0.201  52.827  1.00  0.00     0.166 HD
ENDBRANCH   1  13
TORSDOF 4
ENDMDL
MODEL 8
REMARK VINA RESULT:      -6.9      2.189      2.719
REMARK  4 active torsions:
REMARK  status: ('A' for Active; 'I' for Inactive)
REMARK    1  A    between atoms: S1_1  and  C1_2 
REMARK    2  A    between atoms: C4_5  and  N1_6 
REMARK    3  A    between atoms: N1_6  and  C5_7 
REMARK    4  A    between atoms: C5_7  and  C6_8 
ROOT
HETATM    1  C5  UNL     1      25.055   2.375  52.048  1.00  0.00     0.177 C 
ENDROOT
BRANCH   1   2
HETATM    2  N1  UNL     1      23.831   2.997  52.492  1.00  0.00    -0.384 N 
HETATM    3  H4  UNL     1      24.111   3.660  53.282  1.00  0.00     0.160 HD
BRANCH   2   4
HETATM    4  C4  UNL     1      22.443   3.004  52.212  1.00  0.00     0.029 A 
HETATM    5  C3  UNL     1      21.790   4.182  51.827  1.00  0.00     0.030 A 
HETATM    6  C2  UNL     1      20.441   4.112  51.604  1.00  0.00     0.022 A 
HETATM    7  C1  UNL     1      19.700   2.965  51.734  1.00  0.00     0.015 A 
HETATM    8  C14 UNL     1      20.295   1.797  52.107  1.00  0.00     0.029 A 
HETATM    9  C13 UNL     1      21.645   1.867  52.331  1.00  0.00     0.049 A 
HETATM   10 BR1  UNL     1      19.312   0.175  52.303  1.00  0.00    -0.050 Br
BRANCH   7  11
HETATM   11  S1  UNL     1      17.960   3.035  51.409  1.00  0.00    -0.142 SA
HETATM   12  H1  UNL     1      17.376   4.204  51.906  1.00  0.00     0.107 HD
ENDBRANCH   7  11
ENDBRANCH   2   4
ENDBRANCH   1   2
BRANCH   1  13
HETATM   13  C6  UNL     1      25.475   1.349  52.993  1.00  0.00     0.038 A 
HETATM   14  C7  UNL     1      26.761   1.405  53.421  1.00  0.00     0.018 A 
HETATM   15  C8  UNL     1      27.824   2.346  53.081  1.00  0.00     0.211 C 
HETATM   16  C11 UNL     1      27.183   0.355  54.384  1.00  0.00     0.066 A 
HETATM   17  O1  UNL     1      28.639   2.514  54.212  1.00  0.00    -0.383 OA
HETATM   18  C9  UNL     1      29.358   1.341  54.450  1.00  0.00     0.197 C 
HETATM   19  C10 UNL     1      28.414   0.259  54.922  1.00  0.00     0.031 C 
HETATM   20  N2  UNL     1      26.340  -0.680  54.872  1.00  0.00    -0.244 NA
HETATM   21  C12 UNL     1      25.123  -0.704  54.446  1.00  0.00     0.208 A 
HETATM   22  N3  UNL     1      24.706   0.292  53.527  1.00  0.00    -0.352 N 
HETATM   23  H13 UNL     1      23.713   0.192  53.245  1.00  0.00     0.166 HD
ENDBRANCH   1  13
TORSDOF 4
ENDMDL
MODEL 9
REMARK VINA RESULT:      -6.8      4.916      6.468
REMARK  4 active torsions:
REMARK  status: ('A' for Active; 'I' for Inactive)
REMARK    1  A    between atoms: S1_1  and  C1_2 
REMARK    2  A    between atoms: C4_5  and  N1_6 
REMARK    3  A    between atoms: N1_6  and  C5_7 
REMARK    4  A    between atoms: C5_7  and  C6_8 
ROOT
HETATM    1  C5  UNL     1      23.447   3.506  52.423  1.00  0.00     0.177 C 
ENDROOT
BRANCH   1   2
HETATM    2  N1  UNL     1      23.875   3.739  51.065  1.00  0.00    -0.384 N 
HETATM    3  H4  UNL     1      23.141   3.272  50.444  1.00  0.00     0.160 HD
BRANCH   2   4
HETATM    4  C4  UNL     1      24.913   4.370  50.336  1.00  0.00     0.029 A 
HETATM    5  C3  UNL     1      25.964   3.625  49.785  1.00  0.00     0.030 A 
HETATM    6  C2  UNL     1      26.943   4.312  49.120  1.00  0.00     0.022 A 
HETATM    7  C1  UNL     1      26.955   5.675  48.965  1.00  0.00     0.015 A 
HETATM    8  C14 UNL     1      25.953   6.438  49.486  1.00  0.00     0.029 A 
HETATM    9  C13 UNL     1      24.972   5.750  50.151  1.00  0.00     0.049 A 
HETATM   10 BR1  UNL     1      25.920   8.335  49.299  1.00  0.00    -0.050 Br
BRANCH   7  11
HETATM   11  S1  UNL     1      28.295   6.419  48.077  1.00  0.00    -0.142 SA
HETATM   12  H1  UNL     1      28.902   7.450  48.800  1.00  0.00     0.107 HD
ENDBRANCH   7  11
ENDBRANCH   2   4
ENDBRANCH   1   2
BRANCH   1  13
HETATM   13  C6  UNL     1      23.499   2.085  52.734  1.00  0.00     0.038 A 
HETATM   14  C7  UNL     1      24.668   1.613  53.236  1.00  0.00     0.018 A 
HETATM   15  C8  UNL     1      25.917   2.312  53.521  1.00  0.00     0.211 C 
HETATM   16  C11 UNL     1      24.715   0.162  53.550  1.00  0.00     0.066 A 
HETATM   17  O1  UNL     1      26.513   1.708  54.640  1.00  0.00    -0.383 OA
HETATM   18  C9  UNL     1      26.967   0.433  54.298  1.00  0.00     0.197 C 
HETATM   19  C10 UNL     1      25.784  -0.477  54.062  1.00  0.00     0.031 C 
HETATM   20  N2  UNL     1      23.633  -0.741  53.361  1.00  0.00    -0.244 NA
HETATM   21  C12 UNL     1      22.535  -0.261  52.884  1.00  0.00     0.208 A 
HETATM   22  N3  UNL     1      22.477   1.123  52.579  1.00  0.00    -0.352 N 
HETATM   23  H13 UNL     1      21.555   1.416  52.204  1.00  0.00     0.166 HD
ENDBRANCH   1  13
TORSDOF 4
ENDMDL
