MODEL 1
REMARK VINA RESULT:      -7.9      0.000      0.000
REMARK  6 active torsions:
REMARK  status: ('A' for Active; 'I' for Inactive)
REMARK    1  A    between atoms: C1_2  and  C2_3 
REMARK       I    between atoms: C1_2  and  N3_14 
REMARK    2  A    between atoms: C3_4  and  C4_5 
REMARK    3  A    between atoms: C5_6  and  O2_7 
REMARK    4  A    between atoms: O2_7  and  C6_8 
REMARK    5  A    between atoms: N3_14  and  C10_15 
REMARK    6  A    between atoms: C13_18  and  C14_19 
ROOT
HETATM    1  O1  UNL     1      24.740   3.054  52.433  1.00  0.00    -0.268 OA
HETATM    2  C1  UNL     1      24.189   1.993  52.010  1.00  0.00     0.245 C 
HETATM    3  N3  UNL     1      24.318   2.175  50.588  1.00  0.00    -0.324 N 
HETATM    4  H8  UNL     1      24.060   1.648  49.701  1.00  0.00     0.169 HD
ENDROOT
BRANCH   2   5
HETATM    5  C2  UNL     1      23.519   0.734  52.290  1.00  0.00     0.074 C 
HETATM    6  C3  UNL     1      23.243  -0.293  53.049  1.00  0.00     0.007 C 
BRANCH   6   7
HETATM    7  C4  UNL     1      23.773  -0.526  54.374  1.00  0.00     0.025 C 
HETATM    8  C5  UNL     1      25.040  -0.865  54.488  1.00  0.00     0.144 C 
BRANCH   8   9
HETATM    9  O2  UNL     1      25.917  -1.020  53.433  1.00  0.00    -0.304 OA
BRANCH   9  10
HETATM   10  C6  UNL     1      27.230  -0.567  53.473  1.00  0.00     0.171 A 
HETATM   11  C7  UNL     1      27.603   0.764  53.492  1.00  0.00     0.077 A 
HETATM   12  C8  UNL     1      28.919   1.171  53.532  1.00  0.00     0.122 A 
HETATM   13  N1  UNL     1      29.874   0.210  53.552  1.00  0.00    -0.254 NA
HETATM   14  C9  UNL     1      29.525  -1.084  53.532  1.00  0.00     0.235 A 
HETATM   15  N2  UNL     1      28.223  -1.464  53.494  1.00  0.00    -0.218 NA
ENDBRANCH   9  10
ENDBRANCH   8   9
ENDBRANCH   6   7
ENDBRANCH   2   5
BRANCH   3  16
HETATM   16  C10 UNL     1      24.951   3.350  50.040  1.00  0.00     0.035 A 
HETATM   17  C11 UNL     1      26.284   3.150  49.728  1.00  0.00     0.030 A 
HETATM   18  C12 UNL     1      27.028   4.196  49.190  1.00  0.00     0.018 A 
HETATM   19  C13 UNL     1      26.430   5.427  48.972  1.00  0.00     0.048 A 
HETATM   20  C15 UNL     1      25.100   5.605  49.290  1.00  0.00     0.018 A 
HETATM   21  C16 UNL     1      24.340   4.573  49.828  1.00  0.00     0.030 A 
BRANCH  19  22
HETATM   22  C14 UNL     1      27.212   6.565  48.394  1.00  0.00     0.417 C 
HETATM   23  F1  UNL     1      26.399   7.153  47.436  1.00  0.00    -0.166 F 
HETATM   24  F2  UNL     1      27.492   7.523  49.326  1.00  0.00    -0.166 F 
HETATM   25  F3  UNL     1      28.333   6.130  47.712  1.00  0.00    -0.166 F 
ENDBRANCH  19  22
ENDBRANCH   3  16
TORSDOF 6
ENDMDL
MODEL 2
REMARK VINA RESULT:      -7.8      4.238      6.534
REMARK  6 active torsions:
REMARK  status: ('A' for Active; 'I' for Inactive)
REMARK    1  A    between atoms: C1_2  and  C2_3 
REMARK       I    between atoms: C1_2  and  N3_14 
REMARK    2  A    between atoms: C3_4  and  C4_5 
REMARK    3  A    between atoms: C5_6  and  O2_7 
REMARK    4  A    between atoms: O2_7  and  C6_8 
REMARK    5  A    between atoms: N3_14  and  C10_15 
REMARK    6  A    between atoms: C13_18  and  C14_19 
ROOT
HETATM    1  O1  UNL     1      26.046   2.844  50.308  1.00  0.00    -0.268 OA
HETATM    2  C1  UNL     1      24.793   2.764  50.488  1.00  0.00     0.245 C 
HETATM    3  N3  UNL     1      24.743   1.886  51.627  1.00  0.00    -0.324 N 
HETATM    4  H8  UNL     1      24.001   1.443  52.247  1.00  0.00     0.169 HD
ENDROOT
BRANCH   2   5
HETATM    5  C2  UNL     1      23.446   3.136  50.089  1.00  0.00     0.074 C 
HETATM    6  C3  UNL     1      22.231   2.860  49.696  1.00  0.00     0.007 C 
BRANCH   6   7
HETATM    7  C4  UNL     1      21.705   1.534  49.460  1.00  0.00     0.025 C 
HETATM    8  C5  UNL     1      21.497   0.752  50.499  1.00  0.00     0.144 C 
BRANCH   8   9
HETATM    9  O2  UNL     1      21.744   1.097  51.812  1.00  0.00    -0.304 OA
BRANCH   9  10
HETATM   10  C6  UNL     1      21.686   0.181  52.855  1.00  0.00     0.171 A 
HETATM   11  C7  UNL     1      22.745  -0.133  53.686  1.00  0.00     0.077 A 
HETATM   12  C8  UNL     1      22.645  -1.049  54.711  1.00  0.00     0.122 A 
HETATM   13  N1  UNL     1      21.449  -1.659  54.896  1.00  0.00    -0.254 NA
HETATM   14  C9  UNL     1      20.415  -1.363  54.096  1.00  0.00     0.235 A 
HETATM   15  N2  UNL     1      20.534  -0.457  53.093  1.00  0.00    -0.218 NA
ENDBRANCH   9  10
ENDBRANCH   8   9
ENDBRANCH   6   7
ENDBRANCH   2   5
BRANCH   3  16
HETATM   16  C10 UNL     1      25.950   1.368  52.224  1.00  0.00     0.035 A 
HETATM   17  C11 UNL     1      26.125   0.014  52.001  1.00  0.00     0.030 A 
HETATM   18  C12 UNL     1      27.247  -0.628  52.517  1.00  0.00     0.018 A 
HETATM   19  C13 UNL     1      28.177   0.092  53.250  1.00  0.00     0.048 A 
HETATM   20  C15 UNL     1      27.983   1.441  53.462  1.00  0.00     0.018 A 
HETATM   21  C16 UNL     1      26.870   2.100  52.954  1.00  0.00     0.030 A 
BRANCH  19  22
HETATM   22  C14 UNL     1      29.390  -0.579  53.815  1.00  0.00     0.417 C 
HETATM   23  F1  UNL     1      29.310  -0.440  55.193  1.00  0.00    -0.166 F 
HETATM   24  F2  UNL     1      29.410  -1.918  53.546  1.00  0.00    -0.166 F 
HETATM   25  F3  UNL     1      30.556   0.064  53.444  1.00  0.00    -0.166 F 
ENDBRANCH  19  22
ENDBRANCH   3  16
TORSDOF 6
ENDMDL
MODEL 3
REMARK VINA RESULT:      -7.8      3.796      6.512
REMARK  6 active torsions:
REMARK  status: ('A' for Active; 'I' for Inactive)
REMARK    1  A    between atoms: C1_2  and  C2_3 
REMARK       I    between atoms: C1_2  and  N3_14 
REMARK    2  A    between atoms: C3_4  and  C4_5 
REMARK    3  A    between atoms: C5_6  and  O2_7 
REMARK    4  A    between atoms: O2_7  and  C6_8 
REMARK    5  A    between atoms: N3_14  and  C10_15 
REMARK    6  A    between atoms: C13_18  and  C14_19 
ROOT
HETATM    1  O1  UNL     1      23.377   0.033  53.202  1.00  0.00    -0.268 OA
HETATM    2  C1  UNL     1      22.878   0.678  52.231  1.00  0.00     0.245 C 
HETATM    3  N3  UNL     1      24.061   1.278  51.674  1.00  0.00    -0.324 N 
HETATM    4  H8  UNL     1      24.311   1.920  50.863  1.00  0.00     0.169 HD
ENDROOT
BRANCH   2   5
HETATM    5  C2  UNL     1      21.712   1.070  51.458  1.00  0.00     0.074 C 
HETATM    6  C3  UNL     1      21.068   1.253  50.335  1.00  0.00     0.007 C 
BRANCH   6   7
HETATM    7  C4  UNL     1      21.594   0.998  49.012  1.00  0.00     0.025 C 
HETATM    8  C5  UNL     1      22.147   1.999  48.359  1.00  0.00     0.144 C 
BRANCH   8   9
HETATM    9  O2  UNL     1      22.267   3.288  48.837  1.00  0.00    -0.304 OA
BRANCH   9  10
HETATM   10  C6  UNL     1      23.493   3.929  48.974  1.00  0.00     0.171 A 
HETATM   11  C7  UNL     1      23.728   5.254  48.656  1.00  0.00     0.077 A 
HETATM   12  C8  UNL     1      24.960   5.851  48.808  1.00  0.00     0.122 A 
HETATM   13  N1  UNL     1      25.973   5.091  49.292  1.00  0.00    -0.254 NA
HETATM   14  C9  UNL     1      25.757   3.805  49.604  1.00  0.00     0.235 A 
HETATM   15  N2  UNL     1      24.535   3.236  49.447  1.00  0.00    -0.218 NA
ENDBRANCH   9  10
ENDBRANCH   8   9
ENDBRANCH   6   7
ENDBRANCH   2   5
BRANCH   3  16
HETATM   16  C10 UNL     1      25.361   1.048  52.257  1.00  0.00     0.035 A 
HETATM   17  C11 UNL     1      25.818   2.122  53.000  1.00  0.00     0.030 A 
HETATM   18  C12 UNL     1      27.059   2.046  53.624  1.00  0.00     0.018 A 
HETATM   19  C13 UNL     1      27.827   0.899  53.496  1.00  0.00     0.048 A 
HETATM   20  C15 UNL     1      27.353  -0.159  52.750  1.00  0.00     0.018 A 
HETATM   21  C16 UNL     1      26.116  -0.104  52.119  1.00  0.00     0.030 A 
BRANCH  19  22
HETATM   22  C14 UNL     1      29.165   0.797  54.159  1.00  0.00     0.417 C 
HETATM   23  F1  UNL     1      29.001  -0.050  55.245  1.00  0.00    -0.166 F 
HETATM   24  F2  UNL     1      30.102   0.228  53.343  1.00  0.00    -0.166 F 
HETATM   25  F3  UNL     1      29.574   2.006  54.689  1.00  0.00    -0.166 F 
ENDBRANCH  19  22
ENDBRANCH   3  16
TORSDOF 6
ENDMDL
MODEL 4
REMARK VINA RESULT:      -7.6      3.879      6.551
REMARK  6 active torsions:
REMARK  status: ('A' for Active; 'I' for Inactive)
REMARK    1  A    between atoms: C1_2  and  C2_3 
REMARK       I    between atoms: C1_2  and  N3_14 
REMARK    2  A    between atoms: C3_4  and  C4_5 
REMARK    3  A    between atoms: C5_6  and  O2_7 
REMARK    4  A    between atoms: O2_7  and  C6_8 
REMARK    5  A    between atoms: N3_14  and  C10_15 
REMARK    6  A    between atoms: C13_18  and  C14_19 
ROOT
HETATM    1  O1  UNL     1      23.328   0.832  53.298  1.00  0.00    -0.268 OA
HETATM    2  C1  UNL     1      23.061   1.819  52.549  1.00  0.00     0.245 C 
HETATM    3  N3  UNL     1      24.369   2.120  52.028  1.00  0.00    -0.324 N 
HETATM    4  H8  UNL     1      24.808   2.823  51.362  1.00  0.00     0.169 HD
ENDROOT
BRANCH   2   5
HETATM    5  C2  UNL     1      22.084   2.744  51.999  1.00  0.00     0.074 C 
HETATM    6  C3  UNL     1      21.638   3.943  51.733  1.00  0.00     0.007 C 
BRANCH   6   7
HETATM    7  C4  UNL     1      22.302   5.182  52.074  1.00  0.00     0.025 C 
HETATM    8  C5  UNL     1      23.184   5.669  51.225  1.00  0.00     0.144 C 
BRANCH   8   9
HETATM    9  O2  UNL     1      23.532   5.088  50.023  1.00  0.00    -0.304 OA
BRANCH   9  10
HETATM   10  C6  UNL     1      24.852   4.895  49.634  1.00  0.00     0.171 A 
HETATM   11  C7  UNL     1      25.654   5.864  49.060  1.00  0.00     0.077 A 
HETATM   12  C8  UNL     1      26.960   5.630  48.689  1.00  0.00     0.122 A 
HETATM   13  N1  UNL     1      27.463   4.390  48.904  1.00  0.00    -0.254 NA
HETATM   14  C9  UNL     1      26.695   3.441  49.459  1.00  0.00     0.235 A 
HETATM   15  N2  UNL     1      25.411   3.693  49.818  1.00  0.00    -0.218 NA
ENDBRANCH   9  10
ENDBRANCH   8   9
ENDBRANCH   6   7
ENDBRANCH   2   5
BRANCH   3  16
HETATM   16  C10 UNL     1      25.523   1.346  52.417  1.00  0.00     0.035 A 
HETATM   17  C11 UNL     1      26.457   2.085  53.120  1.00  0.00     0.030 A 
HETATM   18  C12 UNL     1      27.626   1.473  53.562  1.00  0.00     0.018 A 
HETATM   19  C13 UNL     1      27.845   0.131  53.294  1.00  0.00     0.048 A 
HETATM   20  C15 UNL     1      26.901  -0.588  52.591  1.00  0.00     0.018 A 
HETATM   21  C16 UNL     1      25.727   0.005  52.141  1.00  0.00     0.030 A 
BRANCH  19  22
HETATM   22  C14 UNL     1      29.096  -0.548  53.760  1.00  0.00     0.417 C 
HETATM   23  F1  UNL     1      30.155   0.182  53.240  1.00  0.00    -0.166 F 
HETATM   24  F2  UNL     1      29.219  -0.521  55.121  1.00  0.00    -0.166 F 
HETATM   25  F3  UNL     1      29.224  -1.817  53.231  1.00  0.00    -0.166 F 
ENDBRANCH  19  22
ENDBRANCH   3  16
TORSDOF 6
ENDMDL
MODEL 5
REMARK VINA RESULT:      -7.4      4.364      7.242
REMARK  6 active torsions:
REMARK  status: ('A' for Active; 'I' for Inactive)
REMARK    1  A    between atoms: C1_2  and  C2_3 
REMARK       I    between atoms: C1_2  and  N3_14 
REMARK    2  A    between atoms: C3_4  and  C4_5 
REMARK    3  A    between atoms: C5_6  and  O2_7 
REMARK    4  A    between atoms: O2_7  and  C6_8 
REMARK    5  A    between atoms: N3_14  and  C10_15 
REMARK    6  A    between atoms: C13_18  and  C14_19 
ROOT
HETATM    1  O1  UNL     1      24.268   0.877  52.265  1.00  0.00    -0.268 OA
HETATM    2  C1  UNL     1      23.355   0.373  52.987  1.00  0.00     0.245 C 
HETATM    3  N3  UNL     1      24.137  -0.460  53.862  1.00  0.00    -0.324 N 
HETATM    4  H8  UNL     1      23.967  -1.126  54.674  1.00  0.00     0.169 HD
ENDROOT
BRANCH   2   5
HETATM    5  C2  UNL     1      21.946   0.257  53.321  1.00  0.00     0.074 C 
HETATM    6  C3  UNL     1      20.673   0.296  53.026  1.00  0.00     0.007 C 
BRANCH   6   7
HETATM    7  C4  UNL     1      20.120   0.595  51.723  1.00  0.00     0.025 C 
HETATM    8  C5  UNL     1      19.903   1.856  51.413  1.00  0.00     0.144 C 
BRANCH   8   9
HETATM    9  O2  UNL     1      20.161   2.931  52.240  1.00  0.00    -0.304 OA
BRANCH   9  10
HETATM   10  C6  UNL     1      21.088   3.917  51.926  1.00  0.00     0.171 A 
HETATM   11  C7  UNL     1      22.408   3.916  52.337  1.00  0.00     0.077 A 
HETATM   12  C8  UNL     1      23.296   4.915  52.002  1.00  0.00     0.122 A 
HETATM   13  N1  UNL     1      22.837   5.934  51.237  1.00  0.00    -0.254 NA
HETATM   14  C9  UNL     1      21.559   5.947  50.832  1.00  0.00     0.235 A 
HETATM   15  N2  UNL     1      20.700   4.953  51.172  1.00  0.00    -0.218 NA
ENDBRANCH   9  10
ENDBRANCH   8   9
ENDBRANCH   6   7
ENDBRANCH   2   5
BRANCH   3  16
HETATM   16  C10 UNL     1      25.574  -0.528  53.743  1.00  0.00     0.035 A 
HETATM   17  C11 UNL     1      26.231   0.274  54.659  1.00  0.00     0.030 A 
HETATM   18  C12 UNL     1      27.622   0.313  54.665  1.00  0.00     0.018 A 
HETATM   19  C13 UNL     1      28.336  -0.449  53.754  1.00  0.00     0.048 A 
HETATM   20  C15 UNL     1      27.662  -1.242  52.849  1.00  0.00     0.018 A 
HETATM   21  C16 UNL     1      26.273  -1.295  52.827  1.00  0.00     0.030 A 
BRANCH  19  22
HETATM   22  C14 UNL     1      29.833  -0.422  53.743  1.00  0.00     0.417 C 
HETATM   23  F1  UNL     1      30.216  -0.465  52.410  1.00  0.00    -0.166 F 
HETATM   24  F2  UNL     1      30.331   0.737  54.267  1.00  0.00    -0.166 F 
HETATM   25  F3  UNL     1      30.376  -1.554  54.321  1.00  0.00    -0.166 F 
ENDBRANCH  19  22
ENDBRANCH   3  16
TORSDOF 6
ENDMDL
MODEL 6
REMARK VINA RESULT:      -7.3      5.444      8.366
REMARK  6 active torsions:
REMARK  status: ('A' for Active; 'I' for Inactive)
REMARK    1  A    between atoms: C1_2  and  C2_3 
REMARK       I    between atoms: C1_2  and  N3_14 
REMARK    2  A    between atoms: C3_4  and  C4_5 
REMARK    3  A    between atoms: C5_6  and  O2_7 
REMARK    4  A    between atoms: O2_7  and  C6_8 
REMARK    5  A    between atoms: N3_14  and  C10_15 
REMARK    6  A    between atoms: C13_18  and  C14_19 
ROOT
HETATM    1  O1  UNL     1      24.613   3.599  51.587  1.00  0.00    -0.268 OA
HETATM    2  C1  UNL     1      25.530   3.248  50.785  1.00  0.00     0.245 C 
HETATM    3  N3  UNL     1      25.476   1.817  50.929  1.00  0.00    -0.324 N 
HETATM    4  H8  UNL     1      25.978   0.967  50.532  1.00  0.00     0.169 HD
ENDROOT
BRANCH   2   5
HETATM    5  C2  UNL     1      26.562   3.612  49.830  1.00  0.00     0.074 C 
HETATM    6  C3  UNL     1      27.160   4.452  49.027  1.00  0.00     0.007 C 
BRANCH   6   7
HETATM    7  C4  UNL     1      26.762   5.823  48.794  1.00  0.00     0.025 C 
HETATM    8  C5  UNL     1      27.598   6.614  48.156  1.00  0.00     0.144 C 
BRANCH   8   9
HETATM    9  O2  UNL     1      28.841   6.240  47.686  1.00  0.00    -0.304 OA
BRANCH   9  10
HETATM   10  C6  UNL     1      30.017   6.864  48.085  1.00  0.00     0.171 A 
HETATM   11  C7  UNL     1      31.288   6.442  47.743  1.00  0.00     0.077 A 
HETATM   12  C8  UNL     1      32.429   7.091  48.161  1.00  0.00     0.122 A 
HETATM   13  N1  UNL     1      32.279   8.189  48.940  1.00  0.00    -0.254 NA
HETATM   14  C9  UNL     1      31.051   8.609  49.279  1.00  0.00     0.235 A 
HETATM   15  N2  UNL     1      29.940   7.955  48.856  1.00  0.00    -0.218 NA
ENDBRANCH   9  10
ENDBRANCH   8   9
ENDBRANCH   6   7
ENDBRANCH   2   5
BRANCH   3  16
HETATM   16  C10 UNL     1      24.530   1.191  51.822  1.00  0.00     0.035 A 
HETATM   17  C11 UNL     1      25.138   0.527  52.872  1.00  0.00     0.030 A 
HETATM   18  C12 UNL     1      24.353  -0.127  53.817  1.00  0.00     0.018 A 
HETATM   19  C13 UNL     1      22.972  -0.108  53.699  1.00  0.00     0.048 A 
HETATM   20  C15 UNL     1      22.387   0.560  52.644  1.00  0.00     0.018 A 
HETATM   21  C16 UNL     1      23.153   1.219  51.690  1.00  0.00     0.030 A 
BRANCH  19  22
HETATM   22  C14 UNL     1      22.109  -0.805  54.704  1.00  0.00     0.417 C 
HETATM   23  F1  UNL     1      21.250   0.157  55.216  1.00  0.00    -0.166 F 
HETATM   24  F2  UNL     1      21.334  -1.774  54.133  1.00  0.00    -0.166 F 
HETATM   25  F3  UNL     1      22.839  -1.263  55.784  1.00  0.00    -0.166 F 
ENDBRANCH  19  22
ENDBRANCH   3  16
TORSDOF 6
ENDMDL
MODEL 7
REMARK VINA RESULT:      -7.3      4.387      7.243
REMARK  6 active torsions:
REMARK  status: ('A' for Active; 'I' for Inactive)
REMARK    1  A    between atoms: C1_2  and  C2_3 
REMARK       I    between atoms: C1_2  and  N3_14 
REMARK    2  A    between atoms: C3_4  and  C4_5 
REMARK    3  A    between atoms: C5_6  and  O2_7 
REMARK    4  A    between atoms: O2_7  and  C6_8 
REMARK    5  A    between atoms: N3_14  and  C10_15 
REMARK    6  A    between atoms: C13_18  and  C14_19 
ROOT
HETATM    1  O1  UNL     1      23.791   4.462  52.920  1.00  0.00    -0.268 OA
HETATM    2  C1  UNL     1      23.434   4.872  51.775  1.00  0.00     0.245 C 
HETATM    3  N3  UNL     1      23.945   3.815  50.942  1.00  0.00    -0.324 N 
HETATM    4  H8  UNL     1      23.970   3.571  49.907  1.00  0.00     0.169 HD
ENDROOT
BRANCH   2   5
HETATM    5  C2  UNL     1      22.775   5.875  50.955  1.00  0.00     0.074 C 
HETATM    6  C3  UNL     1      22.697   7.054  50.397  1.00  0.00     0.007 C 
BRANCH   6   7
HETATM    7  C4  UNL     1      23.682   8.106  50.514  1.00  0.00     0.025 C 
HETATM    8  C5  UNL     1      24.719   8.082  49.702  1.00  0.00     0.144 C 
BRANCH   8   9
HETATM    9  O2  UNL     1      24.947   7.122  48.736  1.00  0.00    -0.304 OA
BRANCH   9  10
HETATM   10  C6  UNL     1      26.149   6.433  48.629  1.00  0.00     0.171 A 
HETATM   11  C7  UNL     1      27.329   6.978  48.159  1.00  0.00     0.077 A 
HETATM   12  C8  UNL     1      28.500   6.257  48.069  1.00  0.00     0.122 A 
HETATM   13  N1  UNL     1      28.474   4.961  48.462  1.00  0.00    -0.254 NA
HETATM   14  C9  UNL     1      27.335   4.421  48.919  1.00  0.00     0.235 A 
HETATM   15  N2  UNL     1      26.192   5.148  49.001  1.00  0.00    -0.218 NA
ENDBRANCH   9  10
ENDBRANCH   8   9
ENDBRANCH   6   7
ENDBRANCH   2   5
BRANCH   3  16
HETATM   16  C10 UNL     1      24.646   2.689  51.511  1.00  0.00     0.035 A 
HETATM   17  C11 UNL     1      23.797   1.753  52.075  1.00  0.00     0.030 A 
HETATM   18  C12 UNL     1      24.330   0.610  52.664  1.00  0.00     0.018 A 
HETATM   19  C13 UNL     1      25.703   0.420  52.682  1.00  0.00     0.048 A 
HETATM   20  C15 UNL     1      26.531   1.366  52.115  1.00  0.00     0.018 A 
HETATM   21  C16 UNL     1      26.018   2.514  51.522  1.00  0.00     0.030 A 
BRANCH  19  22
HETATM   22  C14 UNL     1      26.297  -0.802  53.310  1.00  0.00     0.417 C 
HETATM   23  F1  UNL     1      26.433  -1.738  52.295  1.00  0.00    -0.166 F 
HETATM   24  F2  UNL     1      27.546  -0.568  53.811  1.00  0.00    -0.166 F 
HETATM   25  F3  UNL     1      25.444  -1.377  54.232  1.00  0.00    -0.166 F 
ENDBRANCH  19  22
ENDBRANCH   3  16
TORSDOF 6
ENDMDL
MODEL 8
REMARK VINA RESULT:      -7.2      4.264      6.386
REMARK  6 active torsions:
REMARK  status: ('A' for Active; 'I' for Inactive)
REMARK    1  A    between atoms: C1_2  and  C2_3 
REMARK       I    between atoms: C1_2  and  N3_14 
REMARK    2  A    between atoms: C3_4  and  C4_5 
REMARK    3  A    between atoms: C5_6  and  O2_7 
REMARK    4  A    between atoms: O2_7  and  C6_8 
REMARK    5  A    between atoms: N3_14  and  C10_15 
REMARK    6  A    between atoms: C13_18  and  C14_19 
ROOT
HETATM    1  O1  UNL     1      23.861   2.704  53.074  1.00  0.00    -0.268 OA
HETATM    2  C1  UNL     1      23.459   2.758  51.872  1.00  0.00     0.245 C 
HETATM    3  N3  UNL     1      24.543   2.091  51.199  1.00  0.00    -0.324 N 
HETATM    4  H8  UNL     1      24.802   1.819  50.204  1.00  0.00     0.169 HD
ENDROOT
BRANCH   2   5
HETATM    5  C2  UNL     1      22.452   3.166  50.907  1.00  0.00     0.074 C 
HETATM    6  C3  UNL     1      21.242   3.528  50.571  1.00  0.00     0.007 C 
BRANCH   6   7
HETATM    7  C4  UNL     1      20.124   3.671  51.478  1.00  0.00     0.025 C 
HETATM    8  C5  UNL     1      19.588   2.579  51.982  1.00  0.00     0.144 C 
BRANCH   8   9
HETATM    9  O2  UNL     1      20.009   1.292  51.713  1.00  0.00    -0.304 OA
BRANCH   9  10
HETATM   10  C6  UNL     1      20.743   0.535  52.618  1.00  0.00     0.171 A 
HETATM   11  C7  UNL     1      21.736  -0.361  52.271  1.00  0.00     0.077 A 
HETATM   12  C8  UNL     1      22.441  -1.093  53.202  1.00  0.00     0.122 A 
HETATM   13  N1  UNL     1      22.134  -0.911  54.509  1.00  0.00    -0.254 NA
HETATM   14  C9  UNL     1      21.172  -0.044  54.858  1.00  0.00     0.235 A 
HETATM   15  N2  UNL     1      20.490   0.667  53.925  1.00  0.00    -0.218 NA
ENDBRANCH   9  10
ENDBRANCH   8   9
ENDBRANCH   6   7
ENDBRANCH   2   5
BRANCH   3  16
HETATM   16  C10 UNL     1      25.677   1.583  51.932  1.00  0.00     0.035 A 
HETATM   17  C11 UNL     1      26.692   2.514  52.069  1.00  0.00     0.030 A 
HETATM   18  C12 UNL     1      27.853   2.167  52.754  1.00  0.00     0.018 A 
HETATM   19  C13 UNL     1      27.984   0.896  53.290  1.00  0.00     0.048 A 
HETATM   20  C15 UNL     1      26.960  -0.016  53.142  1.00  0.00     0.018 A 
HETATM   21  C16 UNL     1      25.793   0.310  52.462  1.00  0.00     0.030 A 
BRANCH  19  22
HETATM   22  C14 UNL     1      29.224   0.503  54.030  1.00  0.00     0.417 C 
HETATM   23  F1  UNL     1      30.114   0.025  53.079  1.00  0.00    -0.166 F 
HETATM   24  F2  UNL     1      29.822   1.571  54.638  1.00  0.00    -0.166 F 
HETATM   25  F3  UNL     1      29.000  -0.553  54.893  1.00  0.00    -0.166 F 
ENDBRANCH  19  22
ENDBRANCH   3  16
TORSDOF 6
ENDMDL
MODEL 9
REMARK VINA RESULT:      -7.1      3.816      5.685
REMARK  6 active torsions:
REMARK  status: ('A' for Active; 'I' for Inactive)
REMARK    1  A    between atoms: C1_2  and  C2_3 
REMARK       I    between atoms: C1_2  and  N3_14 
REMARK    2  A    between atoms: C3_4  and  C4_5 
REMARK    3  A    between atoms: C5_6  and  O2_7 
REMARK    4  A    between atoms: O2_7  and  C6_8 
REMARK    5  A    between atoms: N3_14  and  C10_15 
REMARK    6  A    between atoms: C13_18  and  C14_19 
ROOT
HETATM    1  O1  UNL     1      26.789   7.318  47.936  1.00  0.00    -0.268 OA
HETATM    2  C1  UNL     1      27.365   6.291  48.407  1.00  0.00     0.245 C 
HETATM    3  N3  UNL     1      28.607   6.865  48.856  1.00  0.00    -0.324 N 
HETATM    4  H8  UNL     1      29.500   6.536  49.331  1.00  0.00     0.169 HD
ENDROOT
BRANCH   2   5
HETATM    5  C2  UNL     1      27.347   4.866  48.690  1.00  0.00     0.074 C 
HETATM    6  C3  UNL     1      26.863   3.802  49.274  1.00  0.00     0.007 C 
BRANCH   6   7
HETATM    7  C4  UNL     1      25.731   3.778  50.175  1.00  0.00     0.025 C 
HETATM    8  C5  UNL     1      25.670   2.816  51.072  1.00  0.00     0.144 C 
BRANCH   8   9
HETATM    9  O2  UNL     1      26.608   1.815  51.226  1.00  0.00    -0.304 OA
BRANCH   9  10
HETATM   10  C6  UNL     1      27.286   1.594  52.419  1.00  0.00     0.171 A 
HETATM   11  C7  UNL     1      27.025   0.554  53.291  1.00  0.00     0.077 A 
HETATM   12  C8  UNL     1      27.722   0.371  54.466  1.00  0.00     0.122 A 
HETATM   13  N1  UNL     1      28.701   1.260  54.761  1.00  0.00    -0.254 NA
HETATM   14  C9  UNL     1      28.963   2.273  53.923  1.00  0.00     0.235 A 
HETATM   15  N2  UNL     1      28.265   2.435  52.771  1.00  0.00    -0.218 NA
ENDBRANCH   9  10
ENDBRANCH   8   9
ENDBRANCH   6   7
ENDBRANCH   2   5
BRANCH   3  16
HETATM   16  C10 UNL     1      28.880   8.273  48.694  1.00  0.00     0.035 A 
HETATM   17  C11 UNL     1      28.146   9.068  49.557  1.00  0.00     0.030 A 
HETATM   18  C12 UNL     1      28.303  10.451  49.517  1.00  0.00     0.018 A 
HETATM   19  C13 UNL     1      29.191  11.018  48.616  1.00  0.00     0.048 A 
HETATM   20  C15 UNL     1      29.912  10.207  47.765  1.00  0.00     0.018 A 
HETATM   21  C16 UNL     1      29.770   8.824  47.790  1.00  0.00     0.030 A 
BRANCH  19  22
HETATM   22  C14 UNL     1      29.375  12.502  48.557  1.00  0.00     0.417 C 
HETATM   23  F1  UNL     1      30.687  12.750  48.935  1.00  0.00    -0.166 F 
HETATM   24  F2  UNL     1      29.223  12.990  47.290  1.00  0.00    -0.166 F 
HETATM   25  F3  UNL     1      28.591  13.159  49.485  1.00  0.00    -0.166 F 
ENDBRANCH  19  22
ENDBRANCH   3  16
TORSDOF 6
ENDMDL
