MODEL 1
REMARK VINA RESULT:      -7.2      0.000      0.000
REMARK  10 active torsions:
REMARK  status: ('A' for Active; 'I' for Inactive)
REMARK    1  A    between atoms: O1_2  and  C2_3 
REMARK    2  A    between atoms: C2_3  and  C3_4 
REMARK    3  A    between atoms: C3_4  and  C4_5 
REMARK    4  A    between atoms: C3_4  and  C16_24 
REMARK    5  A    between atoms: C4_5  and  C5_6 
REMARK    6  A    between atoms: C8_11  and  N3_12 
REMARK    7  A    between atoms: N3_12  and  C9_13 
REMARK    8  A    between atoms: C11_15  and  N4_16 
REMARK       I    between atoms: N4_16  and  C12_17 
REMARK    9  A    between atoms: C12_17  and  O3_19 
REMARK   10  A    between atoms: C16_24  and  O4_26 
ROOT
HETATM    1  C5  UNL     1      24.601  -0.472  54.023  1.00  0.00     0.008 A 
HETATM    2  C6  UNL     1      24.523  -1.202  55.309  1.00  0.00     0.192 A 
HETATM    3  N1  UNL     1      23.152  -1.446  55.674  1.00  0.00    -0.278 NA
HETATM    4  C7  UNL     1      22.113  -1.103  55.024  1.00  0.00     0.229 A 
HETATM    5  N2  UNL     1      22.246  -0.417  53.821  1.00  0.00    -0.224 NA
HETATM    6  C8  UNL     1      23.373  -0.091  53.299  1.00  0.00     0.137 A 
ENDROOT
BRANCH   6   7
HETATM    7  N3  UNL     1      23.362   0.641  52.051  1.00  0.00    -0.339 N 
HETATM    8  H10 UNL     1      23.909   0.157  51.282  1.00  0.00     0.167 HD
BRANCH   7   9
HETATM    9  C9  UNL     1      22.627   1.862  52.045  1.00  0.00     0.048 A 
HETATM   10  C10 UNL     1      23.173   3.119  52.135  1.00  0.00     0.060 A 
HETATM   11  C11 UNL     1      22.485   4.295  52.115  1.00  0.00     0.039 A 
HETATM   12  C14 UNL     1      21.124   4.409  51.999  1.00  0.00     0.031 A 
HETATM   13  C15 UNL     1      20.196   3.400  51.884  1.00  0.00     0.020 A 
HETATM   14  P1  UNL     1      20.872   1.775  51.889  1.00  0.00    -0.003 P 
BRANCH  11  15
HETATM   15  N4  UNL     1      23.332   5.422  52.242  1.00  0.00    -0.303 N 
HETATM   16  C12 UNL     1      23.809   6.232  51.221  1.00  0.00     0.364 C 
HETATM   17  O2  UNL     1      23.541   6.057  50.035  1.00  0.00    -0.238 OA
HETATM   18  H12 UNL     1      23.707   5.788  53.145  1.00  0.00     0.171 HD
BRANCH  16  19
HETATM   19  O3  UNL     1      24.614   7.340  51.166  1.00  0.00    -0.309 OA
HETATM   20  C13 UNL     1      25.731   7.390  50.254  1.00  0.00     0.215 C 
ENDBRANCH  16  19
ENDBRANCH  11  15
ENDBRANCH   7   9
ENDBRANCH   6   7
BRANCH   1  21
HETATM   21  C4  UNL     1      25.750  -0.106  53.456  1.00  0.00     0.024 C 
BRANCH  21  22
HETATM   22  C3  UNL     1      26.926   0.661  53.824  1.00  0.00    -0.005 C 
BRANCH  22  23
HETATM   23  C2  UNL     1      27.878   0.014  54.788  1.00  0.00     0.208 C 
BRANCH  23  24
HETATM   24  O1  UNL     1      29.217   0.282  54.431  1.00  0.00    -0.391 OA
HETATM   25  C1  UNL     1      29.724  -0.811  53.746  1.00  0.00     0.201 C 
ENDBRANCH  23  24
ENDBRANCH  22  23
BRANCH  22  26
HETATM   26  C16 UNL     1      27.158   1.868  53.349  1.00  0.00     0.048 C 
HETATM   27  C17 UNL     1      26.775   2.201  51.930  1.00  0.00     0.076 C 
BRANCH  26  28
HETATM   28  O4  UNL     1      27.743   2.899  54.056  1.00  0.00    -0.365 OA
HETATM   29  H21 UNL     1      27.618   2.932  55.058  1.00  0.00     0.217 HD
ENDBRANCH  26  28
ENDBRANCH  22  26
ENDBRANCH  21  22
ENDBRANCH   1  21
TORSDOF 10
ENDMDL
MODEL 2
REMARK VINA RESULT:      -7.0      2.353      6.331
REMARK  10 active torsions:
REMARK  status: ('A' for Active; 'I' for Inactive)
REMARK    1  A    between atoms: O1_2  and  C2_3 
REMARK    2  A    between atoms: C2_3  and  C3_4 
REMARK    3  A    between atoms: C3_4  and  C4_5 
REMARK    4  A    between atoms: C3_4  and  C16_24 
REMARK    5  A    between atoms: C4_5  and  C5_6 
REMARK    6  A    between atoms: C8_11  and  N3_12 
REMARK    7  A    between atoms: N3_12  and  C9_13 
REMARK    8  A    between atoms: C11_15  and  N4_16 
REMARK       I    between atoms: N4_16  and  C12_17 
REMARK    9  A    between atoms: C12_17  and  O3_19 
REMARK   10  A    between atoms: C16_24  and  O4_26 
ROOT
HETATM    1  C5  UNL     1      23.159   2.976  49.712  1.00  0.00     0.008 A 
HETATM    2  C6  UNL     1      23.094   2.700  48.260  1.00  0.00     0.192 A 
HETATM    3  N1  UNL     1      22.127   1.671  47.979  1.00  0.00    -0.278 NA
HETATM    4  C7  UNL     1      21.405   1.048  48.821  1.00  0.00     0.229 A 
HETATM    5  N2  UNL     1      21.509   1.347  50.176  1.00  0.00    -0.224 NA
HETATM    6  C8  UNL     1      22.306   2.231  50.659  1.00  0.00     0.137 A 
ENDROOT
BRANCH   6   7
HETATM    7  N3  UNL     1      22.324   2.424  52.092  1.00  0.00    -0.339 N 
HETATM    8  H10 UNL     1      22.085   3.417  52.380  1.00  0.00     0.167 HD
BRANCH   7   9
HETATM    9  C9  UNL     1      22.642   1.277  52.876  1.00  0.00     0.048 A 
HETATM   10  C10 UNL     1      23.893   0.726  53.008  1.00  0.00     0.060 A 
HETATM   11  C11 UNL     1      24.215  -0.361  53.766  1.00  0.00     0.039 A 
HETATM   12  C14 UNL     1      23.329  -1.081  54.525  1.00  0.00     0.031 A 
HETATM   13  C15 UNL     1      21.978  -0.870  54.679  1.00  0.00     0.020 A 
HETATM   14  P1  UNL     1      21.340   0.499  53.776  1.00  0.00    -0.003 P 
BRANCH  11  15
HETATM   15  N4  UNL     1      25.589  -0.693  53.683  1.00  0.00    -0.303 N 
HETATM   16  C12 UNL     1      26.628  -0.155  54.428  1.00  0.00     0.364 C 
HETATM   17  O2  UNL     1      26.471   0.712  55.283  1.00  0.00    -0.238 OA
HETATM   18  H12 UNL     1      25.992  -1.404  53.034  1.00  0.00     0.171 HD
BRANCH  16  19
HETATM   19  O3  UNL     1      27.983  -0.359  54.480  1.00  0.00    -0.309 OA
HETATM   20  C13 UNL     1      28.681  -0.939  53.359  1.00  0.00     0.215 C 
ENDBRANCH  16  19
ENDBRANCH  11  15
ENDBRANCH   7   9
ENDBRANCH   6   7
BRANCH   1  21
HETATM   21  C4  UNL     1      23.981   3.876  50.253  1.00  0.00     0.024 C 
BRANCH  21  22
HETATM   22  C3  UNL     1      25.245   4.505  49.917  1.00  0.00    -0.005 C 
BRANCH  22  23
HETATM   23  C2  UNL     1      25.177   5.892  49.347  1.00  0.00     0.208 C 
BRANCH  23  24
HETATM   24  O1  UNL     1      25.732   6.833  50.241  1.00  0.00    -0.391 OA
HETATM   25  C1  UNL     1      26.504   7.732  49.521  1.00  0.00     0.201 C 
ENDBRANCH  23  24
ENDBRANCH  22  23
BRANCH  22  26
HETATM   26  C16 UNL     1      26.402   3.900  50.094  1.00  0.00     0.048 C 
HETATM   27  C17 UNL     1      26.444   2.535  50.730  1.00  0.00     0.076 C 
BRANCH  26  28
HETATM   28  O4  UNL     1      27.630   4.420  49.738  1.00  0.00    -0.365 OA
HETATM   29  H21 UNL     1      27.658   5.290  49.225  1.00  0.00     0.217 HD
ENDBRANCH  26  28
ENDBRANCH  22  26
ENDBRANCH  21  22
ENDBRANCH   1  21
TORSDOF 10
ENDMDL
MODEL 3
REMARK VINA RESULT:      -7.0      1.737      2.329
REMARK  10 active torsions:
REMARK  status: ('A' for Active; 'I' for Inactive)
REMARK    1  A    between atoms: O1_2  and  C2_3 
REMARK    2  A    between atoms: C2_3  and  C3_4 
REMARK    3  A    between atoms: C3_4  and  C4_5 
REMARK    4  A    between atoms: C3_4  and  C16_24 
REMARK    5  A    between atoms: C4_5  and  C5_6 
REMARK    6  A    between atoms: C8_11  and  N3_12 
REMARK    7  A    between atoms: N3_12  and  C9_13 
REMARK    8  A    between atoms: C11_15  and  N4_16 
REMARK       I    between atoms: N4_16  and  C12_17 
REMARK    9  A    between atoms: C12_17  and  O3_19 
REMARK   10  A    between atoms: C16_24  and  O4_26 
ROOT
HETATM    1  C5  UNL     1      23.817  -0.320  53.444  1.00  0.00     0.008 A 
HETATM    2  C6  UNL     1      23.781  -1.000  54.757  1.00  0.00     0.192 A 
HETATM    3  N1  UNL     1      22.431  -1.082  55.252  1.00  0.00    -0.278 NA
HETATM    4  C7  UNL     1      21.380  -0.645  54.685  1.00  0.00     0.229 A 
HETATM    5  N2  UNL     1      21.473  -0.011  53.450  1.00  0.00    -0.224 NA
HETATM    6  C8  UNL     1      22.575   0.175  52.818  1.00  0.00     0.137 A 
ENDROOT
BRANCH   6   7
HETATM    7  N3  UNL     1      22.526   0.869  51.549  1.00  0.00    -0.339 N 
HETATM    8  H10 UNL     1      22.260   0.235  50.741  1.00  0.00     0.167 HD
BRANCH   7   9
HETATM    9  C9  UNL     1      22.826   2.262  51.583  1.00  0.00     0.048 A 
HETATM   10  C10 UNL     1      24.009   2.830  51.178  1.00  0.00     0.060 A 
HETATM   11  C11 UNL     1      24.305   4.160  51.189  1.00  0.00     0.039 A 
HETATM   12  C14 UNL     1      23.456   5.151  51.611  1.00  0.00     0.031 A 
HETATM   13  C15 UNL     1      22.175   5.021  52.094  1.00  0.00     0.020 A 
HETATM   14  P1  UNL     1      21.582   3.365  52.169  1.00  0.00    -0.003 P 
BRANCH  11  15
HETATM   15  N4  UNL     1      25.614   4.430  50.723  1.00  0.00    -0.303 N 
HETATM   16  C12 UNL     1      25.971   5.003  49.511  1.00  0.00     0.364 C 
HETATM   17  O2  UNL     1      25.157   5.358  48.663  1.00  0.00    -0.238 OA
HETATM   18  H12 UNL     1      26.490   4.226  51.253  1.00  0.00     0.171 HD
BRANCH  16  19
HETATM   19  O3  UNL     1      27.160   5.334  48.914  1.00  0.00    -0.309 OA
HETATM   20  C13 UNL     1      27.339   6.628  48.303  1.00  0.00     0.215 C 
ENDBRANCH  16  19
ENDBRANCH  11  15
ENDBRANCH   7   9
ENDBRANCH   6   7
BRANCH   1  21
HETATM   21  C4  UNL     1      24.942  -0.097  52.762  1.00  0.00     0.024 C 
BRANCH  21  22
HETATM   22  C3  UNL     1      26.346   0.115  53.060  1.00  0.00    -0.005 C 
BRANCH  22  23
HETATM   23  C2  UNL     1      26.818   1.540  53.104  1.00  0.00     0.208 C 
BRANCH  23  24
HETATM   24  O1  UNL     1      28.191   1.625  52.788  1.00  0.00    -0.391 OA
HETATM   25  C1  UNL     1      28.802   2.490  53.683  1.00  0.00     0.201 C 
ENDBRANCH  23  24
ENDBRANCH  22  23
BRANCH  22  26
HETATM   26  C16 UNL     1      27.179  -0.882  53.278  1.00  0.00     0.048 C 
HETATM   27  C17 UNL     1      27.051  -2.154  52.479  1.00  0.00     0.076 C 
BRANCH  26  28
HETATM   28  O4  UNL     1      28.198  -0.874  54.209  1.00  0.00    -0.365 OA
HETATM   29  H21 UNL     1      28.297  -1.667  54.827  1.00  0.00     0.217 HD
ENDBRANCH  26  28
ENDBRANCH  22  26
ENDBRANCH  21  22
ENDBRANCH   1  21
TORSDOF 10
ENDMDL
MODEL 4
REMARK VINA RESULT:      -6.9      3.438      5.221
REMARK  10 active torsions:
REMARK  status: ('A' for Active; 'I' for Inactive)
REMARK    1  A    between atoms: O1_2  and  C2_3 
REMARK    2  A    between atoms: C2_3  and  C3_4 
REMARK    3  A    between atoms: C3_4  and  C4_5 
REMARK    4  A    between atoms: C3_4  and  C16_24 
REMARK    5  A    between atoms: C4_5  and  C5_6 
REMARK    6  A    between atoms: C8_11  and  N3_12 
REMARK    7  A    between atoms: N3_12  and  C9_13 
REMARK    8  A    between atoms: C11_15  and  N4_16 
REMARK       I    between atoms: N4_16  and  C12_17 
REMARK    9  A    between atoms: C12_17  and  O3_19 
REMARK   10  A    between atoms: C16_24  and  O4_26 
ROOT
HETATM    1  C5  UNL     1      25.548   0.371  53.580  1.00  0.00     0.008 A 
HETATM    2  C6  UNL     1      26.408   0.153  54.764  1.00  0.00     0.192 A 
HETATM    3  N1  UNL     1      27.568   1.004  54.716  1.00  0.00    -0.278 NA
HETATM    4  C7  UNL     1      27.866   1.842  53.807  1.00  0.00     0.229 A 
HETATM    5  N2  UNL     1      27.021   2.006  52.713  1.00  0.00    -0.224 NA
HETATM    6  C8  UNL     1      25.928   1.353  52.545  1.00  0.00     0.137 A 
ENDROOT
BRANCH   6   7
HETATM    7  N3  UNL     1      25.156   1.612  51.349  1.00  0.00    -0.339 N 
HETATM    8  H10 UNL     1      24.563   0.784  51.052  1.00  0.00     0.167 HD
BRANCH   7   9
HETATM    9  C9  UNL     1      25.302   2.908  50.775  1.00  0.00     0.048 A 
HETATM   10  C10 UNL     1      26.328   3.303  49.953  1.00  0.00     0.060 A 
HETATM   11  C11 UNL     1      26.473   4.534  49.385  1.00  0.00     0.039 A 
HETATM   12  C14 UNL     1      25.604   5.582  49.546  1.00  0.00     0.031 A 
HETATM   13  C15 UNL     1      24.446   5.616  50.289  1.00  0.00     0.020 A 
HETATM   14  P1  UNL     1      24.061   4.113  51.121  1.00  0.00    -0.003 P 
BRANCH  11  15
HETATM   15  N4  UNL     1      27.645   4.635  48.598  1.00  0.00    -0.303 N 
HETATM   16  C12 UNL     1      28.370   5.784  48.317  1.00  0.00     0.364 C 
HETATM   17  O2  UNL     1      28.065   6.897  48.735  1.00  0.00    -0.238 OA
HETATM   18  H12 UNL     1      28.117   3.833  48.125  1.00  0.00     0.171 HD
BRANCH  16  19
HETATM   19  O3  UNL     1      29.503   6.057  47.595  1.00  0.00    -0.309 OA
HETATM   20  C13 UNL     1      30.801   5.680  48.099  1.00  0.00     0.215 C 
ENDBRANCH  16  19
ENDBRANCH  11  15
ENDBRANCH   7   9
ENDBRANCH   6   7
BRANCH   1  21
HETATM   21  C4  UNL     1      24.413  -0.294  53.362  1.00  0.00     0.024 C 
BRANCH  21  22
HETATM   22  C3  UNL     1      23.040  -0.243  53.827  1.00  0.00    -0.005 C 
BRANCH  22  23
HETATM   23  C2  UNL     1      22.189   0.874  53.294  1.00  0.00     0.208 C 
BRANCH  23  24
HETATM   24  O1  UNL     1      22.328   0.989  51.894  1.00  0.00    -0.391 OA
HETATM   25  C1  UNL     1      21.304   0.281  51.284  1.00  0.00     0.201 C 
ENDBRANCH  23  24
ENDBRANCH  22  23
BRANCH  22  26
HETATM   26  C16 UNL     1      22.550  -1.121  54.678  1.00  0.00     0.048 C 
HETATM   27  C17 UNL     1      21.166  -1.679  54.466  1.00  0.00     0.076 C 
BRANCH  26  28
HETATM   28  O4  UNL     1      23.211  -1.600  55.792  1.00  0.00    -0.365 OA
HETATM   29  H21 UNL     1      22.735  -1.582  56.682  1.00  0.00     0.217 HD
ENDBRANCH  26  28
ENDBRANCH  22  26
ENDBRANCH  21  22
ENDBRANCH   1  21
TORSDOF 10
ENDMDL
MODEL 5
REMARK VINA RESULT:      -6.8      1.241      2.206
REMARK  10 active torsions:
REMARK  status: ('A' for Active; 'I' for Inactive)
REMARK    1  A    between atoms: O1_2  and  C2_3 
REMARK    2  A    between atoms: C2_3  and  C3_4 
REMARK    3  A    between atoms: C3_4  and  C4_5 
REMARK    4  A    between atoms: C3_4  and  C16_24 
REMARK    5  A    between atoms: C4_5  and  C5_6 
REMARK    6  A    between atoms: C8_11  and  N3_12 
REMARK    7  A    between atoms: N3_12  and  C9_13 
REMARK    8  A    between atoms: C11_15  and  N4_16 
REMARK       I    between atoms: N4_16  and  C12_17 
REMARK    9  A    between atoms: C12_17  and  O3_19 
REMARK   10  A    between atoms: C16_24  and  O4_26 
ROOT
HETATM    1  C5  UNL     1      24.341  -0.361  54.078  1.00  0.00     0.008 A 
HETATM    2  C6  UNL     1      24.316  -1.108  55.355  1.00  0.00     0.192 A 
HETATM    3  N1  UNL     1      23.012  -1.669  55.593  1.00  0.00    -0.278 NA
HETATM    4  C7  UNL     1      21.987  -1.567  54.847  1.00  0.00     0.229 A 
HETATM    5  N2  UNL     1      22.066  -0.850  53.657  1.00  0.00    -0.224 NA
HETATM    6  C8  UNL     1      23.130  -0.264  53.240  1.00  0.00     0.137 A 
ENDROOT
BRANCH   6   7
HETATM    7  N3  UNL     1      23.063   0.464  51.991  1.00  0.00    -0.339 N 
HETATM    8  H10 UNL     1      23.613  -0.001  51.211  1.00  0.00     0.167 HD
BRANCH   7   9
HETATM    9  C9  UNL     1      22.282   1.656  51.999  1.00  0.00     0.048 A 
HETATM   10  C10 UNL     1      22.776   2.929  52.136  1.00  0.00     0.060 A 
HETATM   11  C11 UNL     1      22.044   4.079  52.130  1.00  0.00     0.039 A 
HETATM   12  C14 UNL     1      20.683   4.144  51.983  1.00  0.00     0.031 A 
HETATM   13  C15 UNL     1      19.797   3.103  51.818  1.00  0.00     0.020 A 
HETATM   14  P1  UNL     1      20.536   1.506  51.798  1.00  0.00    -0.003 P 
BRANCH  11  15
HETATM   15  N4  UNL     1      22.844   5.234  52.307  1.00  0.00    -0.303 N 
HETATM   16  C12 UNL     1      23.475   5.975  51.319  1.00  0.00     0.364 C 
HETATM   17  O2  UNL     1      23.413   5.704  50.123  1.00  0.00    -0.238 OA
HETATM   18  H12 UNL     1      23.056   5.676  53.228  1.00  0.00     0.171 HD
BRANCH  16  19
HETATM   19  O3  UNL     1      24.265   7.096  51.312  1.00  0.00    -0.309 OA
HETATM   20  C13 UNL     1      25.415   7.178  50.445  1.00  0.00     0.215 C 
ENDBRANCH  16  19
ENDBRANCH  11  15
ENDBRANCH   7   9
ENDBRANCH   6   7
BRANCH   1  21
HETATM   21  C4  UNL     1      25.421   0.271  53.617  1.00  0.00     0.024 C 
BRANCH  21  22
HETATM   22  C3  UNL     1      26.576  -0.047  52.799  1.00  0.00    -0.005 C 
BRANCH  22  23
HETATM   23  C2  UNL     1      26.789   0.797  51.575  1.00  0.00     0.208 C 
BRANCH  23  24
HETATM   24  O1  UNL     1      25.818   1.817  51.492  1.00  0.00    -0.391 OA
HETATM   25  C1  UNL     1      26.373   2.911  50.845  1.00  0.00     0.201 C 
ENDBRANCH  23  24
ENDBRANCH  22  23
BRANCH  22  26
HETATM   26  C16 UNL     1      27.403  -1.028  53.099  1.00  0.00     0.048 C 
HETATM   27  C17 UNL     1      28.796  -0.713  53.582  1.00  0.00     0.076 C 
BRANCH  26  28
HETATM   28  O4  UNL     1      27.104  -2.373  53.008  1.00  0.00    -0.365 OA
HETATM   29  H21 UNL     1      27.731  -3.039  53.437  1.00  0.00     0.217 HD
ENDBRANCH  26  28
ENDBRANCH  22  26
ENDBRANCH  21  22
ENDBRANCH   1  21
TORSDOF 10
ENDMDL
MODEL 6
REMARK VINA RESULT:      -6.7      2.914      5.280
REMARK  10 active torsions:
REMARK  status: ('A' for Active; 'I' for Inactive)
REMARK    1  A    between atoms: O1_2  and  C2_3 
REMARK    2  A    between atoms: C2_3  and  C3_4 
REMARK    3  A    between atoms: C3_4  and  C4_5 
REMARK    4  A    between atoms: C3_4  and  C16_24 
REMARK    5  A    between atoms: C4_5  and  C5_6 
REMARK    6  A    between atoms: C8_11  and  N3_12 
REMARK    7  A    between atoms: N3_12  and  C9_13 
REMARK    8  A    between atoms: C11_15  and  N4_16 
REMARK       I    between atoms: N4_16  and  C12_17 
REMARK    9  A    between atoms: C12_17  and  O3_19 
REMARK   10  A    between atoms: C16_24  and  O4_26 
ROOT
HETATM    1  C5  UNL     1      26.986   1.286  52.712  1.00  0.00     0.008 A 
HETATM    2  C6  UNL     1      28.095   2.052  53.322  1.00  0.00     0.192 A 
HETATM    3  N1  UNL     1      28.590   1.385  54.498  1.00  0.00    -0.278 NA
HETATM    4  C7  UNL     1      28.170   0.290  54.992  1.00  0.00     0.229 A 
HETATM    5  N2  UNL     1      27.122  -0.388  54.377  1.00  0.00    -0.224 NA
HETATM    6  C8  UNL     1      26.525   0.020  53.316  1.00  0.00     0.137 A 
ENDROOT
BRANCH   6   7
HETATM    7  N3  UNL     1      25.436  -0.778  52.796  1.00  0.00    -0.339 N 
HETATM    8  H10 UNL     1      25.746  -1.469  52.054  1.00  0.00     0.167 HD
BRANCH   7   9
HETATM    9  C9  UNL     1      24.149  -0.524  53.355  1.00  0.00     0.048 A 
HETATM   10  C10 UNL     1      23.232   0.373  52.864  1.00  0.00     0.060 A 
HETATM   11  C11 UNL     1      21.993   0.615  53.378  1.00  0.00     0.039 A 
HETATM   12  C14 UNL     1      21.462  -0.007  54.478  1.00  0.00     0.031 A 
HETATM   13  C15 UNL     1      22.043  -0.972  55.269  1.00  0.00     0.020 A 
HETATM   14  P1  UNL     1      23.668  -1.441  54.782  1.00  0.00    -0.003 P 
BRANCH  11  15
HETATM   15  N4  UNL     1      21.290   1.609  52.655  1.00  0.00    -0.303 N 
HETATM   16  C12 UNL     1      20.370   1.411  51.636  1.00  0.00     0.364 C 
HETATM   17  O2  UNL     1      20.045   0.302  51.221  1.00  0.00    -0.238 OA
HETATM   18  H12 UNL     1      21.382   2.637  52.811  1.00  0.00     0.171 HD
BRANCH  16  19
HETATM   19  O3  UNL     1      19.610   2.238  50.849  1.00  0.00    -0.309 OA
HETATM   20  C13 UNL     1      19.511   3.646  51.147  1.00  0.00     0.215 C 
ENDBRANCH  16  19
ENDBRANCH  11  15
ENDBRANCH   7   9
ENDBRANCH   6   7
BRANCH   1  21
HETATM   21  C4  UNL     1      26.334   1.681  51.619  1.00  0.00     0.024 C 
BRANCH  21  22
HETATM   22  C3  UNL     1      25.494   2.796  51.221  1.00  0.00    -0.005 C 
BRANCH  22  23
HETATM   23  C2  UNL     1      24.602   3.379  52.278  1.00  0.00     0.208 C 
BRANCH  23  24
HETATM   24  O1  UNL     1      23.341   3.719  51.742  1.00  0.00    -0.391 OA
HETATM   25  C1  UNL     1      22.868   4.847  52.395  1.00  0.00     0.201 C 
ENDBRANCH  23  24
ENDBRANCH  22  23
BRANCH  22  26
HETATM   26  C16 UNL     1      25.500   3.281  49.996  1.00  0.00     0.048 C 
HETATM   27  C17 UNL     1      26.773   3.848  49.420  1.00  0.00     0.076 C 
BRANCH  26  28
HETATM   28  O4  UNL     1      24.406   3.321  49.154  1.00  0.00    -0.365 OA
HETATM   29  H21 UNL     1      24.091   2.462  48.727  1.00  0.00     0.217 HD
ENDBRANCH  26  28
ENDBRANCH  22  26
ENDBRANCH  21  22
ENDBRANCH   1  21
TORSDOF 10
ENDMDL
MODEL 7
REMARK VINA RESULT:      -6.6      3.068      5.172
REMARK  10 active torsions:
REMARK  status: ('A' for Active; 'I' for Inactive)
REMARK    1  A    between atoms: O1_2  and  C2_3 
REMARK    2  A    between atoms: C2_3  and  C3_4 
REMARK    3  A    between atoms: C3_4  and  C4_5 
REMARK    4  A    between atoms: C3_4  and  C16_24 
REMARK    5  A    between atoms: C4_5  and  C5_6 
REMARK    6  A    between atoms: C8_11  and  N3_12 
REMARK    7  A    between atoms: N3_12  and  C9_13 
REMARK    8  A    between atoms: C11_15  and  N4_16 
REMARK       I    between atoms: N4_16  and  C12_17 
REMARK    9  A    between atoms: C12_17  and  O3_19 
REMARK   10  A    between atoms: C16_24  and  O4_26 
ROOT
HETATM    1  C5  UNL     1      27.143   1.251  52.659  1.00  0.00     0.008 A 
HETATM    2  C6  UNL     1      28.239   2.048  53.253  1.00  0.00     0.192 A 
HETATM    3  N1  UNL     1      28.698   1.451  54.480  1.00  0.00    -0.278 NA
HETATM    4  C7  UNL     1      28.258   0.390  55.027  1.00  0.00     0.229 A 
HETATM    5  N2  UNL     1      27.223  -0.320  54.425  1.00  0.00    -0.224 NA
HETATM    6  C8  UNL     1      26.659   0.026  53.324  1.00  0.00     0.137 A 
ENDROOT
BRANCH   6   7
HETATM    7  N3  UNL     1      25.580  -0.798  52.823  1.00  0.00    -0.339 N 
HETATM    8  H10 UNL     1      25.904  -1.521  52.117  1.00  0.00     0.167 HD
BRANCH   7   9
HETATM    9  C9  UNL     1      24.284  -0.524  53.350  1.00  0.00     0.048 A 
HETATM   10  C10 UNL     1      23.380   0.362  52.816  1.00  0.00     0.060 A 
HETATM   11  C11 UNL     1      22.132   0.623  53.298  1.00  0.00     0.039 A 
HETATM   12  C14 UNL     1      21.577   0.034  54.405  1.00  0.00     0.031 A 
HETATM   13  C15 UNL     1      22.139  -0.910  55.234  1.00  0.00     0.020 A 
HETATM   14  P1  UNL     1      23.771  -1.399  54.792  1.00  0.00    -0.003 P 
BRANCH  11  15
HETATM   15  N4  UNL     1      21.447   1.598  52.534  1.00  0.00    -0.303 N 
HETATM   16  C12 UNL     1      20.186   1.485  51.968  1.00  0.00     0.364 C 
HETATM   17  O2  UNL     1      19.485   0.482  52.067  1.00  0.00    -0.238 OA
HETATM   18  H12 UNL     1      21.821   2.545  52.302  1.00  0.00     0.171 HD
BRANCH  16  19
HETATM   19  O3  UNL     1      19.387   2.312  51.220  1.00  0.00    -0.309 OA
HETATM   20  C13 UNL     1      19.369   3.733  51.466  1.00  0.00     0.215 C 
ENDBRANCH  16  19
ENDBRANCH  11  15
ENDBRANCH   7   9
ENDBRANCH   6   7
BRANCH   1  21
HETATM   21  C4  UNL     1      26.523   1.582  51.526  1.00  0.00     0.024 C 
BRANCH  21  22
HETATM   22  C3  UNL     1      25.791   2.720  51.003  1.00  0.00    -0.005 C 
BRANCH  22  23
HETATM   23  C2  UNL     1      26.151   3.176  49.619  1.00  0.00     0.208 C 
BRANCH  23  24
HETATM   24  O1  UNL     1      27.347   3.926  49.630  1.00  0.00    -0.391 OA
HETATM   25  C1  UNL     1      27.211   4.997  48.761  1.00  0.00     0.201 C 
ENDBRANCH  23  24
ENDBRANCH  22  23
BRANCH  22  26
HETATM   26  C16 UNL     1      24.857   3.337  51.699  1.00  0.00     0.048 C 
HETATM   27  C17 UNL     1      23.693   3.978  50.987  1.00  0.00     0.076 C 
BRANCH  26  28
HETATM   28  O4  UNL     1      24.842   3.457  53.074  1.00  0.00    -0.365 OA
HETATM   29  H21 UNL     1      25.722   3.465  53.569  1.00  0.00     0.217 HD
ENDBRANCH  26  28
ENDBRANCH  22  26
ENDBRANCH  21  22
ENDBRANCH   1  21
TORSDOF 10
ENDMDL
MODEL 8
REMARK VINA RESULT:      -6.5      3.381      5.405
REMARK  10 active torsions:
REMARK  status: ('A' for Active; 'I' for Inactive)
REMARK    1  A    between atoms: O1_2  and  C2_3 
REMARK    2  A    between atoms: C2_3  and  C3_4 
REMARK    3  A    between atoms: C3_4  and  C4_5 
REMARK    4  A    between atoms: C3_4  and  C16_24 
REMARK    5  A    between atoms: C4_5  and  C5_6 
REMARK    6  A    between atoms: C8_11  and  N3_12 
REMARK    7  A    between atoms: N3_12  and  C9_13 
REMARK    8  A    between atoms: C11_15  and  N4_16 
REMARK       I    between atoms: N4_16  and  C12_17 
REMARK    9  A    between atoms: C12_17  and  O3_19 
REMARK   10  A    between atoms: C16_24  and  O4_26 
ROOT
HETATM    1  C5  UNL     1      25.682   1.495  52.488  1.00  0.00     0.008 A 
HETATM    2  C6  UNL     1      26.016   1.164  53.892  1.00  0.00     0.192 A 
HETATM    3  N1  UNL     1      27.328   1.650  54.232  1.00  0.00    -0.278 NA
HETATM    4  C7  UNL     1      28.133   2.278  53.473  1.00  0.00     0.229 A 
HETATM    5  N2  UNL     1      27.767   2.561  52.161  1.00  0.00    -0.224 NA
HETATM    6  C8  UNL     1      26.643   2.224  51.638  1.00  0.00     0.137 A 
ENDROOT
BRANCH   6   7
HETATM    7  N3  UNL     1      26.404   2.567  50.253  1.00  0.00    -0.339 N 
HETATM    8  H10 UNL     1      26.395   1.721  49.613  1.00  0.00     0.167 HD
BRANCH   7   9
HETATM    9  C9  UNL     1      26.214   3.951  49.972  1.00  0.00     0.048 A 
HETATM   10  C10 UNL     1      25.215   4.738  50.492  1.00  0.00     0.060 A 
HETATM   11  C11 UNL     1      25.029   6.065  50.246  1.00  0.00     0.039 A 
HETATM   12  C14 UNL     1      25.821   6.832  49.431  1.00  0.00     0.031 A 
HETATM   13  C15 UNL     1      26.930   6.442  48.715  1.00  0.00     0.020 A 
HETATM   14  P1  UNL     1      27.355   4.743  48.887  1.00  0.00    -0.003 P 
BRANCH  11  15
HETATM   15  N4  UNL     1      23.901   6.590  50.920  1.00  0.00    -0.303 N 
HETATM   16  C12 UNL     1      22.641   6.825  50.389  1.00  0.00     0.364 C 
HETATM   17  O2  UNL     1      22.344   6.595  49.220  1.00  0.00    -0.238 OA
HETATM   18  H12 UNL     1      23.884   6.869  51.926  1.00  0.00     0.171 HD
BRANCH  16  19
HETATM   19  O3  UNL     1      21.460   7.312  50.888  1.00  0.00    -0.309 OA
HETATM   20  C13 UNL     1      20.623   8.168  50.084  1.00  0.00     0.215 C 
ENDBRANCH  16  19
ENDBRANCH  11  15
ENDBRANCH   7   9
ENDBRANCH   6   7
BRANCH   1  21
HETATM   21  C4  UNL     1      24.532   1.153  51.906  1.00  0.00     0.024 C 
BRANCH  21  22
HETATM   22  C3  UNL     1      23.115   1.342  52.150  1.00  0.00    -0.005 C 
BRANCH  22  23
HETATM   23  C2  UNL     1      22.448   2.468  51.414  1.00  0.00     0.208 C 
BRANCH  23  24
HETATM   24  O1  UNL     1      22.044   3.484  52.306  1.00  0.00    -0.391 OA
HETATM   25  C1  UNL     1      20.807   3.966  51.905  1.00  0.00     0.201 C 
ENDBRANCH  23  24
ENDBRANCH  22  23
BRANCH  22  26
HETATM   26  C16 UNL     1      22.433   0.576  52.978  1.00  0.00     0.048 C 
HETATM   27  C17 UNL     1      22.889  -0.837  53.238  1.00  0.00     0.076 C 
BRANCH  26  28
HETATM   28  O4  UNL     1      21.294   0.959  53.657  1.00  0.00    -0.365 OA
HETATM   29  H21 UNL     1      21.394   1.505  54.501  1.00  0.00     0.217 HD
ENDBRANCH  26  28
ENDBRANCH  22  26
ENDBRANCH  21  22
ENDBRANCH   1  21
TORSDOF 10
ENDMDL
MODEL 9
REMARK VINA RESULT:      -6.5      2.897      4.419
REMARK  10 active torsions:
REMARK  status: ('A' for Active; 'I' for Inactive)
REMARK    1  A    between atoms: O1_2  and  C2_3 
REMARK    2  A    between atoms: C2_3  and  C3_4 
REMARK    3  A    between atoms: C3_4  and  C4_5 
REMARK    4  A    between atoms: C3_4  and  C16_24 
REMARK    5  A    between atoms: C4_5  and  C5_6 
REMARK    6  A    between atoms: C8_11  and  N3_12 
REMARK    7  A    between atoms: N3_12  and  C9_13 
REMARK    8  A    between atoms: C11_15  and  N4_16 
REMARK       I    between atoms: N4_16  and  C12_17 
REMARK    9  A    between atoms: C12_17  and  O3_19 
REMARK   10  A    between atoms: C16_24  and  O4_26 
ROOT
HETATM    1  C5  UNL     1      23.321   2.463  51.857  1.00  0.00     0.008 A 
HETATM    2  C6  UNL     1      22.297   1.395  51.883  1.00  0.00     0.192 A 
HETATM    3  N1  UNL     1      20.991   1.945  52.135  1.00  0.00    -0.278 NA
HETATM    4  C7  UNL     1      20.698   3.169  52.321  1.00  0.00     0.229 A 
HETATM    5  N2  UNL     1      21.702   4.132  52.287  1.00  0.00    -0.224 NA
HETATM    6  C8  UNL     1      22.942   3.873  52.078  1.00  0.00     0.137 A 
ENDROOT
BRANCH   6   7
HETATM    7  N3  UNL     1      23.881   4.973  52.090  1.00  0.00    -0.339 N 
HETATM    8  H10 UNL     1      24.221   5.217  53.065  1.00  0.00     0.167 HD
BRANCH   7   9
HETATM    9  C9  UNL     1      24.204   5.538  50.822  1.00  0.00     0.048 A 
HETATM   10  C10 UNL     1      25.474   5.764  50.352  1.00  0.00     0.060 A 
HETATM   11  C11 UNL     1      25.799   6.288  49.137  1.00  0.00     0.039 A 
HETATM   12  C14 UNL     1      24.896   6.676  48.181  1.00  0.00     0.031 A 
HETATM   13  C15 UNL     1      23.522   6.621  48.241  1.00  0.00     0.020 A 
HETATM   14  P1  UNL     1      22.877   5.970  49.743  1.00  0.00    -0.003 P 
BRANCH  11  15
HETATM   15  N4  UNL     1      27.197   6.411  48.954  1.00  0.00    -0.303 N 
HETATM   16  C12 UNL     1      28.098   5.394  48.673  1.00  0.00     0.364 C 
HETATM   17  O2  UNL     1      27.774   4.217  48.546  1.00  0.00    -0.238 OA
HETATM   18  H12 UNL     1      27.729   7.308  49.008  1.00  0.00     0.171 HD
BRANCH  16  19
HETATM   19  O3  UNL     1      29.452   5.337  48.464  1.00  0.00    -0.309 OA
HETATM   20  C13 UNL     1      30.199   6.532  48.159  1.00  0.00     0.215 C 
ENDBRANCH  16  19
ENDBRANCH  11  15
ENDBRANCH   7   9
ENDBRANCH   6   7
BRANCH   1  21
HETATM   21  C4  UNL     1      24.618   2.234  51.655  1.00  0.00     0.024 C 
BRANCH  21  22
HETATM   22  C3  UNL     1      25.770   1.846  52.448  1.00  0.00    -0.005 C 
BRANCH  22  23
HETATM   23  C2  UNL     1      25.541   0.802  53.503  1.00  0.00     0.208 C 
BRANCH  23  24
HETATM   24  O1  UNL     1      25.267  -0.453  52.919  1.00  0.00    -0.391 OA
HETATM   25  C1  UNL     1      26.422  -1.218  52.941  1.00  0.00     0.201 C 
ENDBRANCH  23  24
ENDBRANCH  22  23
BRANCH  22  26
HETATM   26  C16 UNL     1      26.962   2.378  52.267  1.00  0.00     0.048 C 
HETATM   27  C17 UNL     1      28.048   2.149  53.287  1.00  0.00     0.076 C 
BRANCH  26  28
HETATM   28  O4  UNL     1      27.325   3.159  51.188  1.00  0.00    -0.365 OA
HETATM   29  H21 UNL     1      26.764   3.119  50.350  1.00  0.00     0.217 HD
ENDBRANCH  26  28
ENDBRANCH  22  26
ENDBRANCH  21  22
ENDBRANCH   1  21
TORSDOF 10
ENDMDL
