MODEL 1
REMARK VINA RESULT:      -8.1      0.000      0.000
REMARK  5 active torsions:
REMARK  status: ('A' for Active; 'I' for Inactive)
REMARK    1  A    between atoms: N1_2  and  C2_3 
REMARK    2  A    between atoms: N3_7  and  C5_8 
REMARK    3  A    between atoms: C8_11  and  O1_12 
REMARK    4  A    between atoms: O1_12  and  C9_13 
REMARK    5  A    between atoms: C9_13  and  C10_14 
ROOT
HETATM    1  C5  UNL     1      21.771   0.396  52.829  1.00  0.00     0.037 A 
HETATM    2  C6  UNL     1      22.709  -0.485  53.337  1.00  0.00     0.032 A 
HETATM    3  C7  UNL     1      24.025  -0.160  53.593  1.00  0.00     0.041 A 
HETATM    4  C8  UNL     1      24.448   1.126  53.330  1.00  0.00     0.091 A 
HETATM    5  C16 UNL     1      23.569   2.059  52.821  1.00  0.00     0.069 A 
HETATM    6 CL1  UNL     1      24.096   3.697  52.481  1.00  0.00    -0.081 Cl
HETATM    7  C17 UNL     1      22.270   1.660  52.591  1.00  0.00     0.056 A 
ENDROOT
BRANCH   1   8
HETATM    8  N3  UNL     1      20.427   0.011  52.583  1.00  0.00    -0.336 N 
HETATM    9  C4  UNL     1      19.677   0.479  51.472  1.00  0.00     0.210 A 
HETATM   10  N2  UNL     1      18.467   0.147  51.228  1.00  0.00    -0.254 NA
HETATM   11  C3  UNL     1      17.777  -0.735  52.079  1.00  0.00     0.144 A 
HETATM   12  C2  UNL     1      18.423  -1.198  53.121  1.00  0.00     0.041 A 
HETATM   13  C18 UNL     1      19.811  -0.903  53.521  1.00  0.00     0.188 A 
BRANCH  12  14
HETATM   14  N1  UNL     1      17.663  -2.092  53.948  1.00  0.00    -0.395 N 
HETATM   15  C1  UNL     1      17.254  -3.437  53.612  1.00  0.00     0.146 C 
HETATM   16  H4  UNL     1      17.421  -1.647  54.873  1.00  0.00     0.159 HD
ENDBRANCH  12  14
ENDBRANCH   1   8
BRANCH   4  17
HETATM   17  O1  UNL     1      25.765   1.473  53.579  1.00  0.00    -0.345 OA
BRANCH  17  18
HETATM   18  C9  UNL     1      26.780   1.543  52.615  1.00  0.00     0.214 C 
BRANCH  18  19
HETATM   19  C10 UNL     1      27.757   0.463  52.928  1.00  0.00    -0.034 A 
HETATM   20  C11 UNL     1      29.021   0.667  53.434  1.00  0.00     0.009 A 
HETATM   21  C12 UNL     1      29.829  -0.420  53.681  1.00  0.00     0.001 A 
HETATM   22  C13 UNL     1      29.455  -1.732  53.453  1.00  0.00     0.000 A 
HETATM   23  C14 UNL     1      28.183  -1.969  52.941  1.00  0.00     0.001 A 
HETATM   24  C15 UNL     1      27.389  -0.864  52.701  1.00  0.00     0.009 A 
ENDBRANCH  18  19
ENDBRANCH  17  18
ENDBRANCH   4  17
TORSDOF 5
ENDMDL
MODEL 2
REMARK VINA RESULT:      -8.0      3.427      8.586
REMARK  5 active torsions:
REMARK  status: ('A' for Active; 'I' for Inactive)
REMARK    1  A    between atoms: N1_2  and  C2_3 
REMARK    2  A    between atoms: N3_7  and  C5_8 
REMARK    3  A    between atoms: C8_11  and  O1_12 
REMARK    4  A    between atoms: O1_12  and  C9_13 
REMARK    5  A    between atoms: C9_13  and  C10_14 
ROOT
HETATM    1  C5  UNL     1      24.945   0.861  53.345  1.00  0.00     0.037 A 
HETATM    2  C6  UNL     1      24.224   1.854  52.706  1.00  0.00     0.032 A 
HETATM    3  C7  UNL     1      22.861   1.817  52.500  1.00  0.00     0.041 A 
HETATM    4  C8  UNL     1      22.156   0.724  52.956  1.00  0.00     0.091 A 
HETATM    5  C16 UNL     1      22.807  -0.307  53.602  1.00  0.00     0.069 A 
HETATM    6 CL1  UNL     1      21.921  -1.703  54.185  1.00  0.00    -0.081 Cl
HETATM    7  C17 UNL     1      24.171  -0.198  53.771  1.00  0.00     0.056 A 
ENDROOT
BRANCH   1   8
HETATM    8  N3  UNL     1      26.350   0.947  53.532  1.00  0.00    -0.336 N 
HETATM    9  C4  UNL     1      27.025   2.170  53.784  1.00  0.00     0.210 A 
HETATM   10  N2  UNL     1      28.287   2.274  53.956  1.00  0.00    -0.254 NA
HETATM   11  C3  UNL     1      29.117   1.139  53.904  1.00  0.00     0.144 A 
HETATM   12  C2  UNL     1      28.545  -0.017  53.675  1.00  0.00     0.041 A 
HETATM   13  C18 UNL     1      27.110  -0.283  53.461  1.00  0.00     0.188 A 
BRANCH  12  14
HETATM   14  N1  UNL     1      29.446  -1.134  53.635  1.00  0.00    -0.395 N 
HETATM   15  C1  UNL     1      29.117  -2.493  53.267  1.00  0.00     0.146 C 
HETATM   16  H4  UNL     1      30.422  -0.851  53.916  1.00  0.00     0.159 HD
ENDBRANCH  12  14
ENDBRANCH   1   8
BRANCH   4  17
HETATM   17  O1  UNL     1      20.787   0.667  52.759  1.00  0.00    -0.345 OA
BRANCH  17  18
HETATM   18  C9  UNL     1      20.154   0.485  51.521  1.00  0.00     0.214 C 
BRANCH  18  19
HETATM   19  C10 UNL     1      18.834  -0.149  51.793  1.00  0.00    -0.034 A 
HETATM   20  C11 UNL     1      17.741  -0.081  50.958  1.00  0.00     0.009 A 
HETATM   21  C12 UNL     1      16.574  -0.713  51.326  1.00  0.00     0.001 A 
HETATM   22  C13 UNL     1      16.418  -1.428  52.500  1.00  0.00     0.000 A 
HETATM   23  C14 UNL     1      17.505  -1.514  53.363  1.00  0.00     0.001 A 
HETATM   24  C15 UNL     1      18.666  -0.872  52.974  1.00  0.00     0.009 A 
ENDBRANCH  18  19
ENDBRANCH  17  18
ENDBRANCH   4  17
TORSDOF 5
ENDMDL
MODEL 3
REMARK VINA RESULT:      -7.9      1.674      2.191
REMARK  5 active torsions:
REMARK  status: ('A' for Active; 'I' for Inactive)
REMARK    1  A    between atoms: N1_2  and  C2_3 
REMARK    2  A    between atoms: N3_7  and  C5_8 
REMARK    3  A    between atoms: C8_11  and  O1_12 
REMARK    4  A    between atoms: O1_12  and  C9_13 
REMARK    5  A    between atoms: C9_13  and  C10_14 
ROOT
HETATM    1  C5  UNL     1      20.707  -0.352  52.964  1.00  0.00     0.037 A 
HETATM    2  C6  UNL     1      21.512   0.362  52.094  1.00  0.00     0.032 A 
HETATM    3  C7  UNL     1      22.871   0.532  52.253  1.00  0.00     0.041 A 
HETATM    4  C8  UNL     1      23.483  -0.042  53.347  1.00  0.00     0.091 A 
HETATM    5  C16 UNL     1      22.745  -0.768  54.258  1.00  0.00     0.069 A 
HETATM    6 CL1  UNL     1      23.511  -1.503  55.654  1.00  0.00    -0.081 Cl
HETATM    7  C17 UNL     1      21.391  -0.894  54.032  1.00  0.00     0.056 A 
ENDROOT
BRANCH   1   8
HETATM    8  N3  UNL     1      19.310  -0.497  52.756  1.00  0.00    -0.336 N 
HETATM    9  C4  UNL     1      18.527   0.459  52.056  1.00  0.00     0.210 A 
HETATM   10  N2  UNL     1      17.269   0.352  51.854  1.00  0.00    -0.254 NA
HETATM   11  C3  UNL     1      16.556  -0.762  52.332  1.00  0.00     0.144 A 
HETATM   12  C2  UNL     1      17.231  -1.676  52.985  1.00  0.00     0.041 A 
HETATM   13  C18 UNL     1      18.674  -1.683  53.288  1.00  0.00     0.188 A 
BRANCH  12  14
HETATM   14  N1  UNL     1      16.446  -2.787  53.446  1.00  0.00    -0.395 N 
HETATM   15  C1  UNL     1      16.908  -4.139  53.658  1.00  0.00     0.146 C 
HETATM   16  H4  UNL     1      15.446  -2.502  53.624  1.00  0.00     0.159 HD
ENDBRANCH  12  14
ENDBRANCH   1   8
BRANCH   4  17
HETATM   17  O1  UNL     1      24.846   0.116  53.525  1.00  0.00    -0.345 OA
BRANCH  17  18
HETATM   18  C9  UNL     1      25.746   0.550  52.541  1.00  0.00     0.214 C 
BRANCH  18  19
HETATM   19  C10 UNL     1      27.085   0.005  52.901  1.00  0.00    -0.034 A 
HETATM   20  C11 UNL     1      27.436  -1.324  52.844  1.00  0.00     0.009 A 
HETATM   21  C12 UNL     1      28.711  -1.699  53.205  1.00  0.00     0.001 A 
HETATM   22  C13 UNL     1      29.687  -0.816  53.629  1.00  0.00     0.000 A 
HETATM   23  C14 UNL     1      29.361   0.535  53.697  1.00  0.00     0.001 A 
HETATM   24  C15 UNL     1      28.077   0.888  53.330  1.00  0.00     0.009 A 
ENDBRANCH  18  19
ENDBRANCH  17  18
ENDBRANCH   4  17
TORSDOF 5
ENDMDL
MODEL 4
REMARK VINA RESULT:      -7.8      3.129      8.445
REMARK  5 active torsions:
REMARK  status: ('A' for Active; 'I' for Inactive)
REMARK    1  A    between atoms: N1_2  and  C2_3 
REMARK    2  A    between atoms: N3_7  and  C5_8 
REMARK    3  A    between atoms: C8_11  and  O1_12 
REMARK    4  A    between atoms: O1_12  and  C9_13 
REMARK    5  A    between atoms: C9_13  and  C10_14 
ROOT
HETATM    1  C5  UNL     1      24.166   0.564  52.852  1.00  0.00     0.037 A 
HETATM    2  C6  UNL     1      23.303  -0.335  53.454  1.00  0.00     0.032 A 
HETATM    3  C7  UNL     1      21.997  -0.542  53.063  1.00  0.00     0.041 A 
HETATM    4  C8  UNL     1      21.503   0.189  52.004  1.00  0.00     0.091 A 
HETATM    5  C16 UNL     1      22.304   1.105  51.355  1.00  0.00     0.069 A 
HETATM    6 CL1  UNL     1      21.687   2.041  50.006  1.00  0.00    -0.081 Cl
HETATM    7  C17 UNL     1      23.599   1.257  51.802  1.00  0.00     0.056 A 
ENDROOT
BRANCH   1   8
HETATM    8  N3  UNL     1      25.504   0.740  53.293  1.00  0.00    -0.336 N 
HETATM    9  C4  UNL     1      26.031   1.998  53.689  1.00  0.00     0.210 A 
HETATM   10  N2  UNL     1      27.230   2.183  54.090  1.00  0.00    -0.254 NA
HETATM   11  C3  UNL     1      28.138   1.110  54.164  1.00  0.00     0.144 A 
HETATM   12  C2  UNL     1      27.703  -0.074  53.810  1.00  0.00     0.041 A 
HETATM   13  C18 UNL     1      26.354  -0.430  53.333  1.00  0.00     0.188 A 
BRANCH  12  14
HETATM   14  N1  UNL     1      28.677  -1.124  53.909  1.00  0.00    -0.395 N 
HETATM   15  C1  UNL     1      30.092  -1.015  53.636  1.00  0.00     0.146 C 
HETATM   16  H4  UNL     1      28.234  -2.030  54.217  1.00  0.00     0.159 HD
ENDBRANCH  12  14
ENDBRANCH   1   8
BRANCH   4  17
HETATM   17  O1  UNL     1      20.195  -0.004  51.596  1.00  0.00    -0.345 OA
BRANCH  17  18
HETATM   18  C9  UNL     1      19.062   0.516  52.239  1.00  0.00     0.214 C 
BRANCH  18  19
HETATM   19  C10 UNL     1      18.131  -0.622  52.475  1.00  0.00    -0.034 A 
HETATM   20  C11 UNL     1      16.910  -0.782  51.859  1.00  0.00     0.009 A 
HETATM   21  C12 UNL     1      16.142  -1.883  52.166  1.00  0.00     0.001 A 
HETATM   22  C13 UNL     1      16.517  -2.863  53.067  1.00  0.00     0.000 A 
HETATM   23  C14 UNL     1      17.746  -2.728  53.706  1.00  0.00     0.001 A 
HETATM   24  C15 UNL     1      18.500  -1.616  53.383  1.00  0.00     0.009 A 
ENDBRANCH  18  19
ENDBRANCH  17  18
ENDBRANCH   4  17
TORSDOF 5
ENDMDL
MODEL 5
REMARK VINA RESULT:      -7.8      3.652      5.135
REMARK  5 active torsions:
REMARK  status: ('A' for Active; 'I' for Inactive)
REMARK    1  A    between atoms: N1_2  and  C2_3 
REMARK    2  A    between atoms: N3_7  and  C5_8 
REMARK    3  A    between atoms: C8_11  and  O1_12 
REMARK    4  A    between atoms: O1_12  and  C9_13 
REMARK    5  A    between atoms: C9_13  and  C10_14 
ROOT
HETATM    1  C5  UNL     1      23.522   0.815  52.720  1.00  0.00     0.037 A 
HETATM    2  C6  UNL     1      23.166   1.851  51.875  1.00  0.00     0.032 A 
HETATM    3  C7  UNL     1      24.065   2.685  51.244  1.00  0.00     0.041 A 
HETATM    4  C8  UNL     1      25.412   2.485  51.460  1.00  0.00     0.091 A 
HETATM    5  C16 UNL     1      25.843   1.471  52.291  1.00  0.00     0.069 A 
HETATM    6 CL1  UNL     1      27.553   1.207  52.574  1.00  0.00    -0.081 Cl
HETATM    7  C17 UNL     1      24.885   0.679  52.886  1.00  0.00     0.056 A 
ENDROOT
BRANCH   1   8
HETATM    8  N3  UNL     1      22.556  -0.016  53.347  1.00  0.00    -0.336 N 
HETATM    9  C4  UNL     1      22.881  -0.953  54.363  1.00  0.00     0.210 A 
HETATM   10  N2  UNL     1      22.031  -1.712  54.942  1.00  0.00    -0.254 NA
HETATM   11  C3  UNL     1      20.669  -1.664  54.595  1.00  0.00     0.144 A 
HETATM   12  C2  UNL     1      20.314  -0.816  53.662  1.00  0.00     0.041 A 
HETATM   13  C18 UNL     1      21.181   0.114  52.915  1.00  0.00     0.188 A 
BRANCH  12  14
HETATM   14  N1  UNL     1      18.911  -0.816  53.354  1.00  0.00    -0.395 N 
HETATM   15  C1  UNL     1      17.986  -1.907  53.556  1.00  0.00     0.146 C 
HETATM   16  H4  UNL     1      18.608   0.108  52.945  1.00  0.00     0.159 HD
ENDBRANCH  12  14
ENDBRANCH   1   8
BRANCH   4  17
HETATM   17  O1  UNL     1      26.331   3.311  50.836  1.00  0.00    -0.345 OA
BRANCH  17  18
HETATM   18  C9  UNL     1      26.712   3.226  49.490  1.00  0.00     0.214 C 
BRANCH  18  19
HETATM   19  C10 UNL     1      26.879   4.621  48.993  1.00  0.00    -0.034 A 
HETATM   20  C11 UNL     1      28.057   5.152  48.518  1.00  0.00     0.009 A 
HETATM   21  C12 UNL     1      28.079   6.459  48.087  1.00  0.00     0.001 A 
HETATM   22  C13 UNL     1      26.978   7.297  48.096  1.00  0.00     0.000 A 
HETATM   23  C14 UNL     1      25.774   6.787  48.571  1.00  0.00     0.001 A 
HETATM   24  C15 UNL     1      25.774   5.473  48.998  1.00  0.00     0.009 A 
ENDBRANCH  18  19
ENDBRANCH  17  18
ENDBRANCH   4  17
TORSDOF 5
ENDMDL
MODEL 6
REMARK VINA RESULT:      -7.4      3.688      8.051
REMARK  5 active torsions:
REMARK  status: ('A' for Active; 'I' for Inactive)
REMARK    1  A    between atoms: N1_2  and  C2_3 
REMARK    2  A    between atoms: N3_7  and  C5_8 
REMARK    3  A    between atoms: C8_11  and  O1_12 
REMARK    4  A    between atoms: O1_12  and  C9_13 
REMARK    5  A    between atoms: C9_13  and  C10_14 
ROOT
HETATM    1  C5  UNL     1      25.013   0.932  53.339  1.00  0.00     0.037 A 
HETATM    2  C6  UNL     1      24.316   1.996  52.795  1.00  0.00     0.032 A 
HETATM    3  C7  UNL     1      22.953   2.010  52.588  1.00  0.00     0.041 A 
HETATM    4  C8  UNL     1      22.221   0.896  52.943  1.00  0.00     0.091 A 
HETATM    5  C16 UNL     1      22.848  -0.204  53.492  1.00  0.00     0.069 A 
HETATM    6 CL1  UNL     1      21.929  -1.626  53.946  1.00  0.00    -0.081 Cl
HETATM    7  C17 UNL     1      24.214  -0.143  53.668  1.00  0.00     0.056 A 
ENDROOT
BRANCH   1   8
HETATM    8  N3  UNL     1      26.419   0.968  53.532  1.00  0.00    -0.336 N 
HETATM    9  C4  UNL     1      27.136   2.165  53.793  1.00  0.00     0.210 A 
HETATM   10  N2  UNL     1      28.400   2.224  53.970  1.00  0.00    -0.254 NA
HETATM   11  C3  UNL     1      29.190   1.062  53.914  1.00  0.00     0.144 A 
HETATM   12  C2  UNL     1      28.579  -0.073  53.676  1.00  0.00     0.041 A 
HETATM   13  C18 UNL     1      27.136  -0.287  53.455  1.00  0.00     0.188 A 
BRANCH  12  14
HETATM   14  N1  UNL     1      29.440  -1.221  53.632  1.00  0.00    -0.395 N 
HETATM   15  C1  UNL     1      29.069  -2.561  53.238  1.00  0.00     0.146 C 
HETATM   16  H4  UNL     1      30.422  -0.976  53.930  1.00  0.00     0.159 HD
ENDBRANCH  12  14
ENDBRANCH   1   8
BRANCH   4  17
HETATM   17  O1  UNL     1      20.852   0.890  52.743  1.00  0.00    -0.345 OA
BRANCH  17  18
HETATM   18  C9  UNL     1      20.184   0.178  51.737  1.00  0.00     0.214 C 
BRANCH  18  19
HETATM   19  C10 UNL     1      20.290   0.983  50.487  1.00  0.00    -0.034 A 
HETATM   20  C11 UNL     1      19.412   1.975  50.114  1.00  0.00     0.009 A 
HETATM   21  C12 UNL     1      19.622   2.646  48.930  1.00  0.00     0.001 A 
HETATM   22  C13 UNL     1      20.676   2.391  48.071  1.00  0.00     0.000 A 
HETATM   23  C14 UNL     1      21.579   1.394  48.423  1.00  0.00     0.001 A 
HETATM   24  C15 UNL     1      21.349   0.732  49.614  1.00  0.00     0.009 A 
ENDBRANCH  18  19
ENDBRANCH  17  18
ENDBRANCH   4  17
TORSDOF 5
ENDMDL
MODEL 7
REMARK VINA RESULT:      -7.4      3.445      7.845
REMARK  5 active torsions:
REMARK  status: ('A' for Active; 'I' for Inactive)
REMARK    1  A    between atoms: N1_2  and  C2_3 
REMARK    2  A    between atoms: N3_7  and  C5_8 
REMARK    3  A    between atoms: C8_11  and  O1_12 
REMARK    4  A    between atoms: O1_12  and  C9_13 
REMARK    5  A    between atoms: C9_13  and  C10_14 
ROOT
HETATM    1  C5  UNL     1      24.803   0.242  53.125  1.00  0.00     0.037 A 
HETATM    2  C6  UNL     1      23.720  -0.582  53.374  1.00  0.00     0.032 A 
HETATM    3  C7  UNL     1      22.404  -0.172  53.328  1.00  0.00     0.041 A 
HETATM    4  C8  UNL     1      22.134   1.143  53.014  1.00  0.00     0.091 A 
HETATM    5  C16 UNL     1      23.164   2.024  52.754  1.00  0.00     0.069 A 
HETATM    6 CL1  UNL     1      22.833   3.699  52.355  1.00  0.00    -0.081 Cl
HETATM    7  C17 UNL     1      24.453   1.541  52.820  1.00  0.00     0.056 A 
ENDROOT
BRANCH   1   8
HETATM    8  N3  UNL     1      26.142  -0.229  53.186  1.00  0.00    -0.336 N 
HETATM    9  C4  UNL     1      26.496  -1.588  52.975  1.00  0.00     0.210 A 
HETATM   10  N2  UNL     1      27.691  -2.037  53.024  1.00  0.00    -0.254 NA
HETATM   11  C3  UNL     1      28.771  -1.180  53.301  1.00  0.00     0.144 A 
HETATM   12  C2  UNL     1      28.501   0.086  53.503  1.00  0.00     0.041 A 
HETATM   13  C18 UNL     1      27.178   0.738  53.476  1.00  0.00     0.188 A 
BRANCH  12  14
HETATM   14  N1  UNL     1      29.646   0.907  53.780  1.00  0.00    -0.395 N 
HETATM   15  C1  UNL     1      29.658   2.143  54.528  1.00  0.00     0.146 C 
HETATM   16  H4  UNL     1      30.522   0.497  53.361  1.00  0.00     0.159 HD
ENDBRANCH  12  14
ENDBRANCH   1   8
BRANCH   4  17
HETATM   17  O1  UNL     1      20.820   1.574  52.963  1.00  0.00    -0.345 OA
BRANCH  17  18
HETATM   18  C9  UNL     1      19.865   1.151  52.027  1.00  0.00     0.214 C 
BRANCH  18  19
HETATM   19  C10 UNL     1      20.308   1.646  50.694  1.00  0.00    -0.034 A 
HETATM   20  C11 UNL     1      20.043   2.900  50.192  1.00  0.00     0.009 A 
HETATM   21  C12 UNL     1      20.510   3.237  48.942  1.00  0.00     0.001 A 
HETATM   22  C13 UNL     1      21.246   2.386  48.135  1.00  0.00     0.000 A 
HETATM   23  C14 UNL     1      21.530   1.113  48.617  1.00  0.00     0.001 A 
HETATM   24  C15 UNL     1      21.051   0.796  49.873  1.00  0.00     0.009 A 
ENDBRANCH  18  19
ENDBRANCH  17  18
ENDBRANCH   4  17
TORSDOF 5
ENDMDL
MODEL 8
REMARK VINA RESULT:      -7.3      5.670      9.086
REMARK  5 active torsions:
REMARK  status: ('A' for Active; 'I' for Inactive)
REMARK    1  A    between atoms: N1_2  and  C2_3 
REMARK    2  A    between atoms: N3_7  and  C5_8 
REMARK    3  A    between atoms: C8_11  and  O1_12 
REMARK    4  A    between atoms: O1_12  and  C9_13 
REMARK    5  A    between atoms: C9_13  and  C10_14 
ROOT
HETATM    1  C5  UNL     1      26.027   4.652  49.372  1.00  0.00     0.037 A 
HETATM    2  C6  UNL     1      24.644   4.678  49.409  1.00  0.00     0.032 A 
HETATM    3  C7  UNL     1      23.865   3.740  50.053  1.00  0.00     0.041 A 
HETATM    4  C8  UNL     1      24.492   2.701  50.708  1.00  0.00     0.091 A 
HETATM    5  C16 UNL     1      25.868   2.609  50.714  1.00  0.00     0.069 A 
HETATM    6 CL1  UNL     1      26.676   1.293  51.543  1.00  0.00    -0.081 Cl
HETATM    7  C17 UNL     1      26.579   3.584  50.048  1.00  0.00     0.056 A 
ENDROOT
BRANCH   1   8
HETATM    8  N3  UNL     1      26.784   5.643  48.693  1.00  0.00    -0.336 N 
HETATM    9  C4  UNL     1      26.223   6.859  48.220  1.00  0.00     0.210 A 
HETATM   10  N2  UNL     1      26.883   7.766  47.608  1.00  0.00    -0.254 NA
HETATM   11  C3  UNL     1      28.257   7.611  47.354  1.00  0.00     0.144 A 
HETATM   12  C2  UNL     1      28.826   6.506  47.770  1.00  0.00     0.041 A 
HETATM   13  C18 UNL     1      28.193   5.383  48.485  1.00  0.00     0.188 A 
BRANCH  12  14
HETATM   14  N1  UNL     1      30.229   6.409  47.480  1.00  0.00    -0.395 N 
HETATM   15  C1  UNL     1      31.136   5.386  47.950  1.00  0.00     0.146 C 
HETATM   16  H4  UNL     1      30.549   7.198  46.859  1.00  0.00     0.159 HD
ENDBRANCH  12  14
ENDBRANCH   1   8
BRANCH   4  17
HETATM   17  O1  UNL     1      23.728   1.749  51.361  1.00  0.00    -0.345 OA
BRANCH  17  18
HETATM   18  C9  UNL     1      22.566   2.012  52.100  1.00  0.00     0.214 C 
BRANCH  18  19
HETATM   19  C10 UNL     1      22.424   0.915  53.098  1.00  0.00    -0.034 A 
HETATM   20  C11 UNL     1      21.249   0.566  53.723  1.00  0.00     0.009 A 
HETATM   21  C12 UNL     1      21.251  -0.471  54.629  1.00  0.00     0.001 A 
HETATM   22  C13 UNL     1      22.375  -1.205  54.963  1.00  0.00     0.000 A 
HETATM   23  C14 UNL     1      23.578  -0.875  54.346  1.00  0.00     0.001 A 
HETATM   24  C15 UNL     1      23.552   0.169  53.442  1.00  0.00     0.009 A 
ENDBRANCH  18  19
ENDBRANCH  17  18
ENDBRANCH   4  17
TORSDOF 5
ENDMDL
MODEL 9
REMARK VINA RESULT:      -7.2      4.980      7.484
REMARK  5 active torsions:
REMARK  status: ('A' for Active; 'I' for Inactive)
REMARK    1  A    between atoms: N1_2  and  C2_3 
REMARK    2  A    between atoms: N3_7  and  C5_8 
REMARK    3  A    between atoms: C8_11  and  O1_12 
REMARK    4  A    between atoms: O1_12  and  C9_13 
REMARK    5  A    between atoms: C9_13  and  C10_14 
ROOT
HETATM    1  C5  UNL     1      25.482   4.025  50.337  1.00  0.00     0.037 A 
HETATM    2  C6  UNL     1      26.541   3.135  50.389  1.00  0.00     0.032 A 
HETATM    3  C7  UNL     1      26.514   1.932  51.061  1.00  0.00     0.041 A 
HETATM    4  C8  UNL     1      25.362   1.577  51.731  1.00  0.00     0.091 A 
HETATM    5  C16 UNL     1      24.266   2.414  51.724  1.00  0.00     0.069 A 
HETATM    6 CL1  UNL     1      22.796   1.974  52.573  1.00  0.00    -0.081 Cl
HETATM    7  C17 UNL     1      24.368   3.600  51.030  1.00  0.00     0.056 A 
ENDROOT
BRANCH   1   8
HETATM    8  N3  UNL     1      25.560   5.253  49.629  1.00  0.00    -0.336 N 
HETATM    9  C4  UNL     1      24.512   6.211  49.620  1.00  0.00     0.210 A 
HETATM   10  N2  UNL     1      24.558   7.324  48.993  1.00  0.00    -0.254 NA
HETATM   11  C3  UNL     1      25.693   7.681  48.242  1.00  0.00     0.144 A 
HETATM   12  C2  UNL     1      26.691   6.832  48.216  1.00  0.00     0.041 A 
HETATM   13  C18 UNL     1      26.775   5.522  48.889  1.00  0.00     0.188 A 
BRANCH  12  14
HETATM   14  N1  UNL     1      27.818   7.255  47.433  1.00  0.00    -0.395 N 
HETATM   15  C1  UNL     1      29.187   6.819  47.589  1.00  0.00     0.146 C 
HETATM   16  H4  UNL     1      27.532   7.952  46.695  1.00  0.00     0.159 HD
ENDBRANCH  12  14
ENDBRANCH   1   8
BRANCH   4  17
HETATM   17  O1  UNL     1      25.315   0.374  52.413  1.00  0.00    -0.345 OA
BRANCH  17  18
HETATM   18  C9  UNL     1      25.761   0.169  53.726  1.00  0.00     0.214 C 
BRANCH  18  19
HETATM   19  C10 UNL     1      27.195  -0.229  53.645  1.00  0.00    -0.034 A 
HETATM   20  C11 UNL     1      27.653  -1.418  53.125  1.00  0.00     0.009 A 
HETATM   21  C12 UNL     1      29.007  -1.667  53.108  1.00  0.00     0.001 A 
HETATM   22  C13 UNL     1      29.962  -0.787  53.586  1.00  0.00     0.000 A 
HETATM   23  C14 UNL     1      29.528   0.423  54.117  1.00  0.00     0.001 A 
HETATM   24  C15 UNL     1      28.165   0.651  54.125  1.00  0.00     0.009 A 
ENDBRANCH  18  19
ENDBRANCH  17  18
ENDBRANCH   4  17
TORSDOF 5
ENDMDL
