MODEL 1
REMARK VINA RESULT:      -9.0      0.000      0.000
REMARK  4 active torsions:
REMARK  status: ('A' for Active; 'I' for Inactive)
REMARK    1  A    between atoms: C2_2  and  C3_3 
REMARK       I    between atoms: N4_15  and  C11_16 
REMARK    2  A    between atoms: C11_16  and  C12_18 
REMARK    3  A    between atoms: C13_19  and  C14_20 
REMARK    4  A    between atoms: C14_20  and  N5_21 
ROOT
HETATM    1  C3  UNL     1      25.454   7.850  49.883  1.00  0.00     0.116 C 
HETATM    2  N1  UNL     1      24.174   7.315  49.334  1.00  0.00    -0.369 N 
HETATM    3  C4  UNL     1      24.079   5.855  49.161  1.00  0.00     0.114 C 
HETATM    4  N2  UNL     1      23.174   5.773  48.246  1.00  0.00    -0.228 NA
HETATM    5  C5  UNL     1      22.668   4.605  47.670  1.00  0.00     0.229 C 
HETATM    6  N3  UNL     1      22.021   3.474  47.522  1.00  0.00    -0.272 NA
HETATM    7  C6  UNL     1      21.259   2.959  48.681  1.00  0.00     0.229 C 
HETATM    8  S1  UNL     1      21.986   3.727  50.171  1.00  0.00    -0.111 SA
HETATM    9  C7  UNL     1      23.628   3.170  50.506  1.00  0.00     0.001 C 
HETATM   10  C8  UNL     1      24.808   3.806  50.441  1.00  0.00    -0.048 C 
HETATM   11  C9  UNL     1      25.980   2.947  50.827  1.00  0.00     0.056 C 
HETATM   12  C10 UNL     1      25.621   2.431  52.241  1.00  0.00     0.131 C 
HETATM   13  N4  UNL     1      24.505   1.534  52.079  1.00  0.00    -0.344 N 
HETATM   14  C11 UNL     1      24.205   0.493  53.030  1.00  0.00     0.243 C 
HETATM   15  O1  UNL     1      23.199  -0.241  52.783  1.00  0.00    -0.268 OA
HETATM   16  C17 UNL     1      23.669   1.718  50.911  1.00  0.00     0.172 C 
HETATM   17  C18 UNL     1      25.055   5.178  50.067  1.00  0.00     0.118 C 
HETATM   18  C19 UNL     1      26.343   5.471  49.374  1.00  0.00    -0.034 A 
HETATM   19  C20 UNL     1      27.362   4.762  48.789  1.00  0.00     0.009 A 
HETATM   20  C21 UNL     1      28.454   5.347  48.207  1.00  0.00     0.001 A 
HETATM   21  C22 UNL     1      28.593   6.714  48.174  1.00  0.00     0.001 A 
HETATM   22  C23 UNL     1      27.598   7.476  48.744  1.00  0.00     0.010 A 
HETATM   23  C24 UNL     1      26.479   6.878  49.339  1.00  0.00    -0.028 A 
HETATM   24  H7  UNL     1      23.470   8.076  49.123  1.00  0.00     0.161 HD
ENDROOT
BRANCH  14  25
HETATM   25  C12 UNL     1      25.045   0.327  54.206  1.00  0.00     0.072 C 
HETATM   26  C13 UNL     1      26.241  -0.240  54.192  1.00  0.00     0.008 C 
BRANCH  26  27
HETATM   27  C14 UNL     1      27.140  -0.858  53.194  1.00  0.00     0.299 C 
BRANCH  27  28
HETATM   28  N5  UNL     1      28.528  -0.506  53.417  1.00  0.00     0.083 N 
HETATM   29  C15 UNL     1      28.670   0.344  54.599  1.00  0.00     0.309 C 
HETATM   30  C16 UNL     1      29.393  -1.642  53.457  1.00  0.00     0.309 C 
ENDBRANCH  27  28
ENDBRANCH  26  27
ENDBRANCH  14  25
BRANCH   1  31
HETATM   31  C2  UNL     1      25.693   9.233  49.426  1.00  0.00     0.025 C 
HETATM   32  C1  UNL     1      24.599   9.562  48.404  1.00  0.00     0.007 C 
ENDBRANCH   1  31
TORSDOF 4
ENDMDL
MODEL 2
REMARK VINA RESULT:      -8.4      3.358      7.076
REMARK  4 active torsions:
REMARK  status: ('A' for Active; 'I' for Inactive)
REMARK    1  A    between atoms: C2_2  and  C3_3 
REMARK       I    between atoms: N4_15  and  C11_16 
REMARK    2  A    between atoms: C11_16  and  C12_18 
REMARK    3  A    between atoms: C13_19  and  C14_20 
REMARK    4  A    between atoms: C14_20  and  N5_21 
ROOT
HETATM    1  C3  UNL     1      21.786   1.660  49.426  1.00  0.00     0.116 C 
HETATM    2  N1  UNL     1      21.343   3.081  49.322  1.00  0.00    -0.369 N 
HETATM    3  C4  UNL     1      22.281   4.110  49.805  1.00  0.00     0.114 C 
HETATM    4  N2  UNL     1      21.470   5.076  50.074  1.00  0.00    -0.228 NA
HETATM    5  C5  UNL     1      21.805   6.335  50.578  1.00  0.00     0.229 C 
HETATM    6  N3  UNL     1      22.280   7.555  50.656  1.00  0.00    -0.272 NA
HETATM    7  C6  UNL     1      22.951   8.110  49.460  1.00  0.00     0.229 C 
HETATM    8  S1  UNL     1      23.489   6.686  48.450  1.00  0.00    -0.111 SA
HETATM    9  C7  UNL     1      24.772   5.742  49.212  1.00  0.00     0.001 C 
HETATM   10  C8  UNL     1      24.772   4.501  49.725  1.00  0.00    -0.048 C 
HETATM   11  C9  UNL     1      26.105   4.075  50.277  1.00  0.00     0.056 C 
HETATM   12  C10 UNL     1      27.082   4.266  49.094  1.00  0.00     0.131 C 
HETATM   13  N4  UNL     1      27.180   5.685  48.866  1.00  0.00    -0.344 N 
HETATM   14  C11 UNL     1      28.321   6.291  48.227  1.00  0.00     0.243 C 
HETATM   15  O1  UNL     1      28.301   7.552  48.083  1.00  0.00    -0.268 OA
HETATM   16  C17 UNL     1      26.069   6.506  49.303  1.00  0.00     0.172 C 
HETATM   17  C18 UNL     1      23.673   3.568  49.787  1.00  0.00     0.118 C 
HETATM   18  C19 UNL     1      23.636   2.638  50.952  1.00  0.00    -0.034 A 
HETATM   19  C20 UNL     1      24.277   2.500  52.157  1.00  0.00     0.009 A 
HETATM   20  C21 UNL     1      24.002   1.499  53.050  1.00  0.00     0.001 A 
HETATM   21  C22 UNL     1      23.041   0.553  52.782  1.00  0.00     0.001 A 
HETATM   22  C23 UNL     1      22.364   0.646  51.587  1.00  0.00     0.010 A 
HETATM   23  C24 UNL     1      22.645   1.670  50.673  1.00  0.00    -0.028 A 
HETATM   24  H7  UNL     1      20.375   3.178  48.908  1.00  0.00     0.161 HD
ENDROOT
BRANCH  14  25
HETATM   25  C12 UNL     1      29.425   5.454  47.782  1.00  0.00     0.072 C 
HETATM   26  C13 UNL     1      30.660   5.542  48.248  1.00  0.00     0.008 C 
BRANCH  26  27
HETATM   27  C14 UNL     1      31.392   6.354  49.243  1.00  0.00     0.299 C 
BRANCH  27  28
HETATM   28  N5  UNL     1      31.879   7.598  48.680  1.00  0.00     0.083 N 
HETATM   29  C15 UNL     1      31.298   8.750  49.370  1.00  0.00     0.309 C 
HETATM   30  C16 UNL     1      33.305   7.664  48.620  1.00  0.00     0.309 C 
ENDBRANCH  27  28
ENDBRANCH  26  27
ENDBRANCH  14  25
BRANCH   1  31
HETATM   31  C2  UNL     1      20.631   0.749  49.546  1.00  0.00     0.025 C 
HETATM   32  C1  UNL     1      19.384   1.626  49.703  1.00  0.00     0.007 C 
ENDBRANCH   1  31
TORSDOF 4
ENDMDL
MODEL 3
REMARK VINA RESULT:      -8.0      2.377      2.999
REMARK  4 active torsions:
REMARK  status: ('A' for Active; 'I' for Inactive)
REMARK    1  A    between atoms: C2_2  and  C3_3 
REMARK       I    between atoms: N4_15  and  C11_16 
REMARK    2  A    between atoms: C11_16  and  C12_18 
REMARK    3  A    between atoms: C13_19  and  C14_20 
REMARK    4  A    between atoms: C14_20  and  N5_21 
ROOT
HETATM    1  C3  UNL     1      26.871   8.864  49.603  1.00  0.00     0.116 C 
HETATM    2  N1  UNL     1      25.559   8.760  48.902  1.00  0.00    -0.369 N 
HETATM    3  C4  UNL     1      25.122   7.411  48.499  1.00  0.00     0.114 C 
HETATM    4  N2  UNL     1      24.319   7.691  47.529  1.00  0.00    -0.228 NA
HETATM    5  C5  UNL     1      23.597   6.783  46.751  1.00  0.00     0.229 C 
HETATM    6  N3  UNL     1      22.707   5.890  46.390  1.00  0.00    -0.272 NA
HETATM    7  C6  UNL     1      21.731   5.441  47.408  1.00  0.00     0.229 C 
HETATM    8  S1  UNL     1      22.475   5.787  49.039  1.00  0.00    -0.111 SA
HETATM    9  C7  UNL     1      23.886   4.782  49.384  1.00  0.00     0.001 C 
HETATM   10  C8  UNL     1      25.188   5.091  49.490  1.00  0.00    -0.048 C 
HETATM   11  C9  UNL     1      26.066   3.913  49.809  1.00  0.00     0.056 C 
HETATM   12  C10 UNL     1      25.452   3.324  51.102  1.00  0.00     0.131 C 
HETATM   13  N4  UNL     1      24.170   2.779  50.737  1.00  0.00    -0.344 N 
HETATM   14  C11 UNL     1      23.527   1.735  51.495  1.00  0.00     0.243 C 
HETATM   15  O1  UNL     1      22.400   1.328  51.077  1.00  0.00    -0.268 OA
HETATM   16  C17 UNL     1      23.524   3.329  49.562  1.00  0.00     0.172 C 
HETATM   17  C18 UNL     1      25.804   6.388  49.348  1.00  0.00     0.118 C 
HETATM   18  C19 UNL     1      27.186   6.426  48.788  1.00  0.00    -0.034 A 
HETATM   19  C20 UNL     1      28.049   5.560  48.164  1.00  0.00     0.009 A 
HETATM   20  C21 UNL     1      29.304   5.913  47.747  1.00  0.00     0.001 A 
HETATM   21  C22 UNL     1      29.782   7.189  47.934  1.00  0.00     0.001 A 
HETATM   22  C23 UNL     1      28.956   8.100  48.553  1.00  0.00     0.010 A 
HETATM   23  C24 UNL     1      27.671   7.740  48.979  1.00  0.00    -0.028 A 
HETATM   24  H7  UNL     1      25.090   9.699  48.768  1.00  0.00     0.161 HD
ENDROOT
BRANCH  14  25
HETATM   25  C12 UNL     1      24.180   1.200  52.680  1.00  0.00     0.072 C 
HETATM   26  C13 UNL     1      23.811   0.087  53.294  1.00  0.00     0.008 C 
BRANCH  26  27
HETATM   27  C14 UNL     1      22.776  -0.954  53.128  1.00  0.00     0.299 C 
BRANCH  27  28
HETATM   28  N5  UNL     1      22.054  -1.209  54.360  1.00  0.00     0.083 N 
HETATM   29  C15 UNL     1      22.977  -1.484  55.461  1.00  0.00     0.309 C 
HETATM   30  C16 UNL     1      21.116  -0.180  54.681  1.00  0.00     0.309 C 
ENDBRANCH  27  28
ENDBRANCH  26  27
ENDBRANCH  14  25
BRANCH   1  31
HETATM   31  C2  UNL     1      27.491  10.185  49.380  1.00  0.00     0.025 C 
HETATM   32  C1  UNL     1      26.593  10.940  48.393  1.00  0.00     0.007 C 
ENDBRANCH   1  31
TORSDOF 4
ENDMDL
MODEL 4
REMARK VINA RESULT:      -7.9      2.331      5.102
REMARK  4 active torsions:
REMARK  status: ('A' for Active; 'I' for Inactive)
REMARK    1  A    between atoms: C2_2  and  C3_3 
REMARK       I    between atoms: N4_15  and  C11_16 
REMARK    2  A    between atoms: C11_16  and  C12_18 
REMARK    3  A    between atoms: C13_19  and  C14_20 
REMARK    4  A    between atoms: C14_20  and  N5_21 
ROOT
HETATM    1  C3  UNL     1      21.605   3.701  46.096  1.00  0.00     0.116 C 
HETATM    2  N1  UNL     1      22.349   4.879  46.632  1.00  0.00    -0.369 N 
HETATM    3  C4  UNL     1      22.425   5.010  48.098  1.00  0.00     0.114 C 
HETATM    4  N2  UNL     1      22.619   6.279  48.222  1.00  0.00    -0.228 NA
HETATM    5  C5  UNL     1      22.769   6.991  49.415  1.00  0.00     0.229 C 
HETATM    6  N3  UNL     1      23.281   7.445  50.533  1.00  0.00    -0.272 NA
HETATM    7  C6  UNL     1      24.614   6.943  50.934  1.00  0.00     0.229 C 
HETATM    8  S1  UNL     1      24.855   5.349  50.076  1.00  0.00    -0.111 SA
HETATM    9  C7  UNL     1      23.772   4.080  50.656  1.00  0.00     0.001 C 
HETATM   10  C8  UNL     1      22.740   3.459  50.063  1.00  0.00    -0.048 C 
HETATM   11  C9  UNL     1      22.086   2.416  50.926  1.00  0.00     0.056 C 
HETATM   12  C10 UNL     1      23.245   1.470  51.320  1.00  0.00     0.131 C 
HETATM   13  N4  UNL     1      24.111   2.223  52.191  1.00  0.00    -0.344 N 
HETATM   14  C11 UNL     1      24.987   1.593  53.146  1.00  0.00     0.243 C 
HETATM   15  O1  UNL     1      25.702   2.355  53.866  1.00  0.00    -0.268 OA
HETATM   16  C17 UNL     1      24.081   3.667  52.072  1.00  0.00     0.172 C 
HETATM   17  C18 UNL     1      22.223   3.673  48.733  1.00  0.00     0.118 C 
HETATM   18  C19 UNL     1      20.758   3.478  48.534  1.00  0.00    -0.034 A 
HETATM   19  C20 UNL     1      19.643   3.312  49.317  1.00  0.00     0.009 A 
HETATM   20  C21 UNL     1      18.381   3.157  48.813  1.00  0.00     0.001 A 
HETATM   21  C22 UNL     1      18.152   3.161  47.457  1.00  0.00     0.001 A 
HETATM   22  C23 UNL     1      19.235   3.328  46.623  1.00  0.00     0.010 A 
HETATM   23  C24 UNL     1      20.528   3.487  47.139  1.00  0.00    -0.028 A 
HETATM   24  H7  UNL     1      22.737   5.500  45.869  1.00  0.00     0.161 HD
ENDROOT
BRANCH  14  25
HETATM   25  C12 UNL     1      25.017   0.141  53.248  1.00  0.00     0.072 C 
HETATM   26  C13 UNL     1      26.099  -0.596  53.058  1.00  0.00     0.008 C 
BRANCH  26  27
HETATM   27  C14 UNL     1      27.521  -0.373  52.721  1.00  0.00     0.299 C 
BRANCH  27  28
HETATM   28  N5  UNL     1      28.404  -0.720  53.818  1.00  0.00     0.083 N 
HETATM   29  C15 UNL     1      29.767  -0.951  53.341  1.00  0.00     0.309 C 
HETATM   30  C16 UNL     1      28.356   0.220  54.893  1.00  0.00     0.309 C 
ENDBRANCH  27  28
ENDBRANCH  26  27
ENDBRANCH  14  25
BRANCH   1  31
HETATM   31  C2  UNL     1      21.045   3.987  44.761  1.00  0.00     0.025 C 
HETATM   32  C1  UNL     1      21.423   5.433  44.418  1.00  0.00     0.007 C 
ENDBRANCH   1  31
TORSDOF 4
ENDMDL
MODEL 5
REMARK VINA RESULT:      -7.7      4.771      7.867
REMARK  4 active torsions:
REMARK  status: ('A' for Active; 'I' for Inactive)
REMARK    1  A    between atoms: C2_2  and  C3_3 
REMARK       I    between atoms: N4_15  and  C11_16 
REMARK    2  A    between atoms: C11_16  and  C12_18 
REMARK    3  A    between atoms: C13_19  and  C14_20 
REMARK    4  A    between atoms: C14_20  and  N5_21 
ROOT
HETATM    1  C3  UNL     1      33.587   5.862  48.950  1.00  0.00     0.116 C 
HETATM    2  N1  UNL     1      33.206   7.115  48.235  1.00  0.00    -0.369 N 
HETATM    3  C4  UNL     1      31.914   7.114  47.527  1.00  0.00     0.114 C 
HETATM    4  N2  UNL     1      32.115   8.032  46.644  1.00  0.00    -0.228 NA
HETATM    5  C5  UNL     1      31.214   8.471  45.670  1.00  0.00     0.229 C 
HETATM    6  N3  UNL     1      30.178   9.042  45.106  1.00  0.00    -0.272 NA
HETATM    7  C6  UNL     1      29.214   9.742  45.985  1.00  0.00     0.229 C 
HETATM    8  S1  UNL     1      29.419   9.036  47.657  1.00  0.00    -0.111 SA
HETATM    9  C7  UNL     1      28.896   7.353  47.768  1.00  0.00     0.001 C 
HETATM   10  C8  UNL     1      29.592   6.220  47.951  1.00  0.00    -0.048 C 
HETATM   11  C9  UNL     1      28.737   4.984  47.993  1.00  0.00     0.056 C 
HETATM   12  C10 UNL     1      27.706   5.276  49.109  1.00  0.00     0.131 C 
HETATM   13  N4  UNL     1      26.858   6.332  48.618  1.00  0.00    -0.344 N 
HETATM   14  C11 UNL     1      25.518   6.540  49.108  1.00  0.00     0.243 C 
HETATM   15  O1  UNL     1      24.859   7.499  48.600  1.00  0.00    -0.268 OA
HETATM   16  C17 UNL     1      27.405   7.205  47.600  1.00  0.00     0.172 C 
HETATM   17  C18 UNL     1      31.018   6.075  48.119  1.00  0.00     0.118 C 
HETATM   18  C19 UNL     1      31.640   4.825  47.592  1.00  0.00    -0.034 A 
HETATM   19  C20 UNL     1      31.275   3.774  46.789  1.00  0.00     0.009 A 
HETATM   20  C21 UNL     1      32.111   2.737  46.474  1.00  0.00     0.001 A 
HETATM   21  C22 UNL     1      33.399   2.692  46.955  1.00  0.00     0.001 A 
HETATM   22  C23 UNL     1      33.819   3.724  47.764  1.00  0.00     0.010 A 
HETATM   23  C24 UNL     1      32.963   4.786  48.087  1.00  0.00    -0.028 A 
HETATM   24  H7  UNL     1      33.938   7.874  48.321  1.00  0.00     0.161 HD
ENDROOT
BRANCH  14  25
HETATM   25  C12 UNL     1      24.984   5.664  50.140  1.00  0.00     0.072 C 
HETATM   26  C13 UNL     1      24.090   4.714  49.921  1.00  0.00     0.008 C 
BRANCH  26  27
HETATM   27  C14 UNL     1      23.340   4.173  48.768  1.00  0.00     0.299 C 
BRANCH  27  28
HETATM   28  N5  UNL     1      23.246   2.726  48.808  1.00  0.00     0.083 N 
HETATM   29  C15 UNL     1      22.872   2.261  50.143  1.00  0.00     0.309 C 
HETATM   30  C16 UNL     1      22.399   2.193  47.789  1.00  0.00     0.309 C 
ENDBRANCH  27  28
ENDBRANCH  26  27
ENDBRANCH  14  25
BRANCH   1  31
HETATM   31  C2  UNL     1      35.053   5.728  49.045  1.00  0.00     0.025 C 
HETATM   32  C1  UNL     1      35.657   7.047  48.549  1.00  0.00     0.007 C 
ENDBRANCH   1  31
TORSDOF 4
ENDMDL
MODEL 6
REMARK VINA RESULT:      -7.6      3.356      4.997
REMARK  4 active torsions:
REMARK  status: ('A' for Active; 'I' for Inactive)
REMARK    1  A    between atoms: C2_2  and  C3_3 
REMARK       I    between atoms: N4_15  and  C11_16 
REMARK    2  A    between atoms: C11_16  and  C12_18 
REMARK    3  A    between atoms: C13_19  and  C14_20 
REMARK    4  A    between atoms: C14_20  and  N5_21 
ROOT
HETATM    1  C3  UNL     1      29.173   9.292  49.195  1.00  0.00     0.116 C 
HETATM    2  N1  UNL     1      28.134   9.706  48.207  1.00  0.00    -0.369 N 
HETATM    3  C4  UNL     1      27.249   8.650  47.686  1.00  0.00     0.114 C 
HETATM    4  N2  UNL     1      26.882   9.167  46.562  1.00  0.00    -0.228 NA
HETATM    5  C5  UNL     1      26.023   8.598  45.618  1.00  0.00     0.229 C 
HETATM    6  N3  UNL     1      24.934   8.149  45.043  1.00  0.00    -0.272 NA
HETATM    7  C6  UNL     1      23.665   8.251  45.797  1.00  0.00     0.229 C 
HETATM    8  S1  UNL     1      24.112   8.377  47.564  1.00  0.00    -0.111 SA
HETATM    9  C7  UNL     1      24.826   6.894  48.204  1.00  0.00     0.001 C 
HETATM   10  C8  UNL     1      26.074   6.619  48.615  1.00  0.00    -0.048 C 
HETATM   11  C9  UNL     1      26.254   5.208  49.104  1.00  0.00     0.056 C 
HETATM   12  C10 UNL     1      25.180   5.051  50.206  1.00  0.00     0.131 C 
HETATM   13  N4  UNL     1      23.902   5.084  49.543  1.00  0.00    -0.344 N 
HETATM   14  C11 UNL     1      22.719   4.486  50.109  1.00  0.00     0.243 C 
HETATM   15  O1  UNL     1      21.648   4.572  49.433  1.00  0.00    -0.268 OA
HETATM   16  C17 UNL     1      23.835   5.759  48.262  1.00  0.00     0.172 C 
HETATM   17  C18 UNL     1      27.211   7.507  48.647  1.00  0.00     0.118 C 
HETATM   18  C19 UNL     1      28.555   6.898  48.423  1.00  0.00    -0.034 A 
HETATM   19  C20 UNL     1      29.063   5.697  47.998  1.00  0.00     0.009 A 
HETATM   20  C21 UNL     1      30.403   5.438  47.890  1.00  0.00     0.001 A 
HETATM   21  C22 UNL     1      31.338   6.394  48.209  1.00  0.00     0.001 A 
HETATM   22  C23 UNL     1      30.884   7.620  48.640  1.00  0.00     0.010 A 
HETATM   23  C24 UNL     1      29.512   7.886  48.750  1.00  0.00    -0.028 A 
HETATM   24  H7  UNL     1      28.167  10.741  47.989  1.00  0.00     0.161 HD
ENDROOT
BRANCH  14  25
HETATM   25  C12 UNL     1      22.796   3.822  51.401  1.00  0.00     0.072 C 
HETATM   26  C13 UNL     1      22.620   2.523  51.582  1.00  0.00     0.008 C 
BRANCH  26  27
HETATM   27  C14 UNL     1      22.321   1.340  50.748  1.00  0.00     0.299 C 
BRANCH  27  28
HETATM   28  N5  UNL     1      21.651   0.297  51.499  1.00  0.00     0.083 N 
HETATM   29  C15 UNL     1      22.385  -0.022  52.724  1.00  0.00     0.309 C 
HETATM   30  C16 UNL     1      20.274   0.585  51.750  1.00  0.00     0.309 C 
ENDBRANCH  27  28
ENDBRANCH  26  27
ENDBRANCH  14  25
BRANCH   1  31
HETATM   31  C2  UNL     1      30.340  10.194  49.150  1.00  0.00     0.025 C 
HETATM   32  C1  UNL     1      30.043  11.258  48.088  1.00  0.00     0.007 C 
ENDBRANCH   1  31
TORSDOF 4
ENDMDL
MODEL 7
REMARK VINA RESULT:      -7.5      6.927     10.489
REMARK  4 active torsions:
REMARK  status: ('A' for Active; 'I' for Inactive)
REMARK    1  A    between atoms: C2_2  and  C3_3 
REMARK       I    between atoms: N4_15  and  C11_16 
REMARK    2  A    between atoms: C11_16  and  C12_18 
REMARK    3  A    between atoms: C13_19  and  C14_20 
REMARK    4  A    between atoms: C14_20  and  N5_21 
ROOT
HETATM    1  C3  UNL     1      34.358   6.375  42.463  1.00  0.00     0.116 C 
HETATM    2  N1  UNL     1      34.569   5.127  43.254  1.00  0.00    -0.369 N 
HETATM    3  C4  UNL     1      34.185   5.165  44.676  1.00  0.00     0.114 C 
HETATM    4  N2  UNL     1      34.932   4.229  45.158  1.00  0.00    -0.228 NA
HETATM    5  C5  UNL     1      34.996   3.811  46.489  1.00  0.00     0.229 C 
HETATM    6  N3  UNL     1      34.668   3.269  47.637  1.00  0.00    -0.272 NA
HETATM    7  C6  UNL     1      33.344   2.615  47.735  1.00  0.00     0.229 C 
HETATM    8  S1  UNL     1      32.303   3.333  46.417  1.00  0.00    -0.111 SA
HETATM    9  C7  UNL     1      31.916   5.034  46.690  1.00  0.00     0.001 C 
HETATM   10  C8  UNL     1      32.303   6.144  46.042  1.00  0.00    -0.048 C 
HETATM   11  C9  UNL     1      31.723   7.410  46.609  1.00  0.00     0.056 C 
HETATM   12  C10 UNL     1      30.194   7.168  46.585  1.00  0.00     0.131 C 
HETATM   13  N4  UNL     1      29.927   6.137  47.554  1.00  0.00    -0.344 N 
HETATM   14  C11 UNL     1      28.640   5.981  48.184  1.00  0.00     0.243 C 
HETATM   15  O1  UNL     1      28.519   5.040  49.028  1.00  0.00    -0.268 OA
HETATM   16  C17 UNL     1      31.011   5.233  47.879  1.00  0.00     0.172 C 
HETATM   17  C18 UNL     1      33.174   6.242  44.895  1.00  0.00     0.118 C 
HETATM   18  C19 UNL     1      34.025   7.462  44.790  1.00  0.00    -0.034 A 
HETATM   19  C20 UNL     1      34.386   8.516  45.591  1.00  0.00     0.009 A 
HETATM   20  C21 UNL     1      35.226   9.519  45.189  1.00  0.00     0.001 A 
HETATM   21  C22 UNL     1      35.771   9.525  43.927  1.00  0.00     0.001 A 
HETATM   22  C23 UNL     1      35.445   8.489  43.081  1.00  0.00     0.010 A 
HETATM   23  C24 UNL     1      34.585   7.462  43.492  1.00  0.00    -0.028 A 
HETATM   24  H7  UNL     1      34.988   4.345  42.679  1.00  0.00     0.161 HD
ENDROOT
BRANCH  14  25
HETATM   25  C12 UNL     1      27.555   6.888  47.840  1.00  0.00     0.072 C 
HETATM   26  C13 UNL     1      27.377   8.078  48.389  1.00  0.00     0.008 C 
BRANCH  26  27
HETATM   27  C14 UNL     1      28.042   8.915  49.410  1.00  0.00     0.299 C 
BRANCH  27  28
HETATM   28  N5  UNL     1      29.079   9.752  48.839  1.00  0.00     0.083 N 
HETATM   29  C15 UNL     1      28.677  11.159  48.840  1.00  0.00     0.309 C 
HETATM   30  C16 UNL     1      30.357   9.552  49.445  1.00  0.00     0.309 C 
ENDBRANCH  27  28
ENDBRANCH  26  27
ENDBRANCH  14  25
BRANCH   1  31
HETATM   31  C2  UNL     1      35.308   6.459  41.337  1.00  0.00     0.025 C 
HETATM   32  C1  UNL     1      34.535   6.077  40.069  1.00  0.00     0.007 C 
ENDBRANCH   1  31
TORSDOF 4
ENDMDL
MODEL 8
REMARK VINA RESULT:      -7.4      4.232      8.134
REMARK  4 active torsions:
REMARK  status: ('A' for Active; 'I' for Inactive)
REMARK    1  A    between atoms: C2_2  and  C3_3 
REMARK       I    between atoms: N4_15  and  C11_16 
REMARK    2  A    between atoms: C11_16  and  C12_18 
REMARK    3  A    between atoms: C13_19  and  C14_20 
REMARK    4  A    between atoms: C14_20  and  N5_21 
ROOT
HETATM    1  C3  UNL     1      24.333   2.677  52.931  1.00  0.00     0.116 C 
HETATM    2  N1  UNL     1      24.359   3.067  51.491  1.00  0.00    -0.369 N 
HETATM    3  C4  UNL     1      23.185   2.703  50.678  1.00  0.00     0.114 C 
HETATM    4  N2  UNL     1      23.701   2.677  49.496  1.00  0.00    -0.228 NA
HETATM    5  C5  UNL     1      23.043   2.380  48.300  1.00  0.00     0.229 C 
HETATM    6  N3  UNL     1      22.249   2.484  47.263  1.00  0.00    -0.272 NA
HETATM    7  C6  UNL     1      21.417   3.703  47.151  1.00  0.00     0.229 C 
HETATM    8  S1  UNL     1      21.270   4.396  48.834  1.00  0.00    -0.111 SA
HETATM    9  C7  UNL     1      20.322   3.377  49.922  1.00  0.00     0.001 C 
HETATM   10  C8  UNL     1      20.682   2.652  50.993  1.00  0.00    -0.048 C 
HETATM   11  C9  UNL     1      19.537   1.929  51.646  1.00  0.00     0.056 C 
HETATM   12  C10 UNL     1      18.513   3.046  51.958  1.00  0.00     0.131 C 
HETATM   13  N4  UNL     1      18.017   3.514  50.689  1.00  0.00    -0.344 N 
HETATM   14  C11 UNL     1      16.736   4.159  50.548  1.00  0.00     0.243 C 
HETATM   15  O1  UNL     1      16.399   4.526  49.380  1.00  0.00    -0.268 OA
HETATM   16  C17 UNL     1      18.867   3.321  49.532  1.00  0.00     0.172 C 
HETATM   17  C18 UNL     1      21.999   2.513  51.567  1.00  0.00     0.118 C 
HETATM   18  C19 UNL     1      22.325   1.207  52.208  1.00  0.00    -0.034 A 
HETATM   19  C20 UNL     1      21.781  -0.051  52.278  1.00  0.00     0.009 A 
HETATM   20  C21 UNL     1      22.349  -1.083  52.975  1.00  0.00     0.001 A 
HETATM   21  C22 UNL     1      23.528  -0.913  53.661  1.00  0.00     0.001 A 
HETATM   22  C23 UNL     1      24.120   0.330  53.624  1.00  0.00     0.010 A 
HETATM   23  C24 UNL     1      23.540   1.387  52.910  1.00  0.00    -0.028 A 
HETATM   24  H7  UNL     1      25.250   3.568  51.219  1.00  0.00     0.161 HD
ENDROOT
BRANCH  14  25
HETATM   25  C12 UNL     1      15.897   4.358  51.720  1.00  0.00     0.072 C 
HETATM   26  C13 UNL     1      14.999   3.486  52.149  1.00  0.00     0.008 C 
BRANCH  26  27
HETATM   27  C14 UNL     1      14.497   2.155  51.747  1.00  0.00     0.299 C 
BRANCH  27  28
HETATM   28  N5  UNL     1      15.403   1.091  52.129  1.00  0.00     0.083 N 
HETATM   29  C15 UNL     1      14.770   0.179  53.082  1.00  0.00     0.309 C 
HETATM   30  C16 UNL     1      15.963   0.403  51.009  1.00  0.00     0.309 C 
ENDBRANCH  27  28
ENDBRANCH  26  27
ENDBRANCH  14  25
BRANCH   1  31
HETATM   31  C2  UNL     1      25.699   2.488  53.457  1.00  0.00     0.025 C 
HETATM   32  C1  UNL     1      26.626   2.328  52.247  1.00  0.00     0.007 C 
ENDBRANCH   1  31
TORSDOF 4
ENDMDL
MODEL 9
REMARK VINA RESULT:      -7.4      5.940      8.253
REMARK  4 active torsions:
REMARK  status: ('A' for Active; 'I' for Inactive)
REMARK    1  A    between atoms: C2_2  and  C3_3 
REMARK       I    between atoms: N4_15  and  C11_16 
REMARK    2  A    between atoms: C11_16  and  C12_18 
REMARK    3  A    between atoms: C13_19  and  C14_20 
REMARK    4  A    between atoms: C14_20  and  N5_21 
ROOT
HETATM    1  C3  UNL     1      25.497   8.483  45.509  1.00  0.00     0.116 C 
HETATM    2  N1  UNL     1      26.382   9.607  45.932  1.00  0.00    -0.369 N 
HETATM    3  C4  UNL     1      27.297   9.350  47.057  1.00  0.00     0.114 C 
HETATM    4  N2  UNL     1      27.493  10.547  47.495  1.00  0.00    -0.228 NA
HETATM    5  C5  UNL     1      28.293  10.924  48.577  1.00  0.00     0.229 C 
HETATM    6  N3  UNL     1      29.350  11.160  49.316  1.00  0.00    -0.272 NA
HETATM    7  C6  UNL     1      30.679  10.884  48.726  1.00  0.00     0.229 C 
HETATM    8  S1  UNL     1      30.415   9.679  47.378  1.00  0.00    -0.111 SA
HETATM    9  C7  UNL     1      29.909   8.090  47.959  1.00  0.00     0.001 C 
HETATM   10  C8  UNL     1      28.742   7.437  47.844  1.00  0.00    -0.048 C 
HETATM   11  C9  UNL     1      28.743   6.078  48.489  1.00  0.00     0.056 C 
HETATM   12  C10 UNL     1      29.939   5.349  47.832  1.00  0.00     0.131 C 
HETATM   13  N4  UNL     1      31.131   6.013  48.296  1.00  0.00    -0.344 N 
HETATM   14  C11 UNL     1      32.416   5.362  48.332  1.00  0.00     0.243 C 
HETATM   15  O1  UNL     1      33.397   6.042  48.765  1.00  0.00    -0.268 OA
HETATM   16  C17 UNL     1      30.998   7.389  48.730  1.00  0.00     0.172 C 
HETATM   17  C18 UNL     1      27.540   7.881  47.181  1.00  0.00     0.118 C 
HETATM   18  C19 UNL     1      26.240   7.421  47.752  1.00  0.00    -0.034 A 
HETATM   19  C20 UNL     1      25.799   6.801  48.893  1.00  0.00     0.009 A 
HETATM   20  C21 UNL     1      24.484   6.507  49.134  1.00  0.00     0.001 A 
HETATM   21  C22 UNL     1      23.506   6.828  48.222  1.00  0.00     0.001 A 
HETATM   22  C23 UNL     1      23.893   7.454  47.059  1.00  0.00     0.010 A 
HETATM   23  C24 UNL     1      25.239   7.756  46.811  1.00  0.00    -0.028 A 
HETATM   24  H7  UNL     1      26.233  10.483  45.357  1.00  0.00     0.161 HD
ENDROOT
BRANCH  14  25
HETATM   25  C12 UNL     1      32.538   3.984  47.882  1.00  0.00     0.072 C 
HETATM   26  C13 UNL     1      32.759   3.627  46.627  1.00  0.00     0.008 C 
BRANCH  26  27
HETATM   27  C14 UNL     1      32.954   4.298  45.324  1.00  0.00     0.299 C 
BRANCH  27  28
HETATM   28  N5  UNL     1      34.339   4.660  45.097  1.00  0.00     0.083 N 
HETATM   29  C15 UNL     1      35.240   3.610  45.574  1.00  0.00     0.309 C 
HETATM   30  C16 UNL     1      34.606   5.031  43.744  1.00  0.00     0.309 C 
ENDBRANCH  27  28
ENDBRANCH  26  27
ENDBRANCH  14  25
BRANCH   1  31
HETATM   31  C2  UNL     1      24.255   8.986  44.890  1.00  0.00     0.025 C 
HETATM   32  C1  UNL     1      24.168   8.366  43.491  1.00  0.00     0.007 C 
ENDBRANCH   1  31
TORSDOF 4
ENDMDL
