MODEL 1
REMARK VINA RESULT:      -9.2      0.000      0.000
REMARK  7 active torsions:
REMARK  status: ('A' for Active; 'I' for Inactive)
REMARK    1  A    between atoms: C4_4  and  C5_5 
REMARK    2  A    between atoms: C5_5  and  C6_6 
REMARK    3  A    between atoms: C6_6  and  C7_7 
REMARK    4  A    between atoms: C10_12  and  N3_13 
REMARK    5  A    between atoms: N3_13  and  C11_14 
REMARK    6  A    between atoms: C15_19  and  C16_20 
REMARK    7  A    between atoms: C16_20  and  N4_21 
ROOT
HETATM    1  C7  UNL     1      22.313   1.752  50.216  1.00  0.00     0.007 A 
HETATM    2  C8  UNL     1      22.805   2.931  49.546  1.00  0.00     0.084 A 
HETATM    3  N1  UNL     1      23.052   3.976  48.760  1.00  0.00    -0.240 NA
HETATM    4  C9  UNL     1      24.114   4.756  49.056  1.00  0.00     0.236 A 
HETATM    5  N2  UNL     1      24.843   4.417  50.122  1.00  0.00    -0.223 NA
HETATM    6  C10 UNL     1      24.611   3.371  50.923  1.00  0.00     0.143 A 
HETATM    7  C18 UNL     1      23.511   2.544  50.635  1.00  0.00     0.052 A 
ENDROOT
BRANCH   6   8
HETATM    8  N3  UNL     1      25.426   3.066  52.044  1.00  0.00    -0.340 N 
HETATM    9  H9  UNL     1      25.545   3.843  52.764  1.00  0.00     0.167 HD
BRANCH   8  10
HETATM   10  C11 UNL     1      26.099   1.874  52.335  1.00  0.00     0.034 A 
HETATM   11  C12 UNL     1      25.727   0.609  51.956  1.00  0.00     0.032 A 
HETATM   12  C13 UNL     1      26.393  -0.563  52.235  1.00  0.00     0.045 A 
HETATM   13  C14 UNL     1      27.564  -0.441  52.978  1.00  0.00     0.130 A 
HETATM   14  F1  UNL     1      28.287  -1.539  53.301  1.00  0.00    -0.205 F 
HETATM   15  C15 UNL     1      28.013   0.790  53.400  1.00  0.00     0.086 A 
HETATM   16  C17 UNL     1      27.278   1.905  53.073  1.00  0.00     0.048 A 
BRANCH  15  17
HETATM   17  C16 UNL     1      29.251   0.872  54.179  1.00  0.00     0.466 C 
HETATM   18  F2  UNL     1      30.310   0.234  53.573  1.00  0.00    -0.168 F 
HETATM   19  F3  UNL     1      29.021   0.234  55.406  1.00  0.00    -0.168 F 
BRANCH  17  20
HETATM   20  N4  UNL     1      29.634   2.226  54.533  1.00  0.00     0.156 N 
HETATM   21  H12 UNL     1      30.586   2.426  54.155  1.00  0.00     0.321 HD
HETATM   22  H13 UNL     1      28.977   2.868  54.037  1.00  0.00     0.321 HD
ENDBRANCH  17  20
ENDBRANCH  15  17
ENDBRANCH   8  10
ENDBRANCH   6   8
BRANCH   1  23
HETATM   23  C6  UNL     1      21.765   0.651  50.754  1.00  0.00    -0.007 C 
BRANCH  23  24
HETATM   24  C5  UNL     1      20.656   0.805  51.731  1.00  0.00     0.067 C 
BRANCH  24  25
HETATM   25  C4  UNL     1      21.073   0.040  52.948  1.00  0.00    -0.043 C 
HETATM   26  C3  UNL     1      22.425   0.178  53.519  1.00  0.00     0.015 C 
HETATM   27  C2  UNL     1      22.672  -0.837  54.360  1.00  0.00    -0.061 C 
HETATM   28  C1  UNL     1      23.832  -1.232  55.214  1.00  0.00     0.048 C 
HETATM   29  C20 UNL     1      21.434  -1.645  54.319  1.00  0.00     0.019 C 
HETATM   30  C19 UNL     1      20.537  -0.835  53.780  1.00  0.00    -0.018 C 
ENDBRANCH  24  25
ENDBRANCH  23  24
ENDBRANCH   1  23
TORSDOF 7
ENDMDL
MODEL 2
REMARK VINA RESULT:      -9.1      3.325      7.292
REMARK  7 active torsions:
REMARK  status: ('A' for Active; 'I' for Inactive)
REMARK    1  A    between atoms: C4_4  and  C5_5 
REMARK    2  A    between atoms: C5_5  and  C6_6 
REMARK    3  A    between atoms: C6_6  and  C7_7 
REMARK    4  A    between atoms: C10_12  and  N3_13 
REMARK    5  A    between atoms: N3_13  and  C11_14 
REMARK    6  A    between atoms: C15_19  and  C16_20 
REMARK    7  A    between atoms: C16_20  and  N4_21 
ROOT
HETATM    1  C7  UNL     1      26.890   2.254  52.238  1.00  0.00     0.007 A 
HETATM    2  C8  UNL     1      27.855   1.901  53.250  1.00  0.00     0.084 A 
HETATM    3  N1  UNL     1      28.877   1.795  54.097  1.00  0.00    -0.240 NA
HETATM    4  C9  UNL     1      28.882   0.756  54.959  1.00  0.00     0.236 A 
HETATM    5  N2  UNL     1      27.855  -0.095  54.896  1.00  0.00    -0.223 NA
HETATM    6  C10 UNL     1      26.820  -0.006  54.051  1.00  0.00     0.143 A 
HETATM    7  C18 UNL     1      26.793   1.068  53.145  1.00  0.00     0.052 A 
ENDROOT
BRANCH   6   8
HETATM    8  N3  UNL     1      25.758  -0.946  54.036  1.00  0.00    -0.340 N 
HETATM    9  H9  UNL     1      26.041  -1.975  54.039  1.00  0.00     0.167 HD
BRANCH   8  10
HETATM   10  C11 UNL     1      24.380  -0.706  54.020  1.00  0.00     0.034 A 
HETATM   11  C12 UNL     1      23.468  -1.094  54.968  1.00  0.00     0.032 A 
HETATM   12  C13 UNL     1      22.113  -0.851  54.957  1.00  0.00     0.045 A 
HETATM   13  C14 UNL     1      21.629  -0.134  53.866  1.00  0.00     0.130 A 
HETATM   14  F1  UNL     1      20.310   0.152  53.767  1.00  0.00    -0.205 F 
HETATM   15  C15 UNL     1      22.472   0.296  52.866  1.00  0.00     0.086 A 
HETATM   16  C17 UNL     1      23.811   0.003  52.966  1.00  0.00     0.048 A 
BRANCH  15  17
HETATM   17  C16 UNL     1      21.919   1.048  51.737  1.00  0.00     0.466 C 
HETATM   18  F2  UNL     1      20.938   0.356  51.061  1.00  0.00    -0.168 F 
HETATM   19  F3  UNL     1      22.965   1.284  50.834  1.00  0.00    -0.168 F 
BRANCH  17  20
HETATM   20  N4  UNL     1      21.431   2.367  52.091  1.00  0.00     0.156 N 
HETATM   21  H12 UNL     1      21.955   3.087  51.547  1.00  0.00     0.321 HD
HETATM   22  H13 UNL     1      20.438   2.420  51.773  1.00  0.00     0.321 HD
ENDBRANCH  17  20
ENDBRANCH  15  17
ENDBRANCH   8  10
ENDBRANCH   6   8
BRANCH   1  23
HETATM   23  C6  UNL     1      26.063   2.681  51.271  1.00  0.00    -0.007 C 
BRANCH  23  24
HETATM   24  C5  UNL     1      26.516   2.615  49.857  1.00  0.00     0.067 C 
BRANCH  24  25
HETATM   25  C4  UNL     1      26.425   4.015  49.333  1.00  0.00    -0.043 C 
HETATM   26  C3  UNL     1      27.567   4.664  48.665  1.00  0.00     0.015 C 
HETATM   27  C2  UNL     1      27.372   5.989  48.607  1.00  0.00    -0.061 C 
HETATM   28  C1  UNL     1      28.152   7.141  48.064  1.00  0.00     0.048 C 
HETATM   29  C20 UNL     1      26.060   6.186  49.261  1.00  0.00     0.019 C 
HETATM   30  C19 UNL     1      25.521   4.977  49.276  1.00  0.00    -0.018 C 
ENDBRANCH  24  25
ENDBRANCH  23  24
ENDBRANCH   1  23
TORSDOF 7
ENDMDL
MODEL 3
REMARK VINA RESULT:      -8.8      3.335      5.706
REMARK  7 active torsions:
REMARK  status: ('A' for Active; 'I' for Inactive)
REMARK    1  A    between atoms: C4_4  and  C5_5 
REMARK    2  A    between atoms: C5_5  and  C6_6 
REMARK    3  A    between atoms: C6_6  and  C7_7 
REMARK    4  A    between atoms: C10_12  and  N3_13 
REMARK    5  A    between atoms: N3_13  and  C11_14 
REMARK    6  A    between atoms: C15_19  and  C16_20 
REMARK    7  A    between atoms: C16_20  and  N4_21 
ROOT
HETATM    1  C7  UNL     1      24.309  -0.494  53.871  1.00  0.00     0.007 A 
HETATM    2  C8  UNL     1      25.616  -0.332  54.460  1.00  0.00     0.084 A 
HETATM    3  N1  UNL     1      26.708  -0.295  55.221  1.00  0.00    -0.240 NA
HETATM    4  C9  UNL     1      27.833   0.230  54.691  1.00  0.00     0.236 A 
HETATM    5  N2  UNL     1      27.767   0.676  53.435  1.00  0.00    -0.223 NA
HETATM    6  C10 UNL     1      26.679   0.649  52.654  1.00  0.00     0.143 A 
HETATM    7  C18 UNL     1      25.495   0.107  53.184  1.00  0.00     0.052 A 
ENDROOT
BRANCH   6   8
HETATM    8  N3  UNL     1      26.676   1.141  51.324  1.00  0.00    -0.340 N 
HETATM    9  H9  UNL     1      27.072   0.488  50.580  1.00  0.00     0.167 HD
BRANCH   8  10
HETATM   10  C11 UNL     1      26.217   2.376  50.852  1.00  0.00     0.034 A 
HETATM   11  C12 UNL     1      26.674   3.053  49.750  1.00  0.00     0.032 A 
HETATM   12  C13 UNL     1      26.218   4.264  49.280  1.00  0.00     0.045 A 
HETATM   13  C14 UNL     1      25.185   4.853  50.005  1.00  0.00     0.130 A 
HETATM   14  F1  UNL     1      24.673   6.045  49.619  1.00  0.00    -0.205 F 
HETATM   15  C15 UNL     1      24.665   4.244  51.124  1.00  0.00     0.086 A 
HETATM   16  C17 UNL     1      25.187   3.034  51.516  1.00  0.00     0.048 A 
BRANCH  15  17
HETATM   17  C16 UNL     1      23.579   4.900  51.856  1.00  0.00     0.466 C 
HETATM   18  F2  UNL     1      23.062   4.116  52.864  1.00  0.00    -0.168 F 
HETATM   19  F3  UNL     1      22.544   5.148  50.944  1.00  0.00    -0.168 F 
BRANCH  17  20
HETATM   20  N4  UNL     1      23.929   6.205  52.384  1.00  0.00     0.156 N 
HETATM   21  H12 UNL     1      23.307   6.928  51.959  1.00  0.00     0.321 HD
HETATM   22  H13 UNL     1      23.711   6.190  53.405  1.00  0.00     0.321 HD
ENDBRANCH  17  20
ENDBRANCH  15  17
ENDBRANCH   8  10
ENDBRANCH   6   8
BRANCH   1  23
HETATM   23  C6  UNL     1      23.058  -0.696  53.429  1.00  0.00    -0.007 C 
BRANCH  23  24
HETATM   24  C5  UNL     1      21.997   0.273  53.807  1.00  0.00     0.067 C 
BRANCH  24  25
HETATM   25  C4  UNL     1      21.548   0.908  52.527  1.00  0.00    -0.043 C 
HETATM   26  C3  UNL     1      22.379   0.861  51.310  1.00  0.00     0.015 C 
HETATM   27  C2  UNL     1      21.948   1.773  50.427  1.00  0.00    -0.061 C 
HETATM   28  C1  UNL     1      22.373   2.186  49.055  1.00  0.00     0.048 C 
HETATM   29  C20 UNL     1      20.805   2.419  51.108  1.00  0.00     0.019 C 
HETATM   30  C19 UNL     1      20.502   1.586  52.091  1.00  0.00    -0.018 C 
ENDBRANCH  24  25
ENDBRANCH  23  24
ENDBRANCH   1  23
TORSDOF 7
ENDMDL
MODEL 4
REMARK VINA RESULT:      -8.8      3.434      5.778
REMARK  7 active torsions:
REMARK  status: ('A' for Active; 'I' for Inactive)
REMARK    1  A    between atoms: C4_4  and  C5_5 
REMARK    2  A    between atoms: C5_5  and  C6_6 
REMARK    3  A    between atoms: C6_6  and  C7_7 
REMARK    4  A    between atoms: C10_12  and  N3_13 
REMARK    5  A    between atoms: N3_13  and  C11_14 
REMARK    6  A    between atoms: C15_19  and  C16_20 
REMARK    7  A    between atoms: C16_20  and  N4_21 
ROOT
HETATM    1  C7  UNL     1      24.455  -0.443  53.780  1.00  0.00     0.007 A 
HETATM    2  C8  UNL     1      25.785  -0.316  54.323  1.00  0.00     0.084 A 
HETATM    3  N1  UNL     1      26.911  -0.337  55.033  1.00  0.00    -0.240 NA
HETATM    4  C9  UNL     1      28.000   0.269  54.514  1.00  0.00     0.236 A 
HETATM    5  N2  UNL     1      27.865   0.849  53.319  1.00  0.00    -0.223 NA
HETATM    6  C10 UNL     1      26.742   0.881  52.591  1.00  0.00     0.143 A 
HETATM    7  C18 UNL     1      25.595   0.257  53.111  1.00  0.00     0.052 A 
ENDROOT
BRANCH   6   8
HETATM    8  N3  UNL     1      26.666   1.516  51.325  1.00  0.00    -0.340 N 
HETATM    9  H9  UNL     1      27.255   1.086  50.547  1.00  0.00     0.167 HD
BRANCH   8  10
HETATM   10  C11 UNL     1      25.916   2.637  50.955  1.00  0.00     0.034 A 
HETATM   11  C12 UNL     1      24.626   2.920  51.325  1.00  0.00     0.032 A 
HETATM   12  C13 UNL     1      23.890   4.027  50.969  1.00  0.00     0.045 A 
HETATM   13  C14 UNL     1      24.531   4.950  50.147  1.00  0.00     0.130 A 
HETATM   14  F1  UNL     1      23.887   6.070  49.743  1.00  0.00    -0.205 F 
HETATM   15  C15 UNL     1      25.826   4.748  49.726  1.00  0.00     0.086 A 
HETATM   16  C17 UNL     1      26.480   3.610  50.135  1.00  0.00     0.048 A 
BRANCH  15  17
HETATM   17  C16 UNL     1      26.462   5.747  48.863  1.00  0.00     0.466 C 
HETATM   18  F2  UNL     1      25.616   6.234  47.892  1.00  0.00    -0.168 F 
HETATM   19  F3  UNL     1      27.534   5.120  48.210  1.00  0.00    -0.168 F 
BRANCH  17  20
HETATM   20  N4  UNL     1      27.065   6.851  49.585  1.00  0.00     0.156 N 
HETATM   21  H12 UNL     1      26.340   7.579  49.771  1.00  0.00     0.321 HD
HETATM   22  H13 UNL     1      27.359   6.482  50.516  1.00  0.00     0.321 HD
ENDBRANCH  17  20
ENDBRANCH  15  17
ENDBRANCH   8  10
ENDBRANCH   6   8
BRANCH   1  23
HETATM   23  C6  UNL     1      23.188  -0.625  53.377  1.00  0.00    -0.007 C 
BRANCH  23  24
HETATM   24  C5  UNL     1      22.136   0.300  53.872  1.00  0.00     0.067 C 
BRANCH  24  25
HETATM   25  C4  UNL     1      21.447   0.828  52.652  1.00  0.00    -0.043 C 
HETATM   26  C3  UNL     1      21.752   0.307  51.308  1.00  0.00     0.015 C 
HETATM   27  C2  UNL     1      21.291   1.151  50.374  1.00  0.00    -0.061 C 
HETATM   28  C1  UNL     1      21.298   1.167  48.880  1.00  0.00     0.048 C 
HETATM   29  C20 UNL     1      20.673   2.245  51.154  1.00  0.00     0.019 C 
HETATM   30  C19 UNL     1      20.530   1.735  52.367  1.00  0.00    -0.018 C 
ENDBRANCH  24  25
ENDBRANCH  23  24
ENDBRANCH   1  23
TORSDOF 7
ENDMDL
MODEL 5
REMARK VINA RESULT:      -8.8      3.211      5.983
REMARK  7 active torsions:
REMARK  status: ('A' for Active; 'I' for Inactive)
REMARK    1  A    between atoms: C4_4  and  C5_5 
REMARK    2  A    between atoms: C5_5  and  C6_6 
REMARK    3  A    between atoms: C6_6  and  C7_7 
REMARK    4  A    between atoms: C10_12  and  N3_13 
REMARK    5  A    between atoms: N3_13  and  C11_14 
REMARK    6  A    between atoms: C15_19  and  C16_20 
REMARK    7  A    between atoms: C16_20  and  N4_21 
ROOT
HETATM    1  C7  UNL     1      26.350  -0.245  54.172  1.00  0.00     0.007 A 
HETATM    2  C8  UNL     1      27.586   0.467  54.386  1.00  0.00     0.084 A 
HETATM    3  N1  UNL     1      28.768   0.939  54.777  1.00  0.00    -0.240 NA
HETATM    4  C9  UNL     1      29.257   2.028  54.145  1.00  0.00     0.236 A 
HETATM    5  N2  UNL     1      28.513   2.553  53.169  1.00  0.00    -0.223 NA
HETATM    6  C10 UNL     1      27.324   2.093  52.762  1.00  0.00     0.143 A 
HETATM    7  C18 UNL     1      26.794   0.961  53.405  1.00  0.00     0.052 A 
ENDROOT
BRANCH   6   8
HETATM    8  N3  UNL     1      26.583   2.700  51.715  1.00  0.00    -0.340 N 
HETATM    9  H9  UNL     1      27.146   3.033  50.873  1.00  0.00     0.167 HD
BRANCH   8  10
HETATM   10  C11 UNL     1      25.203   2.919  51.636  1.00  0.00     0.034 A 
HETATM   11  C12 UNL     1      24.360   3.220  52.675  1.00  0.00     0.032 A 
HETATM   12  C13 UNL     1      23.004   3.444  52.597  1.00  0.00     0.045 A 
HETATM   13  C14 UNL     1      22.441   3.355  51.326  1.00  0.00     0.130 A 
HETATM   14  F1  UNL     1      21.114   3.560  51.151  1.00  0.00    -0.205 F 
HETATM   15  C15 UNL     1      23.212   3.059  50.226  1.00  0.00     0.086 A 
HETATM   16  C17 UNL     1      24.559   2.850  50.405  1.00  0.00     0.048 A 
BRANCH  15  17
HETATM   17  C16 UNL     1      22.577   2.976  48.908  1.00  0.00     0.466 C 
HETATM   18  F2  UNL     1      21.460   2.172  48.900  1.00  0.00    -0.168 F 
HETATM   19  F3  UNL     1      23.509   2.410  48.025  1.00  0.00    -0.168 F 
BRANCH  17  20
HETATM   20  N4  UNL     1      22.255   4.267  48.328  1.00  0.00     0.156 N 
HETATM   21  H12 UNL     1      22.554   4.281  47.329  1.00  0.00     0.321 HD
HETATM   22  H13 UNL     1      21.214   4.349  48.327  1.00  0.00     0.321 HD
ENDBRANCH  17  20
ENDBRANCH  15  17
ENDBRANCH   8  10
ENDBRANCH   6   8
BRANCH   1  23
HETATM   23  C6  UNL     1      25.235  -0.984  54.063  1.00  0.00    -0.007 C 
BRANCH  23  24
HETATM   24  C5  UNL     1      24.188  -0.864  55.110  1.00  0.00     0.067 C 
BRANCH  24  25
HETATM   25  C4  UNL     1      22.878  -0.902  54.386  1.00  0.00    -0.043 C 
HETATM   26  C3  UNL     1      22.741  -0.387  53.012  1.00  0.00     0.015 C 
HETATM   27  C2  UNL     1      21.445  -0.205  52.718  1.00  0.00    -0.061 C 
HETATM   28  C1  UNL     1      20.700   0.281  51.518  1.00  0.00     0.048 C 
HETATM   29  C20 UNL     1      20.738  -0.619  53.949  1.00  0.00     0.019 C 
HETATM   30  C19 UNL     1      21.644  -1.307  54.626  1.00  0.00    -0.018 C 
ENDBRANCH  24  25
ENDBRANCH  23  24
ENDBRANCH   1  23
TORSDOF 7
ENDMDL
MODEL 6
REMARK VINA RESULT:      -8.4      1.565      2.242
REMARK  7 active torsions:
REMARK  status: ('A' for Active; 'I' for Inactive)
REMARK    1  A    between atoms: C4_4  and  C5_5 
REMARK    2  A    between atoms: C5_5  and  C6_6 
REMARK    3  A    between atoms: C6_6  and  C7_7 
REMARK    4  A    between atoms: C10_12  and  N3_13 
REMARK    5  A    between atoms: N3_13  and  C11_14 
REMARK    6  A    between atoms: C15_19  and  C16_20 
REMARK    7  A    between atoms: C16_20  and  N4_21 
ROOT
HETATM    1  C7  UNL     1      22.576   2.384  50.682  1.00  0.00     0.007 A 
HETATM    2  C8  UNL     1      23.552   3.117  49.913  1.00  0.00     0.084 A 
HETATM    3  N1  UNL     1      24.254   3.809  49.019  1.00  0.00    -0.240 NA
HETATM    4  C9  UNL     1      25.531   4.126  49.323  1.00  0.00     0.236 A 
HETATM    5  N2  UNL     1      25.997   3.718  50.506  1.00  0.00    -0.223 NA
HETATM    6  C10 UNL     1      25.306   3.021  51.417  1.00  0.00     0.143 A 
HETATM    7  C18 UNL     1      23.975   2.679  51.122  1.00  0.00     0.052 A 
ENDROOT
BRANCH   6   8
HETATM    8  N3  UNL     1      25.862   2.617  52.658  1.00  0.00    -0.340 N 
HETATM    9  H9  UNL     1      25.475   3.101  53.526  1.00  0.00     0.167 HD
BRANCH   8  10
HETATM   10  C11 UNL     1      26.855   1.661  52.900  1.00  0.00     0.034 A 
HETATM   11  C12 UNL     1      28.131   1.898  53.345  1.00  0.00     0.032 A 
HETATM   12  C13 UNL     1      29.105   0.958  53.591  1.00  0.00     0.045 A 
HETATM   13  C14 UNL     1      28.749  -0.369  53.362  1.00  0.00     0.130 A 
HETATM   14  F1  UNL     1      29.641  -1.363  53.576  1.00  0.00    -0.205 F 
HETATM   15  C15 UNL     1      27.490  -0.699  52.915  1.00  0.00     0.086 A 
HETATM   16  C17 UNL     1      26.583   0.311  52.697  1.00  0.00     0.048 A 
BRANCH  15  17
HETATM   17  C16 UNL     1      27.157  -2.108  52.689  1.00  0.00     0.466 C 
HETATM   18  F2  UNL     1      26.703  -2.354  51.412  1.00  0.00    -0.168 F 
HETATM   19  F3  UNL     1      26.124  -2.446  53.575  1.00  0.00    -0.168 F 
BRANCH  17  20
HETATM   20  N4  UNL     1      28.235  -3.026  53.009  1.00  0.00     0.156 N 
HETATM   21  H12 UNL     1      28.486  -3.575  52.157  1.00  0.00     0.321 HD
HETATM   22  H13 UNL     1      29.070  -2.445  53.244  1.00  0.00     0.321 HD
ENDBRANCH  17  20
ENDBRANCH  15  17
ENDBRANCH   8  10
ENDBRANCH   6   8
BRANCH   1  23
HETATM   23  C6  UNL     1      21.589   1.720  51.304  1.00  0.00    -0.007 C 
BRANCH  23  24
HETATM   24  C5  UNL     1      21.589   0.235  51.271  1.00  0.00     0.067 C 
BRANCH  24  25
HETATM   25  C4  UNL     1      21.650  -0.207  52.700  1.00  0.00    -0.043 C 
HETATM   26  C3  UNL     1      22.925  -0.262  53.436  1.00  0.00     0.015 C 
HETATM   27  C2  UNL     1      22.783  -1.003  54.545  1.00  0.00    -0.061 C 
HETATM   28  C1  UNL     1      23.692  -1.410  55.658  1.00  0.00     0.048 C 
HETATM   29  C20 UNL     1      21.368  -1.431  54.509  1.00  0.00     0.019 C 
HETATM   30  C19 UNL     1      20.806  -0.617  53.630  1.00  0.00    -0.018 C 
ENDBRANCH  24  25
ENDBRANCH  23  24
ENDBRANCH   1  23
TORSDOF 7
ENDMDL
MODEL 7
REMARK VINA RESULT:      -8.3      1.663      2.393
REMARK  7 active torsions:
REMARK  status: ('A' for Active; 'I' for Inactive)
REMARK    1  A    between atoms: C4_4  and  C5_5 
REMARK    2  A    between atoms: C5_5  and  C6_6 
REMARK    3  A    between atoms: C6_6  and  C7_7 
REMARK    4  A    between atoms: C10_12  and  N3_13 
REMARK    5  A    between atoms: N3_13  and  C11_14 
REMARK    6  A    between atoms: C15_19  and  C16_20 
REMARK    7  A    between atoms: C16_20  and  N4_21 
ROOT
HETATM    1  C7  UNL     1      22.494   2.760  51.900  1.00  0.00     0.007 A 
HETATM    2  C8  UNL     1      22.661   4.151  51.559  1.00  0.00     0.084 A 
HETATM    3  N1  UNL     1      22.547   5.449  51.286  1.00  0.00    -0.240 NA
HETATM    4  C9  UNL     1      23.664   6.126  50.943  1.00  0.00     0.236 A 
HETATM    5  N2  UNL     1      24.807   5.437  50.901  1.00  0.00    -0.223 NA
HETATM    6  C10 UNL     1      24.941   4.133  51.171  1.00  0.00     0.143 A 
HETATM    7  C18 UNL     1      23.792   3.407  51.531  1.00  0.00     0.052 A 
ENDROOT
BRANCH   6   8
HETATM    8  N3  UNL     1      26.188   3.459  51.108  1.00  0.00    -0.340 N 
HETATM    9  H9  UNL     1      26.956   3.944  50.549  1.00  0.00     0.167 HD
BRANCH   8  10
HETATM   10  C11 UNL     1      26.550   2.237  51.686  1.00  0.00     0.034 A 
HETATM   11  C12 UNL     1      25.959   1.019  51.466  1.00  0.00     0.032 A 
HETATM   12  C13 UNL     1      26.320  -0.185  52.027  1.00  0.00     0.045 A 
HETATM   13  C14 UNL     1      27.398  -0.152  52.907  1.00  0.00     0.130 A 
HETATM   14  F1  UNL     1      27.825  -1.286  53.509  1.00  0.00    -0.205 F 
HETATM   15  C15 UNL     1      28.051   1.027  53.187  1.00  0.00     0.086 A 
HETATM   16  C17 UNL     1      27.617   2.180  52.577  1.00  0.00     0.048 A 
BRANCH  15  17
HETATM   17  C16 UNL     1      29.182   1.016  54.119  1.00  0.00     0.466 C 
HETATM   18  F2  UNL     1      30.231   0.239  53.681  1.00  0.00    -0.168 F 
HETATM   19  F3  UNL     1      28.728   0.467  55.327  1.00  0.00    -0.168 F 
BRANCH  17  20
HETATM   20  N4  UNL     1      29.667   2.337  54.472  1.00  0.00     0.156 N 
HETATM   21  H12 UNL     1      29.008   2.776  55.153  1.00  0.00     0.321 HD
HETATM   22  H13 UNL     1      30.571   2.205  54.978  1.00  0.00     0.321 HD
ENDBRANCH  17  20
ENDBRANCH  15  17
ENDBRANCH   8  10
ENDBRANCH   6   8
BRANCH   1  23
HETATM   23  C6  UNL     1      22.220   1.489  52.233  1.00  0.00    -0.007 C 
BRANCH  23  24
HETATM   24  C5  UNL     1      21.750   0.554  51.178  1.00  0.00     0.067 C 
BRANCH  24  25
HETATM   25  C4  UNL     1      20.272   0.422  51.375  1.00  0.00    -0.043 C 
HETATM   26  C3  UNL     1      19.708  -0.215  52.579  1.00  0.00     0.015 C 
HETATM   27  C2  UNL     1      18.421  -0.528  52.371  1.00  0.00    -0.061 C 
HETATM   28  C1  UNL     1      17.353  -1.172  53.193  1.00  0.00     0.048 C 
HETATM   29  C20 UNL     1      18.162  -0.074  50.988  1.00  0.00     0.019 C 
HETATM   30  C19 UNL     1      19.170   0.741  50.721  1.00  0.00    -0.018 C 
ENDBRANCH  24  25
ENDBRANCH  23  24
ENDBRANCH   1  23
TORSDOF 7
ENDMDL
MODEL 8
REMARK VINA RESULT:      -8.1      3.691      5.732
REMARK  7 active torsions:
REMARK  status: ('A' for Active; 'I' for Inactive)
REMARK    1  A    between atoms: C4_4  and  C5_5 
REMARK    2  A    between atoms: C5_5  and  C6_6 
REMARK    3  A    between atoms: C6_6  and  C7_7 
REMARK    4  A    between atoms: C10_12  and  N3_13 
REMARK    5  A    between atoms: N3_13  and  C11_14 
REMARK    6  A    between atoms: C15_19  and  C16_20 
REMARK    7  A    between atoms: C16_20  and  N4_21 
ROOT
HETATM    1  C7  UNL     1      22.815   2.123  52.646  1.00  0.00     0.007 A 
HETATM    2  C8  UNL     1      21.528   2.748  52.458  1.00  0.00     0.084 A 
HETATM    3  N1  UNL     1      20.285   3.218  52.526  1.00  0.00    -0.240 NA
HETATM    4  C9  UNL     1      19.826   3.953  51.490  1.00  0.00     0.236 A 
HETATM    5  N2  UNL     1      20.660   4.155  50.467  1.00  0.00    -0.223 NA
HETATM    6  C10 UNL     1      21.913   3.690  50.380  1.00  0.00     0.143 A 
HETATM    7  C18 UNL     1      22.412   2.922  51.447  1.00  0.00     0.052 A 
ENDROOT
BRANCH   6   8
HETATM    8  N3  UNL     1      22.749   3.942  49.262  1.00  0.00    -0.340 N 
HETATM    9  H9  UNL     1      22.263   3.996  48.315  1.00  0.00     0.167 HD
BRANCH   8  10
HETATM   10  C11 UNL     1      24.135   4.131  49.234  1.00  0.00     0.034 A 
HETATM   11  C12 UNL     1      25.097   3.186  49.486  1.00  0.00     0.032 A 
HETATM   12  C13 UNL     1      26.461   3.369  49.450  1.00  0.00     0.045 A 
HETATM   13  C14 UNL     1      26.898   4.650  49.123  1.00  0.00     0.130 A 
HETATM   14  F1  UNL     1      28.222   4.926  49.064  1.00  0.00    -0.205 F 
HETATM   15  C15 UNL     1      26.003   5.660  48.854  1.00  0.00     0.086 A 
HETATM   16  C17 UNL     1      24.659   5.380  48.915  1.00  0.00     0.048 A 
BRANCH  15  17
HETATM   17  C16 UNL     1      26.508   6.993  48.513  1.00  0.00     0.466 C 
HETATM   18  F2  UNL     1      25.528   7.829  48.026  1.00  0.00    -0.168 F 
HETATM   19  F3  UNL     1      27.467   6.835  47.501  1.00  0.00    -0.168 F 
BRANCH  17  20
HETATM   20  N4  UNL     1      27.217   7.649  49.596  1.00  0.00     0.156 N 
HETATM   21  H12 UNL     1      26.527   8.098  50.238  1.00  0.00     0.321 HD
HETATM   22  H13 UNL     1      27.691   6.899  50.147  1.00  0.00     0.321 HD
ENDBRANCH  17  20
ENDBRANCH  15  17
ENDBRANCH   8  10
ENDBRANCH   6   8
BRANCH   1  23
HETATM   23  C6  UNL     1      23.970   1.503  52.930  1.00  0.00    -0.007 C 
BRANCH  23  24
HETATM   24  C5  UNL     1      23.948   0.051  53.247  1.00  0.00     0.067 C 
BRANCH  24  25
HETATM   25  C4  UNL     1      25.381  -0.362  53.377  1.00  0.00    -0.043 C 
HETATM   26  C3  UNL     1      26.252   0.196  54.427  1.00  0.00     0.015 C 
HETATM   27  C2  UNL     1      27.537  -0.044  54.131  1.00  0.00    -0.061 C 
HETATM   28  C1  UNL     1      28.841   0.266  54.791  1.00  0.00     0.048 C 
HETATM   29  C20 UNL     1      27.478  -0.779  52.849  1.00  0.00     0.019 C 
HETATM   30  C19 UNL     1      26.219  -1.178  52.763  1.00  0.00    -0.018 C 
ENDBRANCH  24  25
ENDBRANCH  23  24
ENDBRANCH   1  23
TORSDOF 7
ENDMDL
MODEL 9
REMARK VINA RESULT:      -8.1      1.636      2.847
REMARK  7 active torsions:
REMARK  status: ('A' for Active; 'I' for Inactive)
REMARK    1  A    between atoms: C4_4  and  C5_5 
REMARK    2  A    between atoms: C5_5  and  C6_6 
REMARK    3  A    between atoms: C6_6  and  C7_7 
REMARK    4  A    between atoms: C10_12  and  N3_13 
REMARK    5  A    between atoms: N3_13  and  C11_14 
REMARK    6  A    between atoms: C15_19  and  C16_20 
REMARK    7  A    between atoms: C16_20  and  N4_21 
ROOT
HETATM    1  C7  UNL     1      23.224   1.724  52.023  1.00  0.00     0.007 A 
HETATM    2  C8  UNL     1      23.240   2.405  50.752  1.00  0.00     0.084 A 
HETATM    3  N1  UNL     1      22.997   2.956  49.565  1.00  0.00    -0.240 NA
HETATM    4  C9  UNL     1      24.006   3.607  48.948  1.00  0.00     0.236 A 
HETATM    5  N2  UNL     1      25.182   3.649  49.579  1.00  0.00    -0.223 NA
HETATM    6  C10 UNL     1      25.446   3.101  50.771  1.00  0.00     0.143 A 
HETATM    7  C18 UNL     1      24.411   2.418  51.433  1.00  0.00     0.052 A 
ENDROOT
BRANCH   6   8
HETATM    8  N3  UNL     1      26.721   3.183  51.389  1.00  0.00    -0.340 N 
HETATM    9  H9  UNL     1      27.285   4.065  51.187  1.00  0.00     0.167 HD
BRANCH   8  10
HETATM   10  C11 UNL     1      27.342   2.257  52.234  1.00  0.00     0.034 A 
HETATM   11  C12 UNL     1      28.288   2.525  53.191  1.00  0.00     0.032 A 
HETATM   12  C13 UNL     1      28.893   1.616  54.028  1.00  0.00     0.045 A 
HETATM   13  C14 UNL     1      28.496   0.289  53.882  1.00  0.00     0.130 A 
HETATM   14  F1  UNL     1      29.037  -0.676  54.661  1.00  0.00    -0.205 F 
HETATM   15  C15 UNL     1      27.553  -0.072  52.947  1.00  0.00     0.086 A 
HETATM   16  C17 UNL     1      27.004   0.909  52.155  1.00  0.00     0.048 A 
BRANCH  15  17
HETATM   17  C16 UNL     1      27.164  -1.479  52.827  1.00  0.00     0.466 C 
HETATM   18  F2  UNL     1      28.231  -2.342  52.948  1.00  0.00    -0.168 F 
HETATM   19  F3  UNL     1      26.619  -1.660  51.548  1.00  0.00    -0.168 F 
BRANCH  17  20
HETATM   20  N4  UNL     1      26.108  -1.878  53.739  1.00  0.00     0.156 N 
HETATM   21  H12 UNL     1      25.506  -1.052  53.953  1.00  0.00     0.321 HD
HETATM   22  H13 UNL     1      25.506  -2.561  53.228  1.00  0.00     0.321 HD
ENDBRANCH  17  20
ENDBRANCH  15  17
ENDBRANCH   8  10
ENDBRANCH   6   8
BRANCH   1  23
HETATM   23  C6  UNL     1      23.089   1.065  53.185  1.00  0.00    -0.007 C 
BRANCH  23  24
HETATM   24  C5  UNL     1      22.625  -0.346  53.162  1.00  0.00     0.067 C 
BRANCH  24  25
HETATM   25  C4  UNL     1      21.129  -0.285  53.135  1.00  0.00    -0.043 C 
HETATM   26  C3  UNL     1      20.303  -1.322  53.777  1.00  0.00     0.015 C 
HETATM   27  C2  UNL     1      19.042  -1.247  53.328  1.00  0.00    -0.061 C 
HETATM   28  C1  UNL     1      17.785  -2.007  53.600  1.00  0.00     0.048 C 
HETATM   29  C20 UNL     1      19.072  -0.123  52.368  1.00  0.00     0.019 C 
HETATM   30  C19 UNL     1      20.196   0.515  52.651  1.00  0.00    -0.018 C 
ENDBRANCH  24  25
ENDBRANCH  23  24
ENDBRANCH   1  23
TORSDOF 7
ENDMDL
