MODEL 1
REMARK VINA RESULT:      -9.0      0.000      0.000
REMARK  3 active torsions:
REMARK  status: ('A' for Active; 'I' for Inactive)
REMARK    1  A    between atoms: N1_1  and  C1_2 
REMARK    2  A    between atoms: N2_3  and  C2_4 
REMARK    3  A    between atoms: C3_5  and  C4_6 
ROOT
HETATM    1  C2  UNL     1      24.853   1.791  53.089  1.00  0.00     0.179 C 
HETATM    2  C3  UNL     1      24.398   0.518  53.102  1.00  0.00     0.033 C 
HETATM    3  C10 UNL     1      25.363  -0.645  53.086  1.00  0.00     0.315 C 
HETATM    4  N3  UNL     1      26.104  -0.600  54.297  1.00  0.00     0.102 N 
HETATM    5  C11 UNL     1      27.323   0.139  54.269  1.00  0.00     0.300 C 
HETATM    6  C12 UNL     1      28.476  -0.561  53.654  1.00  0.00     0.011 C 
HETATM    7  C13 UNL     1      29.608   0.135  53.699  1.00  0.00    -0.024 C 
HETATM    8  C14 UNL     1      29.565   1.486  54.341  1.00  0.00     0.056 C 
HETATM    9  C15 UNL     1      28.381   2.170  53.714  1.00  0.00     0.012 C 
HETATM   10  C16 UNL     1      27.233   1.478  53.680  1.00  0.00     0.088 C 
HETATM   11  O1  UNL     1      26.192   2.219  53.071  1.00  0.00    -0.293 OA
HETATM   12  H9  UNL     1      26.280  -1.559  54.613  1.00  0.00     0.317 HD
ENDROOT
BRANCH   2  13
HETATM   13  C4  UNL     1      22.994   0.133  53.123  1.00  0.00    -0.022 A 
HETATM   14  C5  UNL     1      22.757  -0.631  54.277  1.00  0.00     0.015 A 
HETATM   15  C6  UNL     1      21.501  -1.149  54.548  1.00  0.00     0.045 A 
HETATM   16  C7  UNL     1      20.447  -0.921  53.683  1.00  0.00     0.138 A 
HETATM   17  F1  UNL     1      19.206  -1.396  53.886  1.00  0.00    -0.204 F 
HETATM   18  C8  UNL     1      20.677  -0.175  52.558  1.00  0.00     0.073 A 
HETATM   19 CL1  UNL     1      19.450   0.200  51.365  1.00  0.00    -0.081 Cl
HETATM   20  C9  UNL     1      21.924   0.338  52.289  1.00  0.00     0.039 A 
ENDBRANCH   2  13
BRANCH   1  21
HETATM   21  N2  UNL     1      23.968   2.906  53.092  1.00  0.00    -0.220 NA
HETATM   22  C1  UNL     1      23.984   3.670  52.052  1.00  0.00     0.203 C 
BRANCH  22  23
HETATM   23  N1  UNL     1      23.135   4.776  52.015  1.00  0.00    -0.394 N 
HETATM   24  H1  UNL     1      22.287   5.376  52.079  1.00  0.00     0.156 HD
HETATM   25  H2  UNL     1      23.830   5.516  51.722  1.00  0.00     0.156 HD
ENDBRANCH  22  23
ENDBRANCH   1  21
TORSDOF 3
ENDMDL
MODEL 2
REMARK VINA RESULT:      -8.4      4.296      6.701
REMARK  3 active torsions:
REMARK  status: ('A' for Active; 'I' for Inactive)
REMARK    1  A    between atoms: N1_1  and  C1_2 
REMARK    2  A    between atoms: N2_3  and  C2_4 
REMARK    3  A    between atoms: C3_5  and  C4_6 
ROOT
HETATM    1  C2  UNL     1      26.045   1.745  51.876  1.00  0.00     0.179 C 
HETATM    2  C3  UNL     1      25.265   2.406  50.991  1.00  0.00     0.033 C 
HETATM    3  C10 UNL     1      23.840   1.969  50.745  1.00  0.00     0.315 C 
HETATM    4  N3  UNL     1      23.119   2.163  51.953  1.00  0.00     0.102 N 
HETATM    5  C11 UNL     1      23.079   1.059  52.854  1.00  0.00     0.300 C 
HETATM    6  C12 UNL     1      22.107  -0.006  52.510  1.00  0.00     0.011 C 
HETATM    7  C13 UNL     1      22.056  -0.990  53.404  1.00  0.00    -0.024 C 
HETATM    8  C14 UNL     1      22.958  -0.892  54.593  1.00  0.00     0.056 C 
HETATM    9  C15 UNL     1      24.313  -0.575  54.021  1.00  0.00     0.012 C 
HETATM   10  C16 UNL     1      24.372   0.426  53.131  1.00  0.00     0.088 C 
HETATM   11  O1  UNL     1      25.691   0.635  52.663  1.00  0.00    -0.293 OA
HETATM   12  H9  UNL     1      22.168   2.467  51.725  1.00  0.00     0.317 HD
ENDROOT
BRANCH   2  13
HETATM   13  C4  UNL     1      25.686   3.555  50.203  1.00  0.00    -0.022 A 
HETATM   14  C5  UNL     1      24.593   4.426  50.063  1.00  0.00     0.015 A 
HETATM   15  C6  UNL     1      24.703   5.603  49.340  1.00  0.00     0.045 A 
HETATM   16  C7  UNL     1      25.899   5.947  48.738  1.00  0.00     0.138 A 
HETATM   17  F1  UNL     1      26.071   7.072  48.022  1.00  0.00    -0.204 F 
HETATM   18  C8  UNL     1      26.965   5.098  48.874  1.00  0.00     0.073 A 
HETATM   19 CL1  UNL     1      28.543   5.391  48.172  1.00  0.00    -0.081 Cl
HETATM   20  C9  UNL     1      26.856   3.930  49.592  1.00  0.00     0.039 A 
ENDBRANCH   2  13
BRANCH   1  21
HETATM   21  N2  UNL     1      27.395   2.126  52.121  1.00  0.00    -0.220 NA
HETATM   22  C1  UNL     1      27.786   2.142  53.350  1.00  0.00     0.203 C 
BRANCH  22  23
HETATM   23  N1  UNL     1      29.101   2.512  53.634  1.00  0.00    -0.394 N 
HETATM   24  H1  UNL     1      29.936   2.912  54.109  1.00  0.00     0.156 HD
HETATM   25  H2  UNL     1      29.580   2.109  52.784  1.00  0.00     0.156 HD
ENDBRANCH  22  23
ENDBRANCH   1  21
TORSDOF 3
ENDMDL
MODEL 3
REMARK VINA RESULT:      -8.3      3.581      6.436
REMARK  3 active torsions:
REMARK  status: ('A' for Active; 'I' for Inactive)
REMARK    1  A    between atoms: N1_1  and  C1_2 
REMARK    2  A    between atoms: N2_3  and  C2_4 
REMARK    3  A    between atoms: C3_5  and  C4_6 
ROOT
HETATM    1  C2  UNL     1      23.955   1.368  52.199  1.00  0.00     0.179 C 
HETATM    2  C3  UNL     1      24.526   0.536  53.098  1.00  0.00     0.033 C 
HETATM    3  C10 UNL     1      23.673  -0.290  54.033  1.00  0.00     0.315 C 
HETATM    4  N3  UNL     1      22.931  -1.203  53.236  1.00  0.00     0.102 N 
HETATM    5  C11 UNL     1      21.649  -0.765  52.794  1.00  0.00     0.300 C 
HETATM    6  C12 UNL     1      20.566  -0.849  53.803  1.00  0.00     0.011 C 
HETATM    7  C13 UNL     1      19.374  -0.487  53.336  1.00  0.00    -0.024 C 
HETATM    8  C14 UNL     1      19.292  -0.057  51.905  1.00  0.00     0.056 C 
HETATM    9  C15 UNL     1      20.407   0.939  51.740  1.00  0.00     0.012 C 
HETATM   10  C16 UNL     1      21.614   0.573  52.196  1.00  0.00     0.088 C 
HETATM   11  O1  UNL     1      22.582   1.584  51.987  1.00  0.00    -0.293 OA
HETATM   12  H9  UNL     1      22.845  -2.090  53.744  1.00  0.00     0.317 HD
ENDROOT
BRANCH   2  13
HETATM   13  C4  UNL     1      25.959   0.351  53.271  1.00  0.00    -0.022 A 
HETATM   14  C5  UNL     1      26.305  -0.927  52.804  1.00  0.00     0.015 A 
HETATM   15  C6  UNL     1      27.612  -1.382  52.862  1.00  0.00     0.045 A 
HETATM   16  C7  UNL     1      28.611  -0.581  53.385  1.00  0.00     0.138 A 
HETATM   17  F1  UNL     1      29.897  -0.963  53.471  1.00  0.00    -0.204 F 
HETATM   18  C8  UNL     1      28.274   0.665  53.840  1.00  0.00     0.073 A 
HETATM   19 CL1  UNL     1      29.421   1.797  54.530  1.00  0.00    -0.081 Cl
HETATM   20  C9  UNL     1      26.977   1.117  53.782  1.00  0.00     0.039 A 
ENDBRANCH   2  13
BRANCH   1  21
HETATM   21  N2  UNL     1      24.732   2.168  51.314  1.00  0.00    -0.220 NA
HETATM   22  C1  UNL     1      24.765   3.436  51.544  1.00  0.00     0.203 C 
BRANCH  22  23
HETATM   23  N1  UNL     1      25.512   4.257  50.698  1.00  0.00    -0.394 N 
HETATM   24  H1  UNL     1      25.991   4.636  49.856  1.00  0.00     0.156 HD
HETATM   25  H2  UNL     1      25.770   5.019  51.383  1.00  0.00     0.156 HD
ENDBRANCH  22  23
ENDBRANCH   1  21
TORSDOF 3
ENDMDL
MODEL 4
REMARK VINA RESULT:      -8.1      3.675      6.592
REMARK  3 active torsions:
REMARK  status: ('A' for Active; 'I' for Inactive)
REMARK    1  A    between atoms: N1_1  and  C1_2 
REMARK    2  A    between atoms: N2_3  and  C2_4 
REMARK    3  A    between atoms: C3_5  and  C4_6 
ROOT
HETATM    1  C2  UNL     1      24.251   0.917  52.822  1.00  0.00     0.179 C 
HETATM    2  C3  UNL     1      25.479   1.169  52.317  1.00  0.00     0.033 C 
HETATM    3  C10 UNL     1      25.674   2.232  51.261  1.00  0.00     0.315 C 
HETATM    4  N3  UNL     1      25.353   3.483  51.852  1.00  0.00     0.102 N 
HETATM    5  C11 UNL     1      23.999   3.913  51.733  1.00  0.00     0.300 C 
HETATM    6  C12 UNL     1      23.632   4.500  50.423  1.00  0.00     0.011 C 
HETATM    7  C13 UNL     1      22.378   4.942  50.369  1.00  0.00    -0.024 C 
HETATM    8  C14 UNL     1      21.538   4.791  51.598  1.00  0.00     0.056 C 
HETATM    9  C15 UNL     1      21.726   3.357  52.016  1.00  0.00     0.012 C 
HETATM   10  C16 UNL     1      22.988   2.911  52.086  1.00  0.00     0.088 C 
HETATM   11  O1  UNL     1      23.043   1.556  52.489  1.00  0.00    -0.293 OA
HETATM   12  H9  UNL     1      25.984   4.198  51.476  1.00  0.00     0.317 HD
ENDROOT
BRANCH   2  13
HETATM   13  C4  UNL     1      26.699   0.474  52.703  1.00  0.00    -0.022 A 
HETATM   14  C5  UNL     1      27.628   1.423  53.159  1.00  0.00     0.015 A 
HETATM   15  C6  UNL     1      28.892   1.043  53.579  1.00  0.00     0.045 A 
HETATM   16  C7  UNL     1      29.268  -0.287  53.558  1.00  0.00     0.138 A 
HETATM   17  F1  UNL     1      30.479  -0.721  53.950  1.00  0.00    -0.204 F 
HETATM   18  C8  UNL     1      28.362  -1.213  53.113  1.00  0.00     0.073 A 
HETATM   19 CL1  UNL     1      28.686  -2.933  53.024  1.00  0.00    -0.081 Cl
HETATM   20  C9  UNL     1      27.108  -0.836  52.697  1.00  0.00     0.039 A 
ENDBRANCH   2  13
BRANCH   1  21
HETATM   21  N2  UNL     1      24.034  -0.086  53.808  1.00  0.00    -0.220 NA
HETATM   22  C1  UNL     1      22.814  -0.446  54.020  1.00  0.00     0.203 C 
BRANCH  22  23
HETATM   23  N1  UNL     1      22.556  -1.425  54.981  1.00  0.00    -0.394 N 
HETATM   24  H1  UNL     1      22.412  -1.901  55.895  1.00  0.00     0.156 HD
HETATM   25  H2  UNL     1      22.397  -2.252  54.344  1.00  0.00     0.156 HD
ENDBRANCH  22  23
ENDBRANCH   1  21
TORSDOF 3
ENDMDL
MODEL 5
REMARK VINA RESULT:      -8.0      3.766      6.451
REMARK  3 active torsions:
REMARK  status: ('A' for Active; 'I' for Inactive)
REMARK    1  A    between atoms: N1_1  and  C1_2 
REMARK    2  A    between atoms: N2_3  and  C2_4 
REMARK    3  A    between atoms: C3_5  and  C4_6 
ROOT
HETATM    1  C2  UNL     1      24.406   2.659  51.746  1.00  0.00     0.179 C 
HETATM    2  C3  UNL     1      25.660   2.333  51.359  1.00  0.00     0.033 C 
HETATM    3  C10 UNL     1      26.294   3.003  50.162  1.00  0.00     0.315 C 
HETATM    4  N3  UNL     1      26.447   4.379  50.477  1.00  0.00     0.102 N 
HETATM    5  C11 UNL     1      25.367   5.237  50.118  1.00  0.00     0.300 C 
HETATM    6  C12 UNL     1      25.313   5.626  48.689  1.00  0.00     0.011 C 
HETATM    7  C13 UNL     1      24.328   6.473  48.404  1.00  0.00    -0.024 C 
HETATM    8  C14 UNL     1      23.437   6.901  49.527  1.00  0.00     0.056 C 
HETATM    9  C15 UNL     1      23.044   5.621  50.214  1.00  0.00     0.012 C 
HETATM   10  C16 UNL     1      24.036   4.771  50.517  1.00  0.00     0.088 C 
HETATM   11  O1  UNL     1      23.550   3.608  51.159  1.00  0.00    -0.293 OA
HETATM   12  H9  UNL     1      27.321   4.718  50.061  1.00  0.00     0.317 HD
ENDROOT
BRANCH   2  13
HETATM   13  C4  UNL     1      26.502   1.340  52.010  1.00  0.00    -0.022 A 
HETATM   14  C5  UNL     1      27.487   2.009  52.755  1.00  0.00     0.015 A 
HETATM   15  C6  UNL     1      28.444   1.308  53.470  1.00  0.00     0.045 A 
HETATM   16  C7  UNL     1      28.450  -0.075  53.465  1.00  0.00     0.138 A 
HETATM   17  F1  UNL     1      29.351  -0.814  54.135  1.00  0.00    -0.204 F 
HETATM   18  C8  UNL     1      27.490  -0.727  52.739  1.00  0.00     0.073 A 
HETATM   19 CL1  UNL     1      27.363  -2.472  52.631  1.00  0.00    -0.081 Cl
HETATM   20  C9  UNL     1      26.540  -0.031  52.030  1.00  0.00     0.039 A 
ENDBRANCH   2  13
BRANCH   1  21
HETATM   21  N2  UNL     1      23.777   2.037  52.862  1.00  0.00    -0.220 NA
HETATM   22  C1  UNL     1      22.864   1.162  52.608  1.00  0.00     0.203 C 
BRANCH  22  23
HETATM   23  N1  UNL     1      22.220   0.530  53.672  1.00  0.00    -0.394 N 
HETATM   24  H1  UNL     1      21.645  -0.138  54.226  1.00  0.00     0.156 HD
HETATM   25  H2  UNL     1      22.526   1.165  54.459  1.00  0.00     0.156 HD
ENDBRANCH  22  23
ENDBRANCH   1  21
TORSDOF 3
ENDMDL
MODEL 6
REMARK VINA RESULT:      -7.9      2.496      3.578
REMARK  3 active torsions:
REMARK  status: ('A' for Active; 'I' for Inactive)
REMARK    1  A    between atoms: N1_1  and  C1_2 
REMARK    2  A    between atoms: N2_3  and  C2_4 
REMARK    3  A    between atoms: C3_5  and  C4_6 
ROOT
HETATM    1  C2  UNL     1      24.410   0.410  53.212  1.00  0.00     0.179 C 
HETATM    2  C3  UNL     1      24.240   1.558  52.519  1.00  0.00     0.033 C 
HETATM    3  C10 UNL     1      25.309   2.626  52.524  1.00  0.00     0.315 C 
HETATM    4  N3  UNL     1      26.457   2.082  51.888  1.00  0.00     0.102 N 
HETATM    5  C11 UNL     1      27.402   1.429  52.732  1.00  0.00     0.300 C 
HETATM    6  C12 UNL     1      28.311   2.329  53.481  1.00  0.00     0.011 C 
HETATM    7  C13 UNL     1      29.216   1.683  54.211  1.00  0.00    -0.024 C 
HETATM    8  C14 UNL     1      29.193   0.187  54.180  1.00  0.00     0.056 C 
HETATM    9  C15 UNL     1      27.753  -0.178  54.419  1.00  0.00     0.012 C 
HETATM   10  C16 UNL     1      26.837   0.459  53.675  1.00  0.00     0.088 C 
HETATM   11  O1  UNL     1      25.523   0.036  53.985  1.00  0.00    -0.293 OA
HETATM   12  H9  UNL     1      26.917   2.822  51.348  1.00  0.00     0.317 HD
ENDROOT
BRANCH   2  13
HETATM   13  C4  UNL     1      23.061   1.891  51.732  1.00  0.00    -0.022 A 
HETATM   14  C5  UNL     1      22.214   2.693  52.514  1.00  0.00     0.015 A 
HETATM   15  C6  UNL     1      21.001   3.147  52.020  1.00  0.00     0.045 A 
HETATM   16  C7  UNL     1      20.598   2.820  50.739  1.00  0.00     0.138 A 
HETATM   17  F1  UNL     1      19.435   3.226  50.202  1.00  0.00    -0.204 F 
HETATM   18  C8  UNL     1      21.425   2.039  49.976  1.00  0.00     0.073 A 
HETATM   19 CL1  UNL     1      21.058   1.537  48.338  1.00  0.00    -0.081 Cl
HETATM   20  C9  UNL     1      22.628   1.588  50.466  1.00  0.00     0.039 A 
ENDBRANCH   2  13
BRANCH   1  21
HETATM   21  N2  UNL     1      23.415  -0.609  53.236  1.00  0.00    -0.220 NA
HETATM   22  C1  UNL     1      22.791  -0.793  54.350  1.00  0.00     0.203 C 
BRANCH  22  23
HETATM   23  N1  UNL     1      21.811  -1.783  54.418  1.00  0.00    -0.394 N 
HETATM   24  H1  UNL     1      21.301  -2.656  54.664  1.00  0.00     0.156 HD
HETATM   25  H2  UNL     1      21.085  -1.350  53.784  1.00  0.00     0.156 HD
ENDBRANCH  22  23
ENDBRANCH   1  21
TORSDOF 3
ENDMDL
MODEL 7
REMARK VINA RESULT:      -7.4      3.742      5.954
REMARK  3 active torsions:
REMARK  status: ('A' for Active; 'I' for Inactive)
REMARK    1  A    between atoms: N1_1  and  C1_2 
REMARK    2  A    between atoms: N2_3  and  C2_4 
REMARK    3  A    between atoms: C3_5  and  C4_6 
ROOT
HETATM    1  C2  UNL     1      23.496   3.090  49.797  1.00  0.00     0.179 C 
HETATM    2  C3  UNL     1      24.562   2.782  50.570  1.00  0.00     0.033 C 
HETATM    3  C10 UNL     1      25.869   3.524  50.410  1.00  0.00     0.315 C 
HETATM    4  N3  UNL     1      25.638   4.876  50.779  1.00  0.00     0.102 N 
HETATM    5  C11 UNL     1      25.250   5.763  49.732  1.00  0.00     0.300 C 
HETATM    6  C12 UNL     1      26.353   6.244  48.867  1.00  0.00     0.011 C 
HETATM    7  C13 UNL     1      25.962   7.114  47.939  1.00  0.00    -0.024 C 
HETATM    8  C14 UNL     1      24.511   7.474  47.897  1.00  0.00     0.056 C 
HETATM    9  C15 UNL     1      23.788   6.155  47.926  1.00  0.00     0.012 C 
HETATM   10  C16 UNL     1      24.168   5.281  48.869  1.00  0.00     0.088 C 
HETATM   11  O1  UNL     1      23.421   4.081  48.802  1.00  0.00    -0.293 OA
HETATM   12  H9  UNL     1      26.471   5.235  51.255  1.00  0.00     0.317 HD
ENDROOT
BRANCH   2  13
HETATM   13  C4  UNL     1      24.581   1.743  51.589  1.00  0.00    -0.022 A 
HETATM   14  C5  UNL     1      25.905   1.305  51.756  1.00  0.00     0.015 A 
HETATM   15  C6  UNL     1      26.218   0.301  52.659  1.00  0.00     0.045 A 
HETATM   16  C7  UNL     1      25.229  -0.292  53.420  1.00  0.00     0.138 A 
HETATM   17  F1  UNL     1      25.466  -1.271  54.311  1.00  0.00    -0.204 F 
HETATM   18  C8  UNL     1      23.938   0.136  53.258  1.00  0.00     0.073 A 
HETATM   19 CL1  UNL     1      22.574  -0.516  54.145  1.00  0.00    -0.081 Cl
HETATM   20  C9  UNL     1      23.627   1.131  52.362  1.00  0.00     0.039 A 
ENDBRANCH   2  13
BRANCH   1  21
HETATM   21  N2  UNL     1      22.256   2.401  49.915  1.00  0.00    -0.220 NA
HETATM   22  C1  UNL     1      21.705   1.994  48.823  1.00  0.00     0.203 C 
BRANCH  22  23
HETATM   23  N1  UNL     1      20.487   1.316  48.894  1.00  0.00    -0.394 N 
HETATM   24  H1  UNL     1      19.760   0.576  48.816  1.00  0.00     0.156 HD
HETATM   25  H2  UNL     1      19.892   2.077  49.322  1.00  0.00     0.156 HD
ENDBRANCH  22  23
ENDBRANCH   1  21
TORSDOF 3
ENDMDL
MODEL 8
REMARK VINA RESULT:      -7.3      4.294      6.334
REMARK  3 active torsions:
REMARK  status: ('A' for Active; 'I' for Inactive)
REMARK    1  A    between atoms: N1_1  and  C1_2 
REMARK    2  A    between atoms: N2_3  and  C2_4 
REMARK    3  A    between atoms: C3_5  and  C4_6 
ROOT
HETATM    1  C2  UNL     1      21.996   2.588  52.053  1.00  0.00     0.179 C 
HETATM    2  C3  UNL     1      23.335   2.772  52.069  1.00  0.00     0.033 C 
HETATM    3  C10 UNL     1      24.212   1.961  52.994  1.00  0.00     0.315 C 
HETATM    4  N3  UNL     1      24.121   0.604  52.586  1.00  0.00     0.102 N 
HETATM    5  C11 UNL     1      23.105  -0.180  53.206  1.00  0.00     0.300 C 
HETATM    6  C12 UNL     1      23.423  -0.668  54.569  1.00  0.00     0.011 C 
HETATM    7  C13 UNL     1      22.477  -1.443  55.092  1.00  0.00    -0.024 C 
HETATM    8  C14 UNL     1      21.260  -1.706  54.262  1.00  0.00     0.056 C 
HETATM    9  C15 UNL     1      20.825  -0.349  53.780  1.00  0.00     0.012 C 
HETATM   10  C16 UNL     1      21.772   0.431  53.239  1.00  0.00     0.088 C 
HETATM   11  O1  UNL     1      21.249   1.678  52.822  1.00  0.00    -0.293 OA
HETATM   12  H9  UNL     1      25.035   0.159  52.711  1.00  0.00     0.317 HD
ENDROOT
BRANCH   2  13
HETATM   13  C4  UNL     1      24.055   3.732  51.245  1.00  0.00    -0.022 A 
HETATM   14  C5  UNL     1      24.840   3.026  50.319  1.00  0.00     0.015 A 
HETATM   15  C6  UNL     1      25.649   3.691  49.412  1.00  0.00     0.045 A 
HETATM   16  C7  UNL     1      25.702   5.072  49.399  1.00  0.00     0.138 A 
HETATM   17  F1  UNL     1      26.467   5.777  48.548  1.00  0.00    -0.204 F 
HETATM   18  C8  UNL     1      24.937   5.761  50.302  1.00  0.00     0.073 A 
HETATM   19 CL1  UNL     1      24.893   7.509  50.415  1.00  0.00    -0.081 Cl
HETATM   20  C9  UNL     1      24.133   5.101  51.202  1.00  0.00     0.039 A 
ENDBRANCH   2  13
BRANCH   1  21
HETATM   21  N2  UNL     1      21.142   3.345  51.201  1.00  0.00    -0.220 NA
HETATM   22  C1  UNL     1      19.956   3.603  51.638  1.00  0.00     0.203 C 
BRANCH  22  23
HETATM   23  N1  UNL     1      19.086   4.340  50.834  1.00  0.00    -0.394 N 
HETATM   24  H1  UNL     1      18.412   4.602  50.086  1.00  0.00     0.156 HD
HETATM   25  H2  UNL     1      19.161   5.278  51.315  1.00  0.00     0.156 HD
ENDBRANCH  22  23
ENDBRANCH   1  21
TORSDOF 3
ENDMDL
MODEL 9
REMARK VINA RESULT:      -7.2      3.218      4.306
REMARK  3 active torsions:
REMARK  status: ('A' for Active; 'I' for Inactive)
REMARK    1  A    between atoms: N1_1  and  C1_2 
REMARK    2  A    between atoms: N2_3  and  C2_4 
REMARK    3  A    between atoms: C3_5  and  C4_6 
ROOT
HETATM    1  C2  UNL     1      22.507   2.729  50.501  1.00  0.00     0.179 C 
HETATM    2  C3  UNL     1      23.195   1.822  51.230  1.00  0.00     0.033 C 
HETATM    3  C10 UNL     1      24.698   1.720  51.113  1.00  0.00     0.315 C 
HETATM    4  N3  UNL     1      25.247   2.940  51.592  1.00  0.00     0.102 N 
HETATM    5  C11 UNL     1      25.453   3.967  50.626  1.00  0.00     0.300 C 
HETATM    6  C12 UNL     1      26.665   3.816  49.787  1.00  0.00     0.011 C 
HETATM    7  C13 UNL     1      26.855   4.823  48.938  1.00  0.00    -0.024 C 
HETATM    8  C14 UNL     1      25.851   5.932  48.946  1.00  0.00     0.056 C 
HETATM    9  C15 UNL     1      24.516   5.242  48.879  1.00  0.00     0.012 C 
HETATM   10  C16 UNL     1      24.314   4.236  49.742  1.00  0.00     0.088 C 
HETATM   11  O1  UNL     1      23.029   3.665  49.590  1.00  0.00    -0.293 OA
HETATM   12  H9  UNL     1      26.123   2.737  52.084  1.00  0.00     0.317 HD
ENDROOT
BRANCH   2  13
HETATM   13  C4  UNL     1      22.600   0.876  52.163  1.00  0.00    -0.022 A 
HETATM   14  C5  UNL     1      23.623   0.315  52.944  1.00  0.00     0.015 A 
HETATM   15  C6  UNL     1      23.344  -0.638  53.911  1.00  0.00     0.045 A 
HETATM   16  C7  UNL     1      22.045  -1.057  54.130  1.00  0.00     0.138 A 
HETATM   17  F1  UNL     1      21.709  -1.977  55.050  1.00  0.00    -0.204 F 
HETATM   18  C8  UNL     1      21.048  -0.509  53.369  1.00  0.00     0.073 A 
HETATM   19 CL1  UNL     1      19.355  -0.935  53.522  1.00  0.00    -0.081 Cl
HETATM   20  C9  UNL     1      21.324   0.436  52.409  1.00  0.00     0.039 A 
ENDBRANCH   2  13
BRANCH   1  21
HETATM   21  N2  UNL     1      21.090   2.841  50.581  1.00  0.00    -0.220 NA
HETATM   22  C1  UNL     1      20.615   3.925  51.093  1.00  0.00     0.203 C 
BRANCH  22  23
HETATM   23  N1  UNL     1      19.232   4.074  51.193  1.00  0.00    -0.394 N 
HETATM   24  H1  UNL     1      18.214   4.041  50.977  1.00  0.00     0.156 HD
HETATM   25  H2  UNL     1      19.178   4.542  52.138  1.00  0.00     0.156 HD
ENDBRANCH  22  23
ENDBRANCH   1  21
TORSDOF 3
ENDMDL
