MODEL 1
REMARK VINA RESULT:      -8.0      0.000      0.000
REMARK  8 active torsions:
REMARK  status: ('A' for Active; 'I' for Inactive)
REMARK    1  A    between atoms: C3_3  and  N1_4 
REMARK    2  A    between atoms: N1_4  and  C4_5 
REMARK    3  A    between atoms: C11_15  and  C12_16 
REMARK    4  A    between atoms: C12_16  and  C13_17 
REMARK    5  A    between atoms: C13_17  and  C14_18 
REMARK    6  A    between atoms: C14_18  and  N4_19 
REMARK       I    between atoms: N4_19  and  C15_20 
REMARK    7  A    between atoms: C15_20  and  C16_22 
REMARK    8  A    between atoms: C16_22  and  N5_23 
ROOT
HETATM    1  C1  UNL     1      26.648   2.961  49.573  1.00  0.00     0.049 C 
HETATM    2  C2  UNL     1      25.731   3.591  50.273  1.00  0.00     0.017 A 
HETATM    3  C3  UNL     1      25.148   2.907  51.317  1.00  0.00     0.138 A 
HETATM    4  N2  UNL     1      24.234   3.627  51.967  1.00  0.00    -0.224 NA
HETATM    5  C10 UNL     1      23.856   4.871  51.714  1.00  0.00     0.235 A 
HETATM    6  N3  UNL     1      24.443   5.501  50.696  1.00  0.00    -0.241 NA
HETATM    7  C11 UNL     1      25.383   4.883  49.960  1.00  0.00     0.068 A 
ENDROOT
BRANCH   7   8
HETATM    8  C12 UNL     1      25.889   5.587  48.991  1.00  0.00     0.034 C 
BRANCH   8   9
HETATM    9  C13 UNL     1      27.008   6.312  48.466  1.00  0.00     0.019 C 
BRANCH   9  10
HETATM   10  C14 UNL     1      28.293   6.307  48.277  1.00  0.00     0.091 C 
BRANCH  10  11
HETATM   11  N4  UNL     1      29.511   5.896  48.837  1.00  0.00    -0.336 N 
HETATM   12  C15 UNL     1      30.824   6.352  48.638  1.00  0.00     0.240 C 
HETATM   13  O1  UNL     1      31.240   7.265  47.891  1.00  0.00    -0.271 OA
HETATM   14  H12 UNL     1      29.643   5.150  49.521  1.00  0.00     0.168 HD
BRANCH  12  15
HETATM   15  C16 UNL     1      32.120   5.930  49.219  1.00  0.00     0.243 C 
BRANCH  15  16
HETATM   16  N5  UNL     1      32.842   5.049  48.331  1.00  0.00    -0.276 N 
HETATM   17  S1  UNL     1      32.150   3.883  47.172  1.00  0.00    -0.021 SA
HETATM   18  C17 UNL     1      33.756   3.272  46.544  1.00  0.00     0.074 A 
HETATM   19  C18 UNL     1      34.671   4.028  47.289  1.00  0.00     0.083 A 
HETATM   20  C19 UNL     1      34.216   4.937  48.203  1.00  0.00     0.254 A 
HETATM   21  O2  UNL     1      34.961   5.655  48.913  1.00  0.00    -0.268 OA
ENDBRANCH  15  16
ENDBRANCH  12  15
ENDBRANCH  10  11
ENDBRANCH   9  10
ENDBRANCH   8   9
ENDBRANCH   7   8
BRANCH   3  22
HETATM   22  N1  UNL     1      25.498   1.575  51.651  1.00  0.00    -0.340 N 
HETATM   23  H3  UNL     1      24.774   0.969  51.231  1.00  0.00     0.167 HD
BRANCH  22  24
HETATM   24  C4  UNL     1      26.604   1.138  52.405  1.00  0.00     0.035 A 
HETATM   25  C5  UNL     1      27.306   2.050  53.154  1.00  0.00     0.029 A 
HETATM   26  C6  UNL     1      28.379   1.552  53.869  1.00  0.00     0.004 A 
HETATM   27  C7  UNL     1      28.730   0.199  53.831  1.00  0.00     0.019 A 
HETATM   28  C8  UNL     1      27.978  -0.675  53.051  1.00  0.00     0.013 A 
HETATM   29 BR1  UNL     1      28.459  -2.510  53.004  1.00  0.00    -0.051 Br
HETATM   30  C9  UNL     1      26.898  -0.207  52.326  1.00  0.00     0.048 A 
ENDBRANCH  22  24
ENDBRANCH   3  22
TORSDOF 8
ENDMDL
MODEL 2
REMARK VINA RESULT:      -7.9      2.770      3.364
REMARK  8 active torsions:
REMARK  status: ('A' for Active; 'I' for Inactive)
REMARK    1  A    between atoms: C3_3  and  N1_4 
REMARK    2  A    between atoms: N1_4  and  C4_5 
REMARK    3  A    between atoms: C11_15  and  C12_16 
REMARK    4  A    between atoms: C12_16  and  C13_17 
REMARK    5  A    between atoms: C13_17  and  C14_18 
REMARK    6  A    between atoms: C14_18  and  N4_19 
REMARK       I    between atoms: N4_19  and  C15_20 
REMARK    7  A    between atoms: C15_20  and  C16_22 
REMARK    8  A    between atoms: C16_22  and  N5_23 
ROOT
HETATM    1  C1  UNL     1      26.361   3.088  49.907  1.00  0.00     0.049 C 
HETATM    2  C2  UNL     1      25.567   4.066  50.281  1.00  0.00     0.017 A 
HETATM    3  C3  UNL     1      24.638   3.791  51.260  1.00  0.00     0.138 A 
HETATM    4  N2  UNL     1      23.882   4.843  51.573  1.00  0.00    -0.224 NA
HETATM    5  C10 UNL     1      23.939   6.062  51.056  1.00  0.00     0.235 A 
HETATM    6  N3  UNL     1      24.852   6.290  50.110  1.00  0.00    -0.241 NA
HETATM    7  C11 UNL     1      25.677   5.309  49.706  1.00  0.00     0.068 A 
ENDROOT
BRANCH   7   8
HETATM    8  C12 UNL     1      26.528   5.640  48.778  1.00  0.00     0.034 C 
BRANCH   8   9
HETATM    9  C13 UNL     1      27.878   5.958  48.420  1.00  0.00     0.019 C 
BRANCH   9  10
HETATM   10  C14 UNL     1      29.047   5.479  48.118  1.00  0.00     0.091 C 
BRANCH  10  11
HETATM   11  N4  UNL     1      30.377   5.838  47.859  1.00  0.00    -0.336 N 
HETATM   12  C15 UNL     1      31.528   5.775  48.660  1.00  0.00     0.240 C 
HETATM   13  O1  UNL     1      31.651   5.370  49.837  1.00  0.00    -0.271 OA
HETATM   14  H12 UNL     1      30.740   6.229  46.988  1.00  0.00     0.168 HD
BRANCH  12  15
HETATM   15  C16 UNL     1      32.938   6.150  48.404  1.00  0.00     0.243 C 
BRANCH  15  16
HETATM   16  N5  UNL     1      33.577   5.234  47.488  1.00  0.00    -0.276 N 
HETATM   17  S1  UNL     1      34.741   3.944  47.890  1.00  0.00    -0.021 SA
HETATM   18  C17 UNL     1      34.969   3.360  46.172  1.00  0.00     0.074 A 
HETATM   19  C18 UNL     1      34.124   4.217  45.454  1.00  0.00     0.083 A 
HETATM   20  C19 UNL     1      33.410   5.177  46.115  1.00  0.00     0.254 A 
HETATM   21  O2  UNL     1      32.631   5.985  45.554  1.00  0.00    -0.268 OA
ENDBRANCH  15  16
ENDBRANCH  12  15
ENDBRANCH  10  11
ENDBRANCH   9  10
ENDBRANCH   8   9
ENDBRANCH   7   8
BRANCH   3  22
HETATM   22  N1  UNL     1      24.514   2.515  51.862  1.00  0.00    -0.340 N 
HETATM   23  H3  UNL     1      25.416   2.324  52.329  1.00  0.00     0.167 HD
BRANCH  22  24
HETATM   24  C4  UNL     1      23.398   1.657  51.842  1.00  0.00     0.035 A 
HETATM   25  C5  UNL     1      22.643   1.568  50.699  1.00  0.00     0.029 A 
HETATM   26  C6  UNL     1      21.562   0.708  50.750  1.00  0.00     0.004 A 
HETATM   27  C7  UNL     1      21.255  -0.029  51.898  1.00  0.00     0.019 A 
HETATM   28  C8  UNL     1      22.060   0.107  53.025  1.00  0.00     0.013 A 
HETATM   29 BR1  UNL     1      21.639  -0.895  54.581  1.00  0.00    -0.051 Br
HETATM   30  C9  UNL     1      23.148   0.959  53.005  1.00  0.00     0.048 A 
ENDBRANCH  22  24
ENDBRANCH   3  22
TORSDOF 8
ENDMDL
MODEL 3
REMARK VINA RESULT:      -7.9      6.383      8.977
REMARK  8 active torsions:
REMARK  status: ('A' for Active; 'I' for Inactive)
REMARK    1  A    between atoms: C3_3  and  N1_4 
REMARK    2  A    between atoms: N1_4  and  C4_5 
REMARK    3  A    between atoms: C11_15  and  C12_16 
REMARK    4  A    between atoms: C12_16  and  C13_17 
REMARK    5  A    between atoms: C13_17  and  C14_18 
REMARK    6  A    between atoms: C14_18  and  N4_19 
REMARK       I    between atoms: N4_19  and  C15_20 
REMARK    7  A    between atoms: C15_20  and  C16_22 
REMARK    8  A    between atoms: C16_22  and  N5_23 
ROOT
HETATM    1  C1  UNL     1      22.358   0.770  52.153  1.00  0.00     0.049 C 
HETATM    2  C2  UNL     1      22.666   0.065  53.218  1.00  0.00     0.017 A 
HETATM    3  C3  UNL     1      24.003  -0.141  53.478  1.00  0.00     0.138 A 
HETATM    4  N2  UNL     1      24.216  -0.864  54.577  1.00  0.00    -0.224 NA
HETATM    5  C10 UNL     1      23.309  -1.375  55.397  1.00  0.00     0.235 A 
HETATM    6  N3  UNL     1      22.024  -1.155  55.111  1.00  0.00    -0.241 NA
HETATM    7  C11 UNL     1      21.678  -0.438  54.029  1.00  0.00     0.068 A 
ENDROOT
BRANCH   7   8
HETATM    8  C12 UNL     1      20.399  -0.285  53.845  1.00  0.00     0.034 C 
BRANCH   8   9
HETATM    9  C13 UNL     1      19.258  -0.469  52.998  1.00  0.00     0.019 C 
BRANCH   9  10
HETATM   10  C14 UNL     1      18.668  -0.098  51.902  1.00  0.00     0.091 C 
BRANCH  10  11
HETATM   11  N4  UNL     1      18.885   0.506  50.656  1.00  0.00    -0.336 N 
HETATM   12  C15 UNL     1      18.894   1.856  50.268  1.00  0.00     0.240 C 
HETATM   13  O1  UNL     1      18.706   2.879  50.962  1.00  0.00    -0.271 OA
HETATM   14  H12 UNL     1      19.082   0.027  49.776  1.00  0.00     0.168 HD
BRANCH  12  15
HETATM   15  C16 UNL     1      19.121   2.512  48.960  1.00  0.00     0.243 C 
BRANCH  15  16
HETATM   16  N5  UNL     1      20.508   2.867  48.772  1.00  0.00    -0.276 N 
HETATM   17  S1  UNL     1      21.211   4.507  48.780  1.00  0.00    -0.021 SA
HETATM   18  C17 UNL     1      22.934   3.969  48.480  1.00  0.00     0.074 A 
HETATM   19  C18 UNL     1      22.800   2.577  48.403  1.00  0.00     0.083 A 
HETATM   20  C19 UNL     1      21.567   2.004  48.551  1.00  0.00     0.254 A 
HETATM   21  O2  UNL     1      21.354   0.769  48.496  1.00  0.00    -0.268 OA
ENDBRANCH  15  16
ENDBRANCH  12  15
ENDBRANCH  10  11
ENDBRANCH   9  10
ENDBRANCH   8   9
ENDBRANCH   7   8
BRANCH   3  22
HETATM   22  N1  UNL     1      25.033   0.372  52.651  1.00  0.00    -0.340 N 
HETATM   23  H3  UNL     1      24.631   0.456  51.703  1.00  0.00     0.167 HD
BRANCH  22  24
HETATM   24  C4  UNL     1      26.349   0.709  53.022  1.00  0.00     0.035 A 
HETATM   25  C5  UNL     1      26.655   2.021  53.285  1.00  0.00     0.029 A 
HETATM   26  C6  UNL     1      27.964   2.280  53.643  1.00  0.00     0.004 A 
HETATM   27  C7  UNL     1      28.922   1.265  53.731  1.00  0.00     0.019 A 
HETATM   28  C8  UNL     1      28.549  -0.045  53.451  1.00  0.00     0.013 A 
HETATM   29 BR1  UNL     1      29.853  -1.419  53.571  1.00  0.00    -0.051 Br
HETATM   30  C9  UNL     1      27.246  -0.336  53.090  1.00  0.00     0.048 A 
ENDBRANCH  22  24
ENDBRANCH   3  22
TORSDOF 8
ENDMDL
MODEL 4
REMARK VINA RESULT:      -7.8      4.927      6.980
REMARK  8 active torsions:
REMARK  status: ('A' for Active; 'I' for Inactive)
REMARK    1  A    between atoms: C3_3  and  N1_4 
REMARK    2  A    between atoms: N1_4  and  C4_5 
REMARK    3  A    between atoms: C11_15  and  C12_16 
REMARK    4  A    between atoms: C12_16  and  C13_17 
REMARK    5  A    between atoms: C13_17  and  C14_18 
REMARK    6  A    between atoms: C14_18  and  N4_19 
REMARK       I    between atoms: N4_19  and  C15_20 
REMARK    7  A    between atoms: C15_20  and  C16_22 
REMARK    8  A    between atoms: C16_22  and  N5_23 
ROOT
HETATM    1  C1  UNL     1      22.797   2.191  48.833  1.00  0.00     0.049 C 
HETATM    2  C2  UNL     1      22.267   3.215  49.465  1.00  0.00     0.017 A 
HETATM    3  C3  UNL     1      20.974   3.079  49.921  1.00  0.00     0.138 A 
HETATM    4  N2  UNL     1      20.525   4.165  50.548  1.00  0.00    -0.224 NA
HETATM    5  C10 UNL     1      21.173   5.301  50.762  1.00  0.00     0.235 A 
HETATM    6  N3  UNL     1      22.423   5.395  50.306  1.00  0.00    -0.241 NA
HETATM    7  C11 UNL     1      22.992   4.366  49.655  1.00  0.00     0.068 A 
ENDROOT
BRANCH   7   8
HETATM    8  C12 UNL     1      24.213   4.564  49.253  1.00  0.00     0.034 C 
BRANCH   8   9
HETATM    9  C13 UNL     1      25.614   4.330  49.446  1.00  0.00     0.019 C 
BRANCH   9  10
HETATM   10  C14 UNL     1      26.506   3.679  50.130  1.00  0.00     0.091 C 
BRANCH  10  11
HETATM   11  N4  UNL     1      26.739   3.042  51.357  1.00  0.00    -0.336 N 
HETATM   12  C15 UNL     1      25.881   2.332  52.211  1.00  0.00     0.240 C 
HETATM   13  O1  UNL     1      24.661   2.086  52.081  1.00  0.00    -0.271 OA
HETATM   14  H12 UNL     1      27.629   2.994  51.855  1.00  0.00     0.168 HD
BRANCH  12  15
HETATM   15  C16 UNL     1      26.109   1.655  53.508  1.00  0.00     0.243 C 
BRANCH  15  16
HETATM   16  N5  UNL     1      27.349   0.914  53.514  1.00  0.00    -0.276 N 
HETATM   17  S1  UNL     1      27.570  -0.819  53.151  1.00  0.00    -0.021 SA
HETATM   18  C17 UNL     1      29.382  -0.829  53.402  1.00  0.00     0.074 A 
HETATM   19  C18 UNL     1      29.641   0.506  53.741  1.00  0.00     0.083 A 
HETATM   20  C19 UNL     1      28.611   1.403  53.801  1.00  0.00     0.254 A 
HETATM   21  O2  UNL     1      28.750   2.615  54.095  1.00  0.00    -0.268 OA
ENDBRANCH  15  16
ENDBRANCH  12  15
ENDBRANCH  10  11
ENDBRANCH   9  10
ENDBRANCH   8   9
ENDBRANCH   7   8
BRANCH   3  22
HETATM   22  N1  UNL     1      20.215   1.897  49.732  1.00  0.00    -0.340 N 
HETATM   23  H3  UNL     1      20.129   1.766  48.711  1.00  0.00     0.167 HD
BRANCH  22  24
HETATM   24  C4  UNL     1      19.674   1.053  50.721  1.00  0.00     0.035 A 
HETATM   25  C5  UNL     1      18.379   0.616  50.592  1.00  0.00     0.029 A 
HETATM   26  C6  UNL     1      17.913  -0.208  51.598  1.00  0.00     0.004 A 
HETATM   27  C7  UNL     1      18.713  -0.576  52.685  1.00  0.00     0.019 A 
HETATM   28  C8  UNL     1      20.018  -0.099  52.757  1.00  0.00     0.013 A 
HETATM   29 BR1  UNL     1      21.100  -0.601  54.234  1.00  0.00    -0.051 Br
HETATM   30  C9  UNL     1      20.513   0.728  51.766  1.00  0.00     0.048 A 
ENDBRANCH  22  24
ENDBRANCH   3  22
TORSDOF 8
ENDMDL
MODEL 5
REMARK VINA RESULT:      -7.7      1.869      2.083
REMARK  8 active torsions:
REMARK  status: ('A' for Active; 'I' for Inactive)
REMARK    1  A    between atoms: C3_3  and  N1_4 
REMARK    2  A    between atoms: N1_4  and  C4_5 
REMARK    3  A    between atoms: C11_15  and  C12_16 
REMARK    4  A    between atoms: C12_16  and  C13_17 
REMARK    5  A    between atoms: C13_17  and  C14_18 
REMARK    6  A    between atoms: C14_18  and  N4_19 
REMARK       I    between atoms: N4_19  and  C15_20 
REMARK    7  A    between atoms: C15_20  and  C16_22 
REMARK    8  A    between atoms: C16_22  and  N5_23 
ROOT
HETATM    1  C1  UNL     1      26.119   2.870  49.273  1.00  0.00     0.049 C 
HETATM    2  C2  UNL     1      25.424   3.770  49.931  1.00  0.00     0.017 A 
HETATM    3  C3  UNL     1      24.454   3.315  50.797  1.00  0.00     0.138 A 
HETATM    4  N2  UNL     1      23.805   4.300  51.418  1.00  0.00    -0.224 NA
HETATM    5  C10 UNL     1      23.997   5.604  51.286  1.00  0.00     0.235 A 
HETATM    6  N3  UNL     1      24.946   6.006  50.439  1.00  0.00    -0.241 NA
HETATM    7  C11 UNL     1      25.672   5.109  49.750  1.00  0.00     0.068 A 
ENDROOT
BRANCH   7   8
HETATM    8  C12 UNL     1      26.569   5.610  48.952  1.00  0.00     0.034 C 
BRANCH   8   9
HETATM    9  C13 UNL     1      27.947   5.699  48.569  1.00  0.00     0.019 C 
BRANCH   9  10
HETATM   10  C14 UNL     1      28.845   6.414  47.961  1.00  0.00     0.091 C 
BRANCH  10  11
HETATM   11  N4  UNL     1      30.228   6.597  47.815  1.00  0.00    -0.336 N 
HETATM   12  C15 UNL     1      31.311   6.123  48.572  1.00  0.00     0.240 C 
HETATM   13  O1  UNL     1      31.308   5.400  49.592  1.00  0.00    -0.271 OA
HETATM   14  H12 UNL     1      30.693   7.141  47.087  1.00  0.00     0.168 HD
BRANCH  12  15
HETATM   15  C16 UNL     1      32.775   6.307  48.433  1.00  0.00     0.243 C 
BRANCH  15  16
HETATM   16  N5  UNL     1      33.400   5.165  47.807  1.00  0.00    -0.276 N 
HETATM   17  S1  UNL     1      32.751   4.181  46.468  1.00  0.00    -0.021 SA
HETATM   18  C17 UNL     1      34.175   3.037  46.374  1.00  0.00     0.074 A 
HETATM   19  C18 UNL     1      35.014   3.526  47.384  1.00  0.00     0.083 A 
HETATM   20  C19 UNL     1      34.628   4.611  48.121  1.00  0.00     0.254 A 
HETATM   21  O2  UNL     1      35.314   5.115  49.043  1.00  0.00    -0.268 OA
ENDBRANCH  15  16
ENDBRANCH  12  15
ENDBRANCH  10  11
ENDBRANCH   9  10
ENDBRANCH   8   9
ENDBRANCH   7   8
BRANCH   3  22
HETATM   22  N1  UNL     1      24.187   1.938  50.994  1.00  0.00    -0.340 N 
HETATM   23  H3  UNL     1      23.674   1.617  50.157  1.00  0.00     0.167 HD
BRANCH  22  24
HETATM   24  C4  UNL     1      24.540   1.141  52.101  1.00  0.00     0.035 A 
HETATM   25  C5  UNL     1      25.863   1.028  52.449  1.00  0.00     0.029 A 
HETATM   26  C6  UNL     1      26.137   0.231  53.544  1.00  0.00     0.004 A 
HETATM   27  C7  UNL     1      25.126  -0.422  54.256  1.00  0.00     0.019 A 
HETATM   28  C8  UNL     1      23.804  -0.267  53.852  1.00  0.00     0.013 A 
HETATM   29 BR1  UNL     1      22.436  -1.156  54.821  1.00  0.00    -0.051 Br
HETATM   30  C9  UNL     1      23.498   0.524  52.760  1.00  0.00     0.048 A 
ENDBRANCH  22  24
ENDBRANCH   3  22
TORSDOF 8
ENDMDL
MODEL 6
REMARK VINA RESULT:      -7.7      2.056      2.492
REMARK  8 active torsions:
REMARK  status: ('A' for Active; 'I' for Inactive)
REMARK    1  A    between atoms: C3_3  and  N1_4 
REMARK    2  A    between atoms: N1_4  and  C4_5 
REMARK    3  A    between atoms: C11_15  and  C12_16 
REMARK    4  A    between atoms: C12_16  and  C13_17 
REMARK    5  A    between atoms: C13_17  and  C14_18 
REMARK    6  A    between atoms: C14_18  and  N4_19 
REMARK       I    between atoms: N4_19  and  C15_20 
REMARK    7  A    between atoms: C15_20  and  C16_22 
REMARK    8  A    between atoms: C16_22  and  N5_23 
ROOT
HETATM    1  C1  UNL     1      26.741   4.648  48.944  1.00  0.00     0.049 C 
HETATM    2  C2  UNL     1      25.854   5.262  49.695  1.00  0.00     0.017 A 
HETATM    3  C3  UNL     1      24.962   4.478  50.393  1.00  0.00     0.138 A 
HETATM    4  N2  UNL     1      24.105   5.188  51.125  1.00  0.00    -0.224 NA
HETATM    5  C10 UNL     1      24.036   6.507  51.237  1.00  0.00     0.235 A 
HETATM    6  N3  UNL     1      24.916   7.232  50.546  1.00  0.00    -0.241 NA
HETATM    7  C11 UNL     1      25.835   6.634  49.768  1.00  0.00     0.068 A 
ENDROOT
BRANCH   7   8
HETATM    8  C12 UNL     1      26.643   7.435  49.138  1.00  0.00     0.034 C 
BRANCH   8   9
HETATM    9  C13 UNL     1      27.585   8.513  49.200  1.00  0.00     0.019 C 
BRANCH   9  10
HETATM   10  C14 UNL     1      28.830   8.839  49.372  1.00  0.00     0.091 C 
BRANCH  10  11
HETATM   11  N4  UNL     1      30.123   8.312  49.500  1.00  0.00    -0.336 N 
HETATM   12  C15 UNL     1      31.296   8.543  48.763  1.00  0.00     0.240 C 
HETATM   13  O1  UNL     1      31.479   9.299  47.784  1.00  0.00    -0.271 OA
HETATM   14  H12 UNL     1      30.434   7.631  50.194  1.00  0.00     0.168 HD
BRANCH  12  15
HETATM   15  C16 UNL     1      32.667   7.996  48.883  1.00  0.00     0.243 C 
BRANCH  15  16
HETATM   16  N5  UNL     1      32.782   6.698  48.259  1.00  0.00    -0.276 N 
HETATM   17  S1  UNL     1      33.652   6.298  46.754  1.00  0.00    -0.021 SA
HETATM   18  C17 UNL     1      33.251   4.513  46.779  1.00  0.00     0.074 A 
HETATM   19  C18 UNL     1      32.485   4.398  47.947  1.00  0.00     0.083 A 
HETATM   20  C19 UNL     1      32.239   5.507  48.709  1.00  0.00     0.254 A 
HETATM   21  O2  UNL     1      31.565   5.497  49.767  1.00  0.00    -0.268 OA
ENDBRANCH  15  16
ENDBRANCH  12  15
ENDBRANCH  10  11
ENDBRANCH   9  10
ENDBRANCH   8   9
ENDBRANCH   7   8
BRANCH   3  22
HETATM   22  N1  UNL     1      24.971   3.063  50.328  1.00  0.00    -0.340 N 
HETATM   23  H3  UNL     1      24.670   2.813  49.371  1.00  0.00     0.167 HD
BRANCH  22  24
HETATM   24  C4  UNL     1      25.316   2.155  51.347  1.00  0.00     0.035 A 
HETATM   25  C5  UNL     1      26.636   2.011  51.697  1.00  0.00     0.029 A 
HETATM   26  C6  UNL     1      26.903   1.104  52.704  1.00  0.00     0.004 A 
HETATM   27  C7  UNL     1      25.888   0.373  53.330  1.00  0.00     0.019 A 
HETATM   28  C8  UNL     1      24.570   0.564  52.929  1.00  0.00     0.013 A 
HETATM   29 BR1  UNL     1      23.196  -0.431  53.782  1.00  0.00    -0.051 Br
HETATM   30  C9  UNL     1      24.271   1.465  51.925  1.00  0.00     0.048 A 
ENDBRANCH  22  24
ENDBRANCH   3  22
TORSDOF 8
ENDMDL
MODEL 7
REMARK VINA RESULT:      -7.7      1.814      2.145
REMARK  8 active torsions:
REMARK  status: ('A' for Active; 'I' for Inactive)
REMARK    1  A    between atoms: C3_3  and  N1_4 
REMARK    2  A    between atoms: N1_4  and  C4_5 
REMARK    3  A    between atoms: C11_15  and  C12_16 
REMARK    4  A    between atoms: C12_16  and  C13_17 
REMARK    5  A    between atoms: C13_17  and  C14_18 
REMARK    6  A    between atoms: C14_18  and  N4_19 
REMARK       I    between atoms: N4_19  and  C15_20 
REMARK    7  A    between atoms: C15_20  and  C16_22 
REMARK    8  A    between atoms: C16_22  and  N5_23 
ROOT
HETATM    1  C1  UNL     1      26.158   3.317  49.259  1.00  0.00     0.049 C 
HETATM    2  C2  UNL     1      25.384   4.001  50.071  1.00  0.00     0.017 A 
HETATM    3  C3  UNL     1      24.733   3.304  51.065  1.00  0.00     0.138 A 
HETATM    4  N2  UNL     1      23.975   4.081  51.837  1.00  0.00    -0.224 NA
HETATM    5  C10 UNL     1      23.800   5.391  51.742  1.00  0.00     0.235 A 
HETATM    6  N3  UNL     1      24.447   6.032  50.767  1.00  0.00    -0.241 NA
HETATM    7  C11 UNL     1      25.245   5.359  49.920  1.00  0.00     0.068 A 
ENDROOT
BRANCH   7   8
HETATM    8  C12 UNL     1      25.827   6.081  49.007  1.00  0.00     0.034 C 
BRANCH   8   9
HETATM    9  C13 UNL     1      27.043   6.506  48.381  1.00  0.00     0.019 C 
BRANCH   9  10
HETATM   10  C14 UNL     1      28.325   6.316  48.293  1.00  0.00     0.091 C 
BRANCH  10  11
HETATM   11  N4  UNL     1      29.536   6.479  48.981  1.00  0.00    -0.336 N 
HETATM   12  C15 UNL     1      30.766   5.811  48.866  1.00  0.00     0.240 C 
HETATM   13  O1  UNL     1      31.091   4.880  48.096  1.00  0.00    -0.271 OA
HETATM   14  H12 UNL     1      29.725   7.153  49.725  1.00  0.00     0.168 HD
BRANCH  12  15
HETATM   15  C16 UNL     1      32.052   5.969  49.583  1.00  0.00     0.243 C 
BRANCH  15  16
HETATM   16  N5  UNL     1      32.951   6.856  48.881  1.00  0.00    -0.276 N 
HETATM   17  S1  UNL     1      32.566   8.457  48.194  1.00  0.00    -0.021 SA
HETATM   18  C17 UNL     1      34.245   8.787  47.546  1.00  0.00     0.074 A 
HETATM   19  C18 UNL     1      34.940   7.630  47.923  1.00  0.00     0.083 A 
HETATM   20  C19 UNL     1      34.289   6.639  48.604  1.00  0.00     0.254 A 
HETATM   21  O2  UNL     1      34.831   5.571  48.980  1.00  0.00    -0.268 OA
ENDBRANCH  15  16
ENDBRANCH  12  15
ENDBRANCH  10  11
ENDBRANCH   9  10
ENDBRANCH   8   9
ENDBRANCH   7   8
BRANCH   3  22
HETATM   22  N1  UNL     1      24.868   1.904  51.233  1.00  0.00    -0.340 N 
HETATM   23  H3  UNL     1      24.461   1.468  50.390  1.00  0.00     0.167 HD
BRANCH  22  24
HETATM   24  C4  UNL     1      25.439   1.217  52.323  1.00  0.00     0.035 A 
HETATM   25  C5  UNL     1      24.622   0.506  53.167  1.00  0.00     0.029 A 
HETATM   26  C6  UNL     1      25.248  -0.143  54.214  1.00  0.00     0.004 A 
HETATM   27  C7  UNL     1      26.632  -0.078  54.404  1.00  0.00     0.019 A 
HETATM   28  C8  UNL     1      27.404   0.660  53.513  1.00  0.00     0.013 A 
HETATM   29 BR1  UNL     1      29.282   0.745  53.776  1.00  0.00    -0.051 Br
HETATM   30  C9  UNL     1      26.807   1.320  52.455  1.00  0.00     0.048 A 
ENDBRANCH  22  24
ENDBRANCH   3  22
TORSDOF 8
ENDMDL
MODEL 8
REMARK VINA RESULT:      -7.6      8.219     12.166
REMARK  8 active torsions:
REMARK  status: ('A' for Active; 'I' for Inactive)
REMARK    1  A    between atoms: C3_3  and  N1_4 
REMARK    2  A    between atoms: N1_4  and  C4_5 
REMARK    3  A    between atoms: C11_15  and  C12_16 
REMARK    4  A    between atoms: C12_16  and  C13_17 
REMARK    5  A    between atoms: C13_17  and  C14_18 
REMARK    6  A    between atoms: C14_18  and  N4_19 
REMARK       I    between atoms: N4_19  and  C15_20 
REMARK    7  A    between atoms: C15_20  and  C16_22 
REMARK    8  A    between atoms: C16_22  and  N5_23 
ROOT
HETATM    1  C1  UNL     1      22.036   0.797  52.098  1.00  0.00     0.049 C 
HETATM    2  C2  UNL     1      22.232   0.039  53.154  1.00  0.00     0.017 A 
HETATM    3  C3  UNL     1      23.535  -0.203  53.529  1.00  0.00     0.138 A 
HETATM    4  N2  UNL     1      23.633  -0.978  54.608  1.00  0.00    -0.224 NA
HETATM    5  C10 UNL     1      22.645  -1.506  55.316  1.00  0.00     0.235 A 
HETATM    6  N3  UNL     1      21.396  -1.249  54.923  1.00  0.00    -0.241 NA
HETATM    7  C11 UNL     1      21.164  -0.479  53.846  1.00  0.00     0.068 A 
ENDROOT
BRANCH   7   8
HETATM    8  C12 UNL     1      19.911  -0.293  53.551  1.00  0.00     0.034 C 
BRANCH   8   9
HETATM    9  C13 UNL     1      18.854  -0.411  52.591  1.00  0.00     0.019 C 
BRANCH   9  10
HETATM   10  C14 UNL     1      18.249   0.153  51.589  1.00  0.00     0.091 C 
BRANCH  10  11
HETATM   11  N4  UNL     1      17.461   1.253  51.226  1.00  0.00    -0.336 N 
HETATM   12  C15 UNL     1      16.093   1.356  50.926  1.00  0.00     0.240 C 
HETATM   13  O1  UNL     1      15.217   0.464  50.910  1.00  0.00    -0.271 OA
HETATM   14  H12 UNL     1      17.780   2.217  51.113  1.00  0.00     0.168 HD
BRANCH  12  15
HETATM   15  C16 UNL     1      15.245   2.508  50.540  1.00  0.00     0.243 C 
BRANCH  15  16
HETATM   16  N5  UNL     1      14.675   3.163  51.695  1.00  0.00    -0.276 N 
HETATM   17  S1  UNL     1      12.972   3.125  52.223  1.00  0.00    -0.021 SA
HETATM   18  C17 UNL     1      13.212   4.185  53.695  1.00  0.00     0.074 A 
HETATM   19  C18 UNL     1      14.584   4.465  53.636  1.00  0.00     0.083 A 
HETATM   20  C19 UNL     1      15.339   3.949  52.620  1.00  0.00     0.254 A 
HETATM   21  O2  UNL     1      16.571   4.147  52.488  1.00  0.00    -0.268 OA
ENDBRANCH  15  16
ENDBRANCH  12  15
ENDBRANCH  10  11
ENDBRANCH   9  10
ENDBRANCH   8   9
ENDBRANCH   7   8
BRANCH   3  22
HETATM   22  N1  UNL     1      24.646   0.325  52.825  1.00  0.00    -0.340 N 
HETATM   23  H3  UNL     1      24.266   1.016  52.157  1.00  0.00     0.167 HD
BRANCH  22  24
HETATM   24  C4  UNL     1      26.005  -0.007  52.984  1.00  0.00     0.035 A 
HETATM   25  C5  UNL     1      26.428  -1.270  52.652  1.00  0.00     0.029 A 
HETATM   26  C6  UNL     1      27.773  -1.528  52.833  1.00  0.00     0.004 A 
HETATM   27  C7  UNL     1      28.653  -0.559  53.327  1.00  0.00     0.019 A 
HETATM   28  C8  UNL     1      28.161   0.703  53.645  1.00  0.00     0.013 A 
HETATM   29 BR1  UNL     1      29.360   2.014  54.314  1.00  0.00    -0.051 Br
HETATM   30  C9  UNL     1      26.820   0.991  53.475  1.00  0.00     0.048 A 
ENDBRANCH  22  24
ENDBRANCH   3  22
TORSDOF 8
ENDMDL
MODEL 9
REMARK VINA RESULT:      -7.5      3.411      4.133
REMARK  8 active torsions:
REMARK  status: ('A' for Active; 'I' for Inactive)
REMARK    1  A    between atoms: C3_3  and  N1_4 
REMARK    2  A    between atoms: N1_4  and  C4_5 
REMARK    3  A    between atoms: C11_15  and  C12_16 
REMARK    4  A    between atoms: C12_16  and  C13_17 
REMARK    5  A    between atoms: C13_17  and  C14_18 
REMARK    6  A    between atoms: C14_18  and  N4_19 
REMARK       I    between atoms: N4_19  and  C15_20 
REMARK    7  A    between atoms: C15_20  and  C16_22 
REMARK    8  A    between atoms: C16_22  and  N5_23 
ROOT
HETATM    1  C1  UNL     1      23.678   3.870  51.332  1.00  0.00     0.049 C 
HETATM    2  C2  UNL     1      24.598   2.945  51.492  1.00  0.00     0.017 A 
HETATM    3  C3  UNL     1      24.315   1.911  52.358  1.00  0.00     0.138 A 
HETATM    4  N2  UNL     1      25.305   1.025  52.454  1.00  0.00    -0.224 NA
HETATM    5  C10 UNL     1      26.472   1.046  51.827  1.00  0.00     0.235 A 
HETATM    6  N3  UNL     1      26.710   2.063  50.997  1.00  0.00    -0.241 NA
HETATM    7  C11 UNL     1      25.789   3.024  50.813  1.00  0.00     0.068 A 
ENDROOT
BRANCH   7   8
HETATM    8  C12 UNL     1      26.124   3.968  49.983  1.00  0.00     0.034 C 
BRANCH   8   9
HETATM    9  C13 UNL     1      27.023   4.442  48.972  1.00  0.00     0.019 C 
BRANCH   9  10
HETATM   10  C14 UNL     1      27.877   5.365  48.646  1.00  0.00     0.091 C 
BRANCH  10  11
HETATM   11  N4  UNL     1      29.246   5.655  48.573  1.00  0.00    -0.336 N 
HETATM   12  C15 UNL     1      29.965   6.540  47.753  1.00  0.00     0.240 C 
HETATM   13  O1  UNL     1      29.545   7.308  46.860  1.00  0.00    -0.271 OA
HETATM   14  H12 UNL     1      29.985   5.240  49.143  1.00  0.00     0.168 HD
BRANCH  12  15
HETATM   15  C16 UNL     1      31.408   6.858  47.661  1.00  0.00     0.243 C 
BRANCH  15  16
HETATM   16  N5  UNL     1      32.111   5.920  46.817  1.00  0.00    -0.276 N 
HETATM   17  S1  UNL     1      32.746   6.213  45.176  1.00  0.00    -0.021 SA
HETATM   18  C17 UNL     1      33.432   4.534  44.942  1.00  0.00     0.074 A 
HETATM   19  C18 UNL     1      33.105   3.910  46.153  1.00  0.00     0.083 A 
HETATM   20  C19 UNL     1      32.431   4.608  47.116  1.00  0.00     0.254 A 
HETATM   21  O2  UNL     1      32.098   4.130  48.228  1.00  0.00    -0.268 OA
ENDBRANCH  15  16
ENDBRANCH  12  15
ENDBRANCH  10  11
ENDBRANCH   9  10
ENDBRANCH   8   9
ENDBRANCH   7   8
BRANCH   3  22
HETATM   22  N1  UNL     1      23.091   1.817  53.064  1.00  0.00    -0.340 N 
HETATM   23  H3  UNL     1      22.785   2.787  53.250  1.00  0.00     0.167 HD
BRANCH  22  24
HETATM   24  C4  UNL     1      22.406   0.649  53.450  1.00  0.00     0.035 A 
HETATM   25  C5  UNL     1      23.068  -0.303  54.185  1.00  0.00     0.029 A 
HETATM   26  C6  UNL     1      22.336  -1.424  54.529  1.00  0.00     0.004 A 
HETATM   27  C7  UNL     1      20.999  -1.579  54.151  1.00  0.00     0.019 A 
HETATM   28  C8  UNL     1      20.384  -0.577  53.406  1.00  0.00     0.013 A 
HETATM   29 BR1  UNL     1      18.569  -0.793  52.895  1.00  0.00    -0.051 Br
HETATM   30  C9  UNL     1      21.090   0.556  53.047  1.00  0.00     0.048 A 
ENDBRANCH  22  24
ENDBRANCH   3  22
TORSDOF 8
ENDMDL
