MODEL 1
REMARK VINA RESULT:      -7.7      0.000      0.000
REMARK  5 active torsions:
REMARK  status: ('A' for Active; 'I' for Inactive)
REMARK    1  A    between atoms: C2_2  and  O1_3 
REMARK    2  A    between atoms: C2_2  and  C3_4 
REMARK    3  A    between atoms: C6_7  and  N1_8 
REMARK    4  A    between atoms: N1_8  and  C7_9 
REMARK    5  A    between atoms: C8_10  and  O2_11 
ROOT
HETATM    1  N1  UNL     1      24.015   1.217  53.343  1.00  0.00    -0.356 N 
HETATM    2  H8  UNL     1      24.181   2.245  53.448  1.00  0.00     0.166 HD
ENDROOT
BRANCH   1   3
HETATM    3  C6  UNL     1      22.709   0.662  53.224  1.00  0.00     0.032 A 
HETATM    4  C5  UNL     1      22.222  -0.070  54.290  1.00  0.00     0.030 A 
HETATM    5  C4  UNL     1      20.952  -0.585  54.124  1.00  0.00     0.012 A 
HETATM    6  C3  UNL     1      20.226  -0.387  52.987  1.00  0.00    -0.030 A 
HETATM    7  C16 UNL     1      20.740   0.350  51.938  1.00  0.00     0.012 A 
HETATM    8  C15 UNL     1      22.013   0.888  52.058  1.00  0.00     0.030 A 
BRANCH   6   9
HETATM    9  C2  UNL     1      18.858  -0.945  52.815  1.00  0.00     0.147 C 
HETATM   10  C1  UNL     1      18.021  -0.116  51.869  1.00  0.00     0.044 C 
BRANCH   9  11
HETATM   11  O1  UNL     1      18.244  -1.028  54.064  1.00  0.00    -0.391 OA
HETATM   12  H5  UNL     1      18.905  -0.901  54.801  1.00  0.00     0.210 HD
ENDBRANCH   9  11
ENDBRANCH   6   9
ENDBRANCH   1   3
BRANCH   1  13
HETATM   13  C7  UNL     1      25.310   0.630  53.357  1.00  0.00     0.064 A 
HETATM   14  C8  UNL     1      26.452   1.240  53.665  1.00  0.00     0.116 A 
HETATM   15  C9  UNL     1      27.586   0.321  53.570  1.00  0.00     0.066 A 
HETATM   16  C10 UNL     1      28.885   0.464  53.777  1.00  0.00     0.010 A 
HETATM   17  N2  UNL     1      27.013  -0.919  53.171  1.00  0.00    -0.349 N 
HETATM   18  C11 UNL     1      29.826  -0.674  53.600  1.00  0.00     0.058 A 
HETATM   19  C12 UNL     1      29.121  -1.913  53.182  1.00  0.00    -0.006 A 
HETATM   20  C13 UNL     1      27.824  -2.083  52.970  1.00  0.00     0.088 A 
HETATM   21  C14 UNL     1      25.577  -0.801  53.015  1.00  0.00     0.188 A 
BRANCH  14  22
HETATM   22  O2  UNL     1      26.601   2.584  54.037  1.00  0.00    -0.357 OA
HETATM   23  H9  UNL     1      26.667   2.871  55.001  1.00  0.00     0.218 HD
ENDBRANCH  14  22
ENDBRANCH   1  13
TORSDOF 5
ENDMDL
MODEL 2
REMARK VINA RESULT:      -7.6      1.636      7.678
REMARK  5 active torsions:
REMARK  status: ('A' for Active; 'I' for Inactive)
REMARK    1  A    between atoms: C2_2  and  O1_3 
REMARK    2  A    between atoms: C2_2  and  C3_4 
REMARK    3  A    between atoms: C6_7  and  N1_8 
REMARK    4  A    between atoms: N1_8  and  C7_9 
REMARK    5  A    between atoms: C8_10  and  O2_11 
ROOT
HETATM    1  N1  UNL     1      23.893  -0.820  54.408  1.00  0.00    -0.356 N 
HETATM    2  H8  UNL     1      23.565  -1.322  55.266  1.00  0.00     0.166 HD
ENDROOT
BRANCH   1   3
HETATM    3  C6  UNL     1      25.270  -0.572  54.147  1.00  0.00     0.032 A 
HETATM    4  C5  UNL     1      26.013   0.038  55.140  1.00  0.00     0.030 A 
HETATM    5  C4  UNL     1      27.342   0.255  54.836  1.00  0.00     0.012 A 
HETATM    6  C3  UNL     1      27.887  -0.108  53.640  1.00  0.00    -0.030 A 
HETATM    7  C16 UNL     1      27.119  -0.716  52.667  1.00  0.00     0.012 A 
HETATM    8  C15 UNL     1      25.777  -0.955  52.926  1.00  0.00     0.030 A 
BRANCH   6   9
HETATM    9  C2  UNL     1      29.321   0.129  53.320  1.00  0.00     0.147 C 
HETATM   10  C1  UNL     1      30.197  -1.024  53.753  1.00  0.00     0.044 C 
BRANCH   9  11
HETATM   11  O1  UNL     1      29.732   1.310  53.935  1.00  0.00    -0.391 OA
HETATM   12  H5  UNL     1      29.386   1.370  54.869  1.00  0.00     0.210 HD
ENDBRANCH   9  11
ENDBRANCH   6   9
ENDBRANCH   1   3
BRANCH   1  13
HETATM   13  C7  UNL     1      22.707  -0.505  53.689  1.00  0.00     0.064 A 
HETATM   14  C8  UNL     1      21.473  -0.905  53.984  1.00  0.00     0.116 A 
HETATM   15  C9  UNL     1      20.503  -0.386  53.019  1.00  0.00     0.066 A 
HETATM   16  C10 UNL     1      19.190  -0.510  52.902  1.00  0.00     0.010 A 
HETATM   17  N2  UNL     1      21.279   0.377  52.102  1.00  0.00    -0.349 N 
HETATM   18  C11 UNL     1      18.449   0.147  51.793  1.00  0.00     0.058 A 
HETATM   19  C12 UNL     1      19.356   0.913  50.899  1.00  0.00    -0.006 A 
HETATM   20  C13 UNL     1      20.670   1.053  50.995  1.00  0.00     0.088 A 
HETATM   21  C14 UNL     1      22.683   0.348  52.461  1.00  0.00     0.188 A 
BRANCH  14  22
HETATM   22  O2  UNL     1      21.099  -1.718  55.063  1.00  0.00    -0.357 OA
HETATM   23  H9  UNL     1      20.136  -1.845  55.332  1.00  0.00     0.218 HD
ENDBRANCH  14  22
ENDBRANCH   1  13
TORSDOF 5
ENDMDL
MODEL 3
REMARK VINA RESULT:      -7.3      2.037      2.746
REMARK  5 active torsions:
REMARK  status: ('A' for Active; 'I' for Inactive)
REMARK    1  A    between atoms: C2_2  and  O1_3 
REMARK    2  A    between atoms: C2_2  and  C3_4 
REMARK    3  A    between atoms: C6_7  and  N1_8 
REMARK    4  A    between atoms: N1_8  and  C7_9 
REMARK    5  A    between atoms: C8_10  and  O2_11 
ROOT
HETATM    1  N1  UNL     1      24.447   1.372  52.993  1.00  0.00    -0.356 N 
HETATM    2  H8  UNL     1      24.303   1.879  53.897  1.00  0.00     0.166 HD
ENDROOT
BRANCH   1   3
HETATM    3  C6  UNL     1      23.492   1.406  51.938  1.00  0.00     0.032 A 
HETATM    4  C5  UNL     1      23.740   2.253  50.874  1.00  0.00     0.030 A 
HETATM    5  C4  UNL     1      22.784   2.247  49.878  1.00  0.00     0.012 A 
HETATM    6  C3  UNL     1      21.672   1.462  49.937  1.00  0.00    -0.030 A 
HETATM    7  C16 UNL     1      21.452   0.625  51.014  1.00  0.00     0.012 A 
HETATM    8  C15 UNL     1      22.384   0.596  52.040  1.00  0.00     0.030 A 
BRANCH   6   9
HETATM    9  C2  UNL     1      20.646   1.461  48.859  1.00  0.00     0.147 C 
HETATM   10  C1  UNL     1      20.557   2.798  48.159  1.00  0.00     0.044 C 
BRANCH   9  11
HETATM   11  O1  UNL     1      19.412   1.117  49.409  1.00  0.00    -0.391 OA
HETATM   12  H5  UNL     1      18.663   1.565  48.926  1.00  0.00     0.210 HD
ENDBRANCH   9  11
ENDBRANCH   6   9
ENDBRANCH   1   3
BRANCH   1  13
HETATM   13  C7  UNL     1      25.709   0.729  53.127  1.00  0.00     0.064 A 
HETATM   14  C8  UNL     1      26.839   1.285  53.554  1.00  0.00     0.116 A 
HETATM   15  C9  UNL     1      27.936   0.318  53.559  1.00  0.00     0.066 A 
HETATM   16  C10 UNL     1      29.214   0.402  53.895  1.00  0.00     0.010 A 
HETATM   17  N2  UNL     1      27.353  -0.893  53.091  1.00  0.00    -0.349 N 
HETATM   18  C11 UNL     1      30.118  -0.775  53.798  1.00  0.00     0.058 A 
HETATM   19  C12 UNL     1      29.404  -1.979  53.298  1.00  0.00    -0.006 A 
HETATM   20  C13 UNL     1      28.129  -2.089  52.957  1.00  0.00     0.088 A 
HETATM   21  C14 UNL     1      25.946  -0.710  52.797  1.00  0.00     0.188 A 
BRANCH  14  22
HETATM   22  O2  UNL     1      27.009   2.618  53.954  1.00  0.00    -0.357 OA
HETATM   23  H9  UNL     1      27.186   2.873  54.913  1.00  0.00     0.218 HD
ENDBRANCH  14  22
ENDBRANCH   1  13
TORSDOF 5
ENDMDL
MODEL 4
REMARK VINA RESULT:      -7.3      5.561      8.221
REMARK  5 active torsions:
REMARK  status: ('A' for Active; 'I' for Inactive)
REMARK    1  A    between atoms: C2_2  and  O1_3 
REMARK    2  A    between atoms: C2_2  and  C3_4 
REMARK    3  A    between atoms: C6_7  and  N1_8 
REMARK    4  A    between atoms: N1_8  and  C7_9 
REMARK    5  A    between atoms: C8_10  and  O2_11 
ROOT
HETATM    1  N1  UNL     1      25.146   4.314  49.360  1.00  0.00    -0.356 N 
HETATM    2  H8  UNL     1      24.748   3.940  48.468  1.00  0.00     0.166 HD
ENDROOT
BRANCH   1   3
HETATM    3  C6  UNL     1      25.742   5.604  49.450  1.00  0.00     0.032 A 
HETATM    4  C5  UNL     1      26.818   5.874  48.627  1.00  0.00     0.030 A 
HETATM    5  C4  UNL     1      27.358   7.138  48.753  1.00  0.00     0.012 A 
HETATM    6  C3  UNL     1      26.864   8.059  49.629  1.00  0.00    -0.030 A 
HETATM    7  C16 UNL     1      25.787   7.760  50.439  1.00  0.00     0.012 A 
HETATM    8  C15 UNL     1      25.210   6.502  50.348  1.00  0.00     0.030 A 
BRANCH   6   9
HETATM    9  C2  UNL     1      27.451   9.420  49.759  1.00  0.00     0.147 C 
HETATM   10  C1  UNL     1      28.770   9.542  49.031  1.00  0.00     0.044 C 
BRANCH   9  11
HETATM   11  O1  UNL     1      27.612   9.716  51.112  1.00  0.00    -0.391 OA
HETATM   12  H5  UNL     1      26.765  10.063  51.509  1.00  0.00     0.210 HD
ENDBRANCH   9  11
ENDBRANCH   6   9
ENDBRANCH   1   3
BRANCH   1  13
HETATM   13  C7  UNL     1      24.939   3.282  50.318  1.00  0.00     0.064 A 
HETATM   14  C8  UNL     1      25.852   2.769  51.137  1.00  0.00     0.116 A 
HETATM   15  C9  UNL     1      25.276   1.723  51.983  1.00  0.00     0.066 A 
HETATM   16  C10 UNL     1      25.781   0.946  52.928  1.00  0.00     0.010 A 
HETATM   17  N2  UNL     1      23.910   1.654  51.592  1.00  0.00    -0.349 N 
HETATM   18  C11 UNL     1      24.938  -0.052  53.639  1.00  0.00     0.058 A 
HETATM   19  C12 UNL     1      23.535  -0.037  53.150  1.00  0.00    -0.006 A 
HETATM   20  C13 UNL     1      23.006   0.729  52.209  1.00  0.00     0.088 A 
HETATM   21  C14 UNL     1      23.622   2.611  50.542  1.00  0.00     0.188 A 
BRANCH  14  22
HETATM   22  O2  UNL     1      27.201   3.143  51.217  1.00  0.00    -0.357 OA
HETATM   23  H9  UNL     1      27.727   3.079  52.075  1.00  0.00     0.218 HD
ENDBRANCH  14  22
ENDBRANCH   1  13
TORSDOF 5
ENDMDL
MODEL 5
REMARK VINA RESULT:      -7.1      3.649      4.475
REMARK  5 active torsions:
REMARK  status: ('A' for Active; 'I' for Inactive)
REMARK    1  A    between atoms: C2_2  and  O1_3 
REMARK    2  A    between atoms: C2_2  and  C3_4 
REMARK    3  A    between atoms: C6_7  and  N1_8 
REMARK    4  A    between atoms: N1_8  and  C7_9 
REMARK    5  A    between atoms: C8_10  and  O2_11 
ROOT
HETATM    1  N1  UNL     1      24.461   1.480  53.134  1.00  0.00    -0.356 N 
HETATM    2  H8  UNL     1      23.806   0.940  53.745  1.00  0.00     0.166 HD
ENDROOT
BRANCH   1   3
HETATM    3  C6  UNL     1      24.059   2.647  52.426  1.00  0.00     0.032 A 
HETATM    4  C5  UNL     1      23.898   2.545  51.057  1.00  0.00     0.030 A 
HETATM    5  C4  UNL     1      23.507   3.704  50.419  1.00  0.00     0.012 A 
HETATM    6  C3  UNL     1      23.294   4.872  51.090  1.00  0.00    -0.030 A 
HETATM    7  C16 UNL     1      23.463   4.943  52.458  1.00  0.00     0.012 A 
HETATM    8  C15 UNL     1      23.856   3.804  53.144  1.00  0.00     0.030 A 
BRANCH   6   9
HETATM    9  C2  UNL     1      22.872   6.118  50.394  1.00  0.00     0.147 C 
HETATM   10  C1  UNL     1      23.592   6.305  49.078  1.00  0.00     0.044 C 
BRANCH   9  11
HETATM   11  O1  UNL     1      23.103   7.205  51.235  1.00  0.00    -0.391 OA
HETATM   12  H5  UNL     1      23.766   6.977  51.945  1.00  0.00     0.210 HD
ENDBRANCH   9  11
ENDBRANCH   6   9
ENDBRANCH   1   3
BRANCH   1  13
HETATM   13  C7  UNL     1      25.700   0.785  53.217  1.00  0.00     0.064 A 
HETATM   14  C8  UNL     1      26.868   1.293  53.601  1.00  0.00     0.116 A 
HETATM   15  C9  UNL     1      27.924   0.281  53.562  1.00  0.00     0.066 A 
HETATM   16  C10 UNL     1      29.216   0.312  53.847  1.00  0.00     0.010 A 
HETATM   17  N2  UNL     1      27.274  -0.902  53.113  1.00  0.00    -0.349 N 
HETATM   18  C11 UNL     1      30.066  -0.900  53.712  1.00  0.00     0.058 A 
HETATM   19  C12 UNL     1      29.285  -2.072  53.237  1.00  0.00    -0.006 A 
HETATM   20  C13 UNL     1      27.995  -2.129  52.945  1.00  0.00     0.088 A 
HETATM   21  C14 UNL     1      25.865  -0.661  52.873  1.00  0.00     0.188 A 
BRANCH  14  22
HETATM   22  O2  UNL     1      27.108   2.616  53.999  1.00  0.00    -0.357 OA
HETATM   23  H9  UNL     1      26.530   3.086  54.679  1.00  0.00     0.218 HD
ENDBRANCH  14  22
ENDBRANCH   1  13
TORSDOF 5
ENDMDL
MODEL 6
REMARK VINA RESULT:      -7.1      2.021      7.782
REMARK  5 active torsions:
REMARK  status: ('A' for Active; 'I' for Inactive)
REMARK    1  A    between atoms: C2_2  and  O1_3 
REMARK    2  A    between atoms: C2_2  and  C3_4 
REMARK    3  A    between atoms: C6_7  and  N1_8 
REMARK    4  A    between atoms: N1_8  and  C7_9 
REMARK    5  A    between atoms: C8_10  and  O2_11 
ROOT
HETATM    1  N1  UNL     1      22.340   1.385  52.978  1.00  0.00    -0.356 N 
HETATM    2  H8  UNL     1      22.160   2.346  53.352  1.00  0.00     0.166 HD
ENDROOT
BRANCH   1   3
HETATM    3  C6  UNL     1      23.641   0.808  52.948  1.00  0.00     0.032 A 
HETATM    4  C5  UNL     1      24.562   1.343  52.067  1.00  0.00     0.030 A 
HETATM    5  C4  UNL     1      25.807   0.748  52.078  1.00  0.00     0.012 A 
HETATM    6  C3  UNL     1      26.111  -0.295  52.902  1.00  0.00    -0.030 A 
HETATM    7  C16 UNL     1      25.170  -0.808  53.772  1.00  0.00     0.012 A 
HETATM    8  C15 UNL     1      23.903  -0.244  53.797  1.00  0.00     0.030 A 
BRANCH   6   9
HETATM    9  C2  UNL     1      27.457  -0.931  52.908  1.00  0.00     0.147 C 
HETATM   10  C1  UNL     1      27.392  -2.400  52.558  1.00  0.00     0.044 C 
BRANCH   9  11
HETATM   11  O1  UNL     1      28.033  -0.755  54.165  1.00  0.00    -0.391 OA
HETATM   12  H5  UNL     1      27.491  -1.199  54.876  1.00  0.00     0.210 HD
ENDBRANCH   9  11
ENDBRANCH   6   9
ENDBRANCH   1   3
BRANCH   1  13
HETATM   13  C7  UNL     1      21.066   0.905  52.565  1.00  0.00     0.064 A 
HETATM   14  C8  UNL     1      20.224   0.174  53.290  1.00  0.00     0.116 A 
HETATM   15  C9  UNL     1      19.009  -0.137  52.537  1.00  0.00     0.066 A 
HETATM   16  C10 UNL     1      17.913  -0.818  52.831  1.00  0.00     0.010 A 
HETATM   17  N2  UNL     1      19.199   0.486  51.272  1.00  0.00    -0.349 N 
HETATM   18  C11 UNL     1      16.811  -0.972  51.844  1.00  0.00     0.058 A 
HETATM   19  C12 UNL     1      17.117  -0.285  50.563  1.00  0.00    -0.006 A 
HETATM   20  C13 UNL     1      18.204   0.403  50.245  1.00  0.00     0.088 A 
HETATM   21  C14 UNL     1      20.479   1.164  51.215  1.00  0.00     0.188 A 
BRANCH  14  22
HETATM   22  O2  UNL     1      20.428  -0.269  54.605  1.00  0.00    -0.357 OA
HETATM   23  H9  UNL     1      20.235  -1.217  54.889  1.00  0.00     0.218 HD
ENDBRANCH  14  22
ENDBRANCH   1  13
TORSDOF 5
ENDMDL
MODEL 7
REMARK VINA RESULT:      -7.0      2.231      7.498
REMARK  5 active torsions:
REMARK  status: ('A' for Active; 'I' for Inactive)
REMARK    1  A    between atoms: C2_2  and  O1_3 
REMARK    2  A    between atoms: C2_2  and  C3_4 
REMARK    3  A    between atoms: C6_7  and  N1_8 
REMARK    4  A    between atoms: N1_8  and  C7_9 
REMARK    5  A    between atoms: C8_10  and  O2_11 
ROOT
HETATM    1  N1  UNL     1      24.128   1.684  52.876  1.00  0.00    -0.356 N 
HETATM    2  H8  UNL     1      24.061   2.726  52.811  1.00  0.00     0.166 HD
ENDROOT
BRANCH   1   3
HETATM    3  C6  UNL     1      25.354   1.012  53.147  1.00  0.00     0.032 A 
HETATM    4  C5  UNL     1      26.308   1.688  53.883  1.00  0.00     0.030 A 
HETATM    5  C4  UNL     1      27.477   0.993  54.118  1.00  0.00     0.012 A 
HETATM    6  C3  UNL     1      27.679  -0.274  53.656  1.00  0.00    -0.030 A 
HETATM    7  C16 UNL     1      26.706  -0.924  52.923  1.00  0.00     0.012 A 
HETATM    8  C15 UNL     1      25.513  -0.266  52.660  1.00  0.00     0.030 A 
BRANCH   6   9
HETATM    9  C2  UNL     1      28.942  -1.018  53.914  1.00  0.00     0.147 C 
HETATM   10  C1  UNL     1      30.152  -0.277  53.395  1.00  0.00     0.044 C 
BRANCH   9  11
HETATM   11  O1  UNL     1      28.852  -2.278  53.324  1.00  0.00    -0.391 OA
HETATM   12  H5  UNL     1      29.423  -2.336  52.508  1.00  0.00     0.210 HD
ENDBRANCH   9  11
ENDBRANCH   6   9
ENDBRANCH   1   3
BRANCH   1  13
HETATM   13  C7  UNL     1      22.806   1.213  52.642  1.00  0.00     0.064 A 
HETATM   14  C8  UNL     1      22.095   1.373  51.529  1.00  0.00     0.116 A 
HETATM   15  C9  UNL     1      20.775   0.755  51.651  1.00  0.00     0.066 A 
HETATM   16  C10 UNL     1      19.743   0.656  50.827  1.00  0.00     0.010 A 
HETATM   17  N2  UNL     1      20.756   0.197  52.960  1.00  0.00    -0.349 N 
HETATM   18  C11 UNL     1      18.498  -0.049  51.230  1.00  0.00     0.058 A 
HETATM   19  C12 UNL     1      18.590  -0.588  52.612  1.00  0.00    -0.006 A 
HETATM   20  C13 UNL     1      19.609  -0.503  53.454  1.00  0.00     0.088 A 
HETATM   21  C14 UNL     1      22.007   0.448  53.648  1.00  0.00     0.188 A 
BRANCH  14  22
HETATM   22  O2  UNL     1      22.509   2.040  50.367  1.00  0.00    -0.357 OA
HETATM   23  H9  UNL     1      23.471   2.048  50.066  1.00  0.00     0.218 HD
ENDBRANCH  14  22
ENDBRANCH   1  13
TORSDOF 5
ENDMDL
MODEL 8
REMARK VINA RESULT:      -6.9      1.497      2.287
REMARK  5 active torsions:
REMARK  status: ('A' for Active; 'I' for Inactive)
REMARK    1  A    between atoms: C2_2  and  O1_3 
REMARK    2  A    between atoms: C2_2  and  C3_4 
REMARK    3  A    between atoms: C6_7  and  N1_8 
REMARK    4  A    between atoms: N1_8  and  C7_9 
REMARK    5  A    between atoms: C8_10  and  O2_11 
ROOT
HETATM    1  N1  UNL     1      23.043   1.793  52.979  1.00  0.00    -0.356 N 
HETATM    2  H8  UNL     1      23.064   2.838  52.928  1.00  0.00     0.166 HD
ENDROOT
BRANCH   1   3
HETATM    3  C6  UNL     1      21.829   1.050  52.923  1.00  0.00     0.032 A 
HETATM    4  C5  UNL     1      21.178   0.973  51.707  1.00  0.00     0.030 A 
HETATM    5  C4  UNL     1      20.008   0.241  51.707  1.00  0.00     0.012 A 
HETATM    6  C3  UNL     1      19.525  -0.365  52.830  1.00  0.00    -0.030 A 
HETATM    7  C16 UNL     1      20.199  -0.270  54.031  1.00  0.00     0.012 A 
HETATM    8  C15 UNL     1      21.380   0.455  54.081  1.00  0.00     0.030 A 
BRANCH   6   9
HETATM    9  C2  UNL     1      18.263  -1.153  52.822  1.00  0.00     0.147 C 
HETATM   10  C1  UNL     1      17.272  -0.628  51.809  1.00  0.00     0.044 C 
BRANCH   9  11
HETATM   11  O1  UNL     1      17.709  -1.131  54.101  1.00  0.00    -0.391 OA
HETATM   12  H5  UNL     1      17.922  -1.969  54.601  1.00  0.00     0.210 HD
ENDBRANCH   9  11
ENDBRANCH   6   9
ENDBRANCH   1   3
BRANCH   1  13
HETATM   13  C7  UNL     1      24.404   1.401  53.105  1.00  0.00     0.064 A 
HETATM   14  C8  UNL     1      24.876   0.158  53.072  1.00  0.00     0.116 A 
HETATM   15  C9  UNL     1      26.330   0.139  53.234  1.00  0.00     0.066 A 
HETATM   16  C10 UNL     1      27.223  -0.838  53.267  1.00  0.00     0.010 A 
HETATM   17  N2  UNL     1      26.696   1.507  53.369  1.00  0.00    -0.349 N 
HETATM   18  C11 UNL     1      28.671  -0.555  53.448  1.00  0.00     0.058 A 
HETATM   19  C12 UNL     1      28.937   0.901  53.579  1.00  0.00    -0.006 A 
HETATM   20  C13 UNL     1      28.063   1.896  53.549  1.00  0.00     0.088 A 
HETATM   21  C14 UNL     1      25.531   2.366  53.297  1.00  0.00     0.188 A 
BRANCH  14  22
HETATM   22  O2  UNL     1      24.122  -1.013  52.908  1.00  0.00    -0.357 OA
HETATM   23  H9  UNL     1      23.702  -1.262  52.026  1.00  0.00     0.218 HD
ENDBRANCH  14  22
ENDBRANCH   1  13
TORSDOF 5
ENDMDL
MODEL 9
REMARK VINA RESULT:      -6.8      2.178      2.732
REMARK  5 active torsions:
REMARK  status: ('A' for Active; 'I' for Inactive)
REMARK    1  A    between atoms: C2_2  and  O1_3 
REMARK    2  A    between atoms: C2_2  and  C3_4 
REMARK    3  A    between atoms: C6_7  and  N1_8 
REMARK    4  A    between atoms: N1_8  and  C7_9 
REMARK    5  A    between atoms: C8_10  and  O2_11 
ROOT
HETATM    1  N1  UNL     1      23.048  -0.708  53.563  1.00  0.00    -0.356 N 
HETATM    2  H8  UNL     1      23.070  -1.531  54.209  1.00  0.00     0.166 HD
ENDROOT
BRANCH   1   3
HETATM    3  C6  UNL     1      21.879  -0.331  52.844  1.00  0.00     0.032 A 
HETATM    4  C5  UNL     1      22.041   0.150  51.558  1.00  0.00     0.030 A 
HETATM    5  C4  UNL     1      20.877   0.500  50.905  1.00  0.00     0.012 A 
HETATM    6  C3  UNL     1      19.649   0.380  51.486  1.00  0.00    -0.030 A 
HETATM    7  C16 UNL     1      19.518  -0.104  52.772  1.00  0.00     0.012 A 
HETATM    8  C15 UNL     1      20.660  -0.469  53.470  1.00  0.00     0.030 A 
BRANCH   6   9
HETATM    9  C2  UNL     1      18.398   0.759  50.775  1.00  0.00     0.147 C 
HETATM   10  C1  UNL     1      17.318  -0.286  50.930  1.00  0.00     0.044 C 
BRANCH   9  11
HETATM   11  O1  UNL     1      18.689   0.964  49.427  1.00  0.00    -0.391 OA
HETATM   12  H5  UNL     1      19.138   1.843  49.284  1.00  0.00     0.210 HD
ENDBRANCH   9  11
ENDBRANCH   6   9
ENDBRANCH   1   3
BRANCH   1  13
HETATM   13  C7  UNL     1      24.361  -0.162  53.617  1.00  0.00     0.064 A 
HETATM   14  C8  UNL     1      25.326  -0.505  54.465  1.00  0.00     0.116 A 
HETATM   15  C9  UNL     1      26.543   0.270  54.224  1.00  0.00     0.066 A 
HETATM   16  C10 UNL     1      27.736   0.282  54.799  1.00  0.00     0.010 A 
HETATM   17  N2  UNL     1      26.217   1.124  53.134  1.00  0.00    -0.349 N 
HETATM   18  C11 UNL     1      28.809   1.198  54.331  1.00  0.00     0.058 A 
HETATM   19  C12 UNL     1      28.359   2.041  53.193  1.00  0.00    -0.006 A 
HETATM   20  C13 UNL     1      27.174   2.048  52.601  1.00  0.00     0.088 A 
HETATM   21  C14 UNL     1      24.853   0.909  52.696  1.00  0.00     0.188 A 
BRANCH  14  22
HETATM   22  O2  UNL     1      25.238  -1.473  55.476  1.00  0.00    -0.357 OA
HETATM   23  H9  UNL     1      24.632  -2.275  55.401  1.00  0.00     0.218 HD
ENDBRANCH  14  22
ENDBRANCH   1  13
TORSDOF 5
ENDMDL
