MODEL 1
REMARK VINA RESULT:      -7.9      0.000      0.000
REMARK  4 active torsions:
REMARK  status: ('A' for Active; 'I' for Inactive)
REMARK    1  A    between atoms: C1_2  and  C2_3 
REMARK       I    between atoms: C1_2  and  N2_11 
REMARK    2  A    between atoms: C2_3  and  C3_4 
REMARK    3  A    between atoms: N2_11  and  S1_12 
REMARK    4  A    between atoms: S1_12  and  C8_15 
ROOT
HETATM    1  O1  UNL     1      24.505   2.947  53.316  1.00  0.00    -0.272 OA
HETATM    2  C1  UNL     1      24.301   1.724  53.003  1.00  0.00     0.235 C 
HETATM    3  N2  UNL     1      23.571   1.810  51.767  1.00  0.00    -0.250 N 
HETATM    4  H8  UNL     1      23.229   0.967  51.211  1.00  0.00     0.181 HD
ENDROOT
BRANCH   3   5
HETATM    5  S1  UNL     1      23.263   3.420  51.204  1.00  0.00     0.265 S 
HETATM    6  O2  UNL     1      22.872   4.338  52.321  1.00  0.00    -0.200 OA
HETATM    7  O3  UNL     1      22.122   3.435  50.217  1.00  0.00    -0.200 OA
BRANCH   5   8
HETATM    8  C8  UNL     1      24.689   3.982  50.364  1.00  0.00     0.080 A 
HETATM    9  C9  UNL     1      25.749   3.179  49.981  1.00  0.00     0.027 A 
HETATM   10  C10 UNL     1      26.829   3.757  49.315  1.00  0.00     0.025 A 
HETATM   11  C11 UNL     1      26.839   5.111  49.042  1.00  0.00     0.034 A 
HETATM   12 CL1  UNL     1      28.209   5.782  48.210  1.00  0.00    -0.084 Cl
HETATM   13  C12 UNL     1      25.780   5.921  49.424  1.00  0.00     0.025 A 
HETATM   14  C13 UNL     1      24.714   5.335  50.085  1.00  0.00     0.027 A 
ENDBRANCH   5   8
ENDBRANCH   3   5
BRANCH   2  15
HETATM   15  C2  UNL     1      24.527   0.314  53.423  1.00  0.00     0.139 C 
BRANCH  15  16
HETATM   16  C3  UNL     1      25.934   0.042  53.799  1.00  0.00    -0.052 A 
HETATM   17  C4  UNL     1      26.627   0.238  54.906  1.00  0.00     0.094 A 
HETATM   18  N1  UNL     1      28.000  -0.114  55.029  1.00  0.00    -0.343 N 
HETATM   19  C5  UNL     1      28.698  -0.704  53.945  1.00  0.00     0.184 A 
HETATM   20  H4  UNL     1      28.446   0.086  55.948  1.00  0.00     0.167 HD
HETATM   21  F1  UNL     1      30.003  -1.044  54.050  1.00  0.00    -0.187 F 
HETATM   22  C6  UNL     1      27.985  -0.889  52.854  1.00  0.00     0.039 A 
HETATM   23  C7  UNL     1      26.564  -0.569  52.598  1.00  0.00     0.067 A 
ENDBRANCH  15  16
ENDBRANCH   2  15
TORSDOF 4
ENDMDL
MODEL 2
REMARK VINA RESULT:      -7.5      1.543      1.740
REMARK  4 active torsions:
REMARK  status: ('A' for Active; 'I' for Inactive)
REMARK    1  A    between atoms: C1_2  and  C2_3 
REMARK       I    between atoms: C1_2  and  N2_11 
REMARK    2  A    between atoms: C2_3  and  C3_4 
REMARK    3  A    between atoms: N2_11  and  S1_12 
REMARK    4  A    between atoms: S1_12  and  C8_15 
ROOT
HETATM    1  O1  UNL     1      24.790   1.953  51.273  1.00  0.00    -0.272 OA
HETATM    2  C1  UNL     1      25.015   2.541  52.386  1.00  0.00     0.235 C 
HETATM    3  N2  UNL     1      24.761   3.925  52.091  1.00  0.00    -0.250 N 
HETATM    4  H8  UNL     1      24.852   4.717  52.800  1.00  0.00     0.181 HD
ENDROOT
BRANCH   3   5
HETATM    5  S1  UNL     1      24.280   4.256  50.459  1.00  0.00     0.265 S 
HETATM    6  O2  UNL     1      23.112   5.191  50.399  1.00  0.00    -0.200 OA
HETATM    7  O3  UNL     1      23.851   2.989  49.759  1.00  0.00    -0.200 OA
BRANCH   5   8
HETATM    8  C8  UNL     1      25.667   4.884  49.602  1.00  0.00     0.080 A 
HETATM    9  C9  UNL     1      26.810   4.161  49.309  1.00  0.00     0.027 A 
HETATM   10  C10 UNL     1      27.846   4.787  48.617  1.00  0.00     0.025 A 
HETATM   11  C11 UNL     1      27.733   6.108  48.231  1.00  0.00     0.034 A 
HETATM   12 CL1  UNL     1      29.053   6.841  47.371  1.00  0.00    -0.084 Cl
HETATM   13  C12 UNL     1      26.590   6.837  48.523  1.00  0.00     0.025 A 
HETATM   14  C13 UNL     1      25.569   6.206  49.210  1.00  0.00     0.027 A 
ENDBRANCH   5   8
ENDBRANCH   3   5
BRANCH   2  15
HETATM   15  C2  UNL     1      25.422   2.336  53.803  1.00  0.00     0.139 C 
BRANCH  15  16
HETATM   16  C3  UNL     1      26.562   1.400  53.946  1.00  0.00    -0.052 A 
HETATM   17  C4  UNL     1      26.680   0.196  54.476  1.00  0.00     0.094 A 
HETATM   18  N1  UNL     1      27.909  -0.520  54.496  1.00  0.00    -0.343 N 
HETATM   19  C5  UNL     1      29.084   0.040  53.932  1.00  0.00     0.184 A 
HETATM   20  H4  UNL     1      27.887  -1.462  54.939  1.00  0.00     0.167 HD
HETATM   21  F1  UNL     1      30.259  -0.631  53.944  1.00  0.00    -0.187 F 
HETATM   22  C6  UNL     1      28.939   1.239  53.411  1.00  0.00     0.039 A 
HETATM   23  C7  UNL     1      27.728   2.085  53.329  1.00  0.00     0.067 A 
ENDBRANCH  15  16
ENDBRANCH   2  15
TORSDOF 4
ENDMDL
MODEL 3
REMARK VINA RESULT:      -7.3      3.907      6.844
REMARK  4 active torsions:
REMARK  status: ('A' for Active; 'I' for Inactive)
REMARK    1  A    between atoms: C1_2  and  C2_3 
REMARK       I    between atoms: C1_2  and  N2_11 
REMARK    2  A    between atoms: C2_3  and  C3_4 
REMARK    3  A    between atoms: N2_11  and  S1_12 
REMARK    4  A    between atoms: S1_12  and  C8_15 
ROOT
HETATM    1  O1  UNL     1      23.471   4.025  51.024  1.00  0.00    -0.272 OA
HETATM    2  C1  UNL     1      24.441   4.233  50.216  1.00  0.00     0.235 C 
HETATM    3  N2  UNL     1      25.455   3.319  50.669  1.00  0.00    -0.250 N 
HETATM    4  H8  UNL     1      26.417   3.218  50.219  1.00  0.00     0.181 HD
ENDROOT
BRANCH   3   5
HETATM    5  S1  UNL     1      25.016   2.348  52.036  1.00  0.00     0.265 S 
HETATM    6  O2  UNL     1      23.879   1.425  51.724  1.00  0.00    -0.200 OA
HETATM    7  O3  UNL     1      24.562   3.215  53.186  1.00  0.00    -0.200 OA
BRANCH   5   8
HETATM    8  C8  UNL     1      26.439   1.481  52.563  1.00  0.00     0.080 A 
HETATM    9  C9  UNL     1      27.562   2.068  53.118  1.00  0.00     0.027 A 
HETATM   10  C10 UNL     1      28.631   1.257  53.497  1.00  0.00     0.025 A 
HETATM   11  C11 UNL     1      28.568  -0.112  53.320  1.00  0.00     0.034 A 
HETATM   12 CL1  UNL     1      29.927  -1.078  53.809  1.00  0.00    -0.084 Cl
HETATM   13  C12 UNL     1      27.444  -0.705  52.764  1.00  0.00     0.025 A 
HETATM   14  C13 UNL     1      26.391   0.110  52.392  1.00  0.00     0.027 A 
ENDBRANCH   5   8
ENDBRANCH   3   5
BRANCH   2  15
HETATM   15  C2  UNL     1      24.889   5.029  49.042  1.00  0.00     0.139 C 
BRANCH  15  16
HETATM   16  C3  UNL     1      25.671   6.228  49.422  1.00  0.00    -0.052 A 
HETATM   17  C4  UNL     1      25.580   7.087  50.421  1.00  0.00     0.094 A 
HETATM   18  N1  UNL     1      26.469   8.186  50.577  1.00  0.00    -0.343 N 
HETATM   19  C5  UNL     1      27.516   8.410  49.647  1.00  0.00     0.184 A 
HETATM   20  H4  UNL     1      26.304   8.799  51.402  1.00  0.00     0.167 HD
HETATM   21  F1  UNL     1      28.368   9.452  49.784  1.00  0.00    -0.187 F 
HETATM   22  C6  UNL     1      27.585   7.541  48.661  1.00  0.00     0.039 A 
HETATM   23  C7  UNL     1      26.729   6.366  48.386  1.00  0.00     0.067 A 
ENDBRANCH  15  16
ENDBRANCH   2  15
TORSDOF 4
ENDMDL
MODEL 4
REMARK VINA RESULT:      -7.3      3.905      5.286
REMARK  4 active torsions:
REMARK  status: ('A' for Active; 'I' for Inactive)
REMARK    1  A    between atoms: C1_2  and  C2_3 
REMARK       I    between atoms: C1_2  and  N2_11 
REMARK    2  A    between atoms: C2_3  and  C3_4 
REMARK    3  A    between atoms: N2_11  and  S1_12 
REMARK    4  A    between atoms: S1_12  and  C8_15 
ROOT
HETATM    1  O1  UNL     1      24.684   1.334  51.647  1.00  0.00    -0.272 OA
HETATM    2  C1  UNL     1      24.958   2.004  52.701  1.00  0.00     0.235 C 
HETATM    3  N2  UNL     1      23.775   2.791  52.916  1.00  0.00    -0.250 N 
HETATM    4  H8  UNL     1      23.648   3.480  53.721  1.00  0.00     0.181 HD
ENDROOT
BRANCH   3   5
HETATM    5  S1  UNL     1      22.511   2.556  51.753  1.00  0.00     0.265 S 
HETATM    6  O2  UNL     1      23.053   2.201  50.403  1.00  0.00    -0.200 OA
HETATM    7  O3  UNL     1      21.704   3.819  51.573  1.00  0.00    -0.200 OA
BRANCH   5   8
HETATM    8  C8  UNL     1      21.431   1.327  52.369  1.00  0.00     0.080 A 
HETATM    9  C9  UNL     1      21.607   0.645  53.560  1.00  0.00     0.027 A 
HETATM   10  C10 UNL     1      20.667  -0.314  53.934  1.00  0.00     0.025 A 
HETATM   11  C11 UNL     1      19.578  -0.579  53.126  1.00  0.00     0.034 A 
HETATM   12 CL1  UNL     1      18.435  -1.784  53.638  1.00  0.00    -0.084 Cl
HETATM   13  C12 UNL     1      19.397   0.101  51.931  1.00  0.00     0.025 A 
HETATM   14  C13 UNL     1      20.337   1.051  51.571  1.00  0.00     0.027 A 
ENDBRANCH   5   8
ENDBRANCH   3   5
BRANCH   2  15
HETATM   15  C2  UNL     1      25.996   2.259  53.737  1.00  0.00     0.139 C 
BRANCH  15  16
HETATM   16  C3  UNL     1      27.001   1.174  53.827  1.00  0.00    -0.052 A 
HETATM   17  C4  UNL     1      26.906  -0.131  54.007  1.00  0.00     0.094 A 
HETATM   18  N1  UNL     1      28.042  -0.987  54.060  1.00  0.00    -0.343 N 
HETATM   19  C5  UNL     1      29.352  -0.463  53.917  1.00  0.00     0.184 A 
HETATM   20  H4  UNL     1      27.850  -1.999  54.206  1.00  0.00     0.167 HD
HETATM   21  F1  UNL     1      30.440  -1.266  53.964  1.00  0.00    -0.187 F 
HETATM   22  C6  UNL     1      29.418   0.839  53.739  1.00  0.00     0.039 A 
HETATM   23  C7  UNL     1      28.324   1.833  53.666  1.00  0.00     0.067 A 
ENDBRANCH  15  16
ENDBRANCH   2  15
TORSDOF 4
ENDMDL
MODEL 5
REMARK VINA RESULT:      -6.8      3.157      3.518
REMARK  4 active torsions:
REMARK  status: ('A' for Active; 'I' for Inactive)
REMARK    1  A    between atoms: C1_2  and  C2_3 
REMARK       I    between atoms: C1_2  and  N2_11 
REMARK    2  A    between atoms: C2_3  and  C3_4 
REMARK    3  A    between atoms: N2_11  and  S1_12 
REMARK    4  A    between atoms: S1_12  and  C8_15 
ROOT
HETATM    1  O1  UNL     1      26.876   2.328  50.463  1.00  0.00    -0.272 OA
HETATM    2  C1  UNL     1      26.369   2.446  51.632  1.00  0.00     0.235 C 
HETATM    3  N2  UNL     1      25.595   3.655  51.542  1.00  0.00    -0.250 N 
HETATM    4  H8  UNL     1      25.026   4.065  52.345  1.00  0.00     0.181 HD
ENDROOT
BRANCH   3   5
HETATM    5  S1  UNL     1      25.634   4.442  49.998  1.00  0.00     0.265 S 
HETATM    6  O2  UNL     1      26.862   4.084  49.219  1.00  0.00    -0.200 OA
HETATM    7  O3  UNL     1      25.651   5.942  50.161  1.00  0.00    -0.200 OA
BRANCH   5   8
HETATM    8  C8  UNL     1      24.170   4.024  49.140  1.00  0.00     0.080 A 
HETATM    9  C9  UNL     1      23.613   2.759  49.098  1.00  0.00     0.027 A 
HETATM   10  C10 UNL     1      22.438   2.562  48.373  1.00  0.00     0.025 A 
HETATM   11  C11 UNL     1      21.840   3.616  47.710  1.00  0.00     0.034 A 
HETATM   12 CL1  UNL     1      20.376   3.318  46.822  1.00  0.00    -0.084 Cl
HETATM   13  C12 UNL     1      22.395   4.887  47.749  1.00  0.00     0.025 A 
HETATM   14  C13 UNL     1      23.561   5.069  48.471  1.00  0.00     0.027 A 
ENDBRANCH   5   8
ENDBRANCH   3   5
BRANCH   2  15
HETATM   15  C2  UNL     1      26.287   1.828  52.983  1.00  0.00     0.139 C 
BRANCH  15  16
HETATM   16  C3  UNL     1      26.988   0.525  53.065  1.00  0.00    -0.052 A 
HETATM   17  C4  UNL     1      26.602  -0.722  52.864  1.00  0.00     0.094 A 
HETATM   18  N1  UNL     1      27.479  -1.833  53.009  1.00  0.00    -0.343 N 
HETATM   19  C5  UNL     1      28.834  -1.644  53.382  1.00  0.00     0.184 A 
HETATM   20  H4  UNL     1      27.068  -2.772  52.825  1.00  0.00     0.167 HD
HETATM   21  F1  UNL     1      29.678  -2.692  53.522  1.00  0.00    -0.187 F 
HETATM   22  C6  UNL     1      29.193  -0.393  53.576  1.00  0.00     0.039 A 
HETATM   23  C7  UNL     1      28.386   0.842  53.461  1.00  0.00     0.067 A 
ENDBRANCH  15  16
ENDBRANCH   2  15
TORSDOF 4
ENDMDL
MODEL 6
REMARK VINA RESULT:      -6.8      4.973      6.149
REMARK  4 active torsions:
REMARK  status: ('A' for Active; 'I' for Inactive)
REMARK    1  A    between atoms: C1_2  and  C2_3 
REMARK       I    between atoms: C1_2  and  N2_11 
REMARK    2  A    between atoms: C2_3  and  C3_4 
REMARK    3  A    between atoms: N2_11  and  S1_12 
REMARK    4  A    between atoms: S1_12  and  C8_15 
ROOT
HETATM    1  O1  UNL     1      22.259   1.466  53.567  1.00  0.00    -0.272 OA
HETATM    2  C1  UNL     1      23.049   0.678  52.942  1.00  0.00     0.235 C 
HETATM    3  N2  UNL     1      22.402  -0.602  53.053  1.00  0.00    -0.250 N 
HETATM    4  H8  UNL     1      22.787  -1.507  52.640  1.00  0.00     0.181 HD
ENDROOT
BRANCH   3   5
HETATM    5  S1  UNL     1      20.905  -0.599  53.926  1.00  0.00     0.265 S 
HETATM    6  O2  UNL     1      20.870   0.474  54.971  1.00  0.00    -0.200 OA
HETATM    7  O3  UNL     1      20.702  -1.908  54.648  1.00  0.00    -0.200 OA
BRANCH   5   8
HETATM    8  C8  UNL     1      19.605  -0.430  52.770  1.00  0.00     0.080 A 
HETATM    9  C9  UNL     1      18.333  -0.949  52.930  1.00  0.00     0.027 A 
HETATM   10  C10 UNL     1      17.387  -0.741  51.927  1.00  0.00     0.025 A 
HETATM   11  C11 UNL     1      17.716  -0.025  50.793  1.00  0.00     0.034 A 
HETATM   12 CL1  UNL     1      16.500   0.207  49.572  1.00  0.00    -0.084 Cl
HETATM   13  C12 UNL     1      18.990   0.498  50.627  1.00  0.00     0.025 A 
HETATM   14  C13 UNL     1      19.920   0.284  51.629  1.00  0.00     0.027 A 
ENDBRANCH   5   8
ENDBRANCH   3   5
BRANCH   2  15
HETATM   15  C2  UNL     1      24.325   0.596  52.181  1.00  0.00     0.139 C 
BRANCH  15  16
HETATM   16  C3  UNL     1      25.494   0.304  53.043  1.00  0.00    -0.052 A 
HETATM   17  C4  UNL     1      25.614  -0.163  54.273  1.00  0.00     0.094 A 
HETATM   18  N1  UNL     1      26.874  -0.363  54.902  1.00  0.00    -0.343 N 
HETATM   19  C5  UNL     1      28.081  -0.064  54.220  1.00  0.00     0.184 A 
HETATM   20  H4  UNL     1      26.850  -0.736  55.874  1.00  0.00     0.167 HD
HETATM   21  F1  UNL     1      29.286  -0.250  54.807  1.00  0.00    -0.187 F 
HETATM   22  C6  UNL     1      27.934   0.400  52.998  1.00  0.00     0.039 A 
HETATM   23  C7  UNL     1      26.692   0.653  52.234  1.00  0.00     0.067 A 
ENDBRANCH  15  16
ENDBRANCH   2  15
TORSDOF 4
ENDMDL
MODEL 7
REMARK VINA RESULT:      -6.8      4.004      5.356
REMARK  4 active torsions:
REMARK  status: ('A' for Active; 'I' for Inactive)
REMARK    1  A    between atoms: C1_2  and  C2_3 
REMARK       I    between atoms: C1_2  and  N2_11 
REMARK    2  A    between atoms: C2_3  and  C3_4 
REMARK    3  A    between atoms: N2_11  and  S1_12 
REMARK    4  A    between atoms: S1_12  and  C8_15 
ROOT
HETATM    1  O1  UNL     1      24.407   3.982  50.992  1.00  0.00    -0.272 OA
HETATM    2  C1  UNL     1      24.910   2.809  50.909  1.00  0.00     0.235 C 
HETATM    3  N2  UNL     1      23.772   1.945  51.073  1.00  0.00    -0.250 N 
HETATM    4  H8  UNL     1      23.820   0.879  51.059  1.00  0.00     0.181 HD
ENDROOT
BRANCH   3   5
HETATM    5  S1  UNL     1      22.257   2.755  51.303  1.00  0.00     0.265 S 
HETATM    6  O2  UNL     1      21.827   3.495  50.073  1.00  0.00    -0.200 OA
HETATM    7  O3  UNL     1      22.358   3.779  52.406  1.00  0.00    -0.200 OA
BRANCH   5   8
HETATM    8  C8  UNL     1      21.077   1.565  51.797  1.00  0.00     0.080 A 
HETATM    9  C9  UNL     1      20.019   1.130  51.019  1.00  0.00     0.027 A 
HETATM   10  C10 UNL     1      19.148   0.173  51.537  1.00  0.00     0.025 A 
HETATM   11  C11 UNL     1      19.339  -0.332  52.808  1.00  0.00     0.034 A 
HETATM   12 CL1  UNL     1      18.224  -1.524  53.408  1.00  0.00    -0.084 Cl
HETATM   13  C12 UNL     1      20.397   0.101  53.593  1.00  0.00     0.025 A 
HETATM   14  C13 UNL     1      21.255   1.051  53.068  1.00  0.00     0.027 A 
ENDBRANCH   5   8
ENDBRANCH   3   5
BRANCH   2  15
HETATM   15  C2  UNL     1      26.172   2.043  50.717  1.00  0.00     0.139 C 
BRANCH  15  16
HETATM   16  C3  UNL     1      26.810   1.652  51.995  1.00  0.00    -0.052 A 
HETATM   17  C4  UNL     1      27.348   2.343  52.984  1.00  0.00     0.094 A 
HETATM   18  N1  UNL     1      27.912   1.728  54.136  1.00  0.00    -0.343 N 
HETATM   19  C5  UNL     1      27.919   0.316  54.275  1.00  0.00     0.184 A 
HETATM   20  H4  UNL     1      28.309   2.369  54.854  1.00  0.00     0.167 HD
HETATM   21  F1  UNL     1      28.452  -0.281  55.366  1.00  0.00    -0.187 F 
HETATM   22  C6  UNL     1      27.377  -0.348  53.277  1.00  0.00     0.039 A 
HETATM   23  C7  UNL     1      26.763   0.166  52.033  1.00  0.00     0.067 A 
ENDBRANCH  15  16
ENDBRANCH   2  15
TORSDOF 4
ENDMDL
MODEL 8
REMARK VINA RESULT:      -6.8      4.223      7.091
REMARK  4 active torsions:
REMARK  status: ('A' for Active; 'I' for Inactive)
REMARK    1  A    between atoms: C1_2  and  C2_3 
REMARK       I    between atoms: C1_2  and  N2_11 
REMARK    2  A    between atoms: C2_3  and  C3_4 
REMARK    3  A    between atoms: N2_11  and  S1_12 
REMARK    4  A    between atoms: S1_12  and  C8_15 
ROOT
HETATM    1  O1  UNL     1      25.760   2.550  49.660  1.00  0.00    -0.272 OA
HETATM    2  C1  UNL     1      25.995   3.788  49.883  1.00  0.00     0.235 C 
HETATM    3  N2  UNL     1      25.554   3.973  51.240  1.00  0.00    -0.250 N 
HETATM    4  H8  UNL     1      25.601   4.901  51.765  1.00  0.00     0.181 HD
ENDROOT
BRANCH   3   5
HETATM    5  S1  UNL     1      24.918   2.556  52.009  1.00  0.00     0.265 S 
HETATM    6  O2  UNL     1      23.940   1.836  51.133  1.00  0.00    -0.200 OA
HETATM    7  O3  UNL     1      24.176   2.918  53.272  1.00  0.00    -0.200 OA
BRANCH   5   8
HETATM    8  C8  UNL     1      26.263   1.538  52.465  1.00  0.00     0.080 A 
HETATM    9  C9  UNL     1      26.288   0.160  52.342  1.00  0.00     0.027 A 
HETATM   10  C10 UNL     1      27.429  -0.533  52.745  1.00  0.00     0.025 A 
HETATM   11  C11 UNL     1      28.517   0.147  53.258  1.00  0.00     0.034 A 
HETATM   12 CL1  UNL     1      29.914  -0.764  53.745  1.00  0.00    -0.084 Cl
HETATM   13  C12 UNL     1      28.497   1.528  53.382  1.00  0.00     0.025 A 
HETATM   14  C13 UNL     1      27.359   2.204  52.980  1.00  0.00     0.027 A 
ENDBRANCH   5   8
ENDBRANCH   3   5
BRANCH   2  15
HETATM   15  C2  UNL     1      26.527   5.045  49.290  1.00  0.00     0.139 C 
BRANCH  15  16
HETATM   16  C3  UNL     1      25.651   6.214  49.534  1.00  0.00    -0.052 A 
HETATM   17  C4  UNL     1      25.743   7.260  50.336  1.00  0.00     0.094 A 
HETATM   18  N1  UNL     1      24.749   8.277  50.394  1.00  0.00    -0.343 N 
HETATM   19  C5  UNL     1      23.593   8.209  49.575  1.00  0.00     0.184 A 
HETATM   20  H4  UNL     1      24.926   9.056  51.062  1.00  0.00     0.167 HD
HETATM   21  F1  UNL     1      22.642   9.170  49.621  1.00  0.00    -0.187 F 
HETATM   22  C6  UNL     1      23.526   7.158  48.786  1.00  0.00     0.039 A 
HETATM   23  C7  UNL     1      24.481   6.039  48.632  1.00  0.00     0.067 A 
ENDBRANCH  15  16
ENDBRANCH   2  15
TORSDOF 4
ENDMDL
MODEL 9
REMARK VINA RESULT:      -6.7      3.001      3.836
REMARK  4 active torsions:
REMARK  status: ('A' for Active; 'I' for Inactive)
REMARK    1  A    between atoms: C1_2  and  C2_3 
REMARK       I    between atoms: C1_2  and  N2_11 
REMARK    2  A    between atoms: C2_3  and  C3_4 
REMARK    3  A    between atoms: N2_11  and  S1_12 
REMARK    4  A    between atoms: S1_12  and  C8_15 
ROOT
HETATM    1  O1  UNL     1      22.210   4.089  51.326  1.00  0.00    -0.272 OA
HETATM    2  C1  UNL     1      22.717   3.048  50.783  1.00  0.00     0.235 C 
HETATM    3  N2  UNL     1      23.867   3.558  50.086  1.00  0.00    -0.250 N 
HETATM    4  H8  UNL     1      24.537   2.959  49.513  1.00  0.00     0.181 HD
ENDROOT
BRANCH   3   5
HETATM    5  S1  UNL     1      24.118   5.267  50.231  1.00  0.00     0.265 S 
HETATM    6  O2  UNL     1      24.060   5.722  51.657  1.00  0.00    -0.200 OA
HETATM    7  O3  UNL     1      23.047   6.032  49.493  1.00  0.00    -0.200 OA
BRANCH   5   8
HETATM    8  C8  UNL     1      25.649   5.654  49.482  1.00  0.00     0.080 A 
HETATM    9  C9  UNL     1      26.058   6.929  49.133  1.00  0.00     0.027 A 
HETATM   10  C10 UNL     1      27.308   7.099  48.540  1.00  0.00     0.025 A 
HETATM   11  C11 UNL     1      28.126   6.010  48.307  1.00  0.00     0.034 A 
HETATM   12 CL1  UNL     1      29.675   6.275  47.565  1.00  0.00    -0.084 Cl
HETATM   13  C12 UNL     1      27.721   4.730  48.655  1.00  0.00     0.025 A 
HETATM   14  C13 UNL     1      26.478   4.575  49.242  1.00  0.00     0.027 A 
ENDBRANCH   5   8
ENDBRANCH   3   5
BRANCH   2  15
HETATM   15  C2  UNL     1      22.567   1.577  50.614  1.00  0.00     0.139 C 
BRANCH  15  16
HETATM   16  C3  UNL     1      22.807   0.824  51.867  1.00  0.00    -0.052 A 
HETATM   17  C4  UNL     1      23.873   0.651  52.627  1.00  0.00     0.094 A 
HETATM   18  N1  UNL     1      23.856  -0.136  53.812  1.00  0.00    -0.343 N 
HETATM   19  C5  UNL     1      22.667  -0.783  54.236  1.00  0.00     0.184 A 
HETATM   20  H4  UNL     1      24.754  -0.203  54.334  1.00  0.00     0.167 HD
HETATM   21  F1  UNL     1      22.638  -1.534  55.361  1.00  0.00    -0.187 F 
HETATM   22  C6  UNL     1      21.620  -0.595  53.462  1.00  0.00     0.039 A 
HETATM   23  C7  UNL     1      21.506   0.192  52.214  1.00  0.00     0.067 A 
ENDBRANCH  15  16
ENDBRANCH   2  15
TORSDOF 4
ENDMDL
