MODEL 1
REMARK VINA RESULT:      -8.6      0.000      0.000
REMARK  3 active torsions:
REMARK  status: ('A' for Active; 'I' for Inactive)
REMARK    1  A    between atoms: N1_1  and  C1_2 
REMARK    2  A    between atoms: C6_8  and  C7_9 
REMARK    3  A    between atoms: C10_12  and  O1_13 
ROOT
HETATM    1  C1  UNL     1      29.410   1.437  53.921  1.00  0.00     0.221 C 
HETATM    2  C2  UNL     1      29.031   0.139  54.564  1.00  0.00     0.065 C 
HETATM    3  C3  UNL     1      27.879  -0.553  53.868  1.00  0.00     0.276 C 
HETATM    4  N2  UNL     1      26.684   0.233  53.897  1.00  0.00     0.104 N 
HETATM    5  C4  UNL     1      25.747  -0.218  52.890  1.00  0.00     0.249 C 
HETATM    6  C5  UNL     1      24.338  -0.287  53.418  1.00  0.00     0.018 C 
HETATM    7  C6  UNL     1      23.349   0.576  53.257  1.00  0.00    -0.026 C 
HETATM    8  C13 UNL     1      23.540   2.031  53.033  1.00  0.00     0.207 C 
HETATM    9  O2  UNL     1      24.775   2.465  53.402  1.00  0.00    -0.379 OA
HETATM   10  C14 UNL     1      25.862   2.098  52.692  1.00  0.00     0.157 C 
HETATM   11  C15 UNL     1      25.798   0.889  51.841  1.00  0.00     0.074 C 
HETATM   12  C16 UNL     1      26.915   1.638  53.716  1.00  0.00     0.254 C 
HETATM   13  C17 UNL     1      28.251   1.995  53.156  1.00  0.00     0.073 C 
ENDROOT
BRANCH   7  14
HETATM   14  C7  UNL     1      21.971   0.103  53.294  1.00  0.00    -0.028 A 
HETATM   15  C8  UNL     1      21.607  -0.966  54.082  1.00  0.00     0.014 A 
HETATM   16  C9  UNL     1      20.324  -1.463  54.163  1.00  0.00     0.037 A 
HETATM   17  C10 UNL     1      19.313  -0.881  53.427  1.00  0.00     0.065 A 
HETATM   18  C11 UNL     1      19.622   0.182  52.629  1.00  0.00     0.037 A 
HETATM   19  C12 UNL     1      20.921   0.638  52.585  1.00  0.00     0.014 A 
BRANCH  17  20
HETATM   20  O1  UNL     1      18.016  -1.352  53.482  1.00  0.00    -0.361 OA
HETATM   21  H12 UNL     1      17.670  -1.722  54.364  1.00  0.00     0.217 HD
ENDBRANCH  17  20
ENDBRANCH   7  14
BRANCH   1  22
HETATM   22  N1  UNL     1      29.888   2.350  54.930  1.00  0.00     0.083 N 
HETATM   23  H1  UNL     1      29.912   1.874  55.860  1.00  0.00     0.313 HD
HETATM   24  H2  UNL     1      30.811   2.752  54.691  1.00  0.00     0.313 HD
ENDBRANCH   1  22
TORSDOF 3
ENDMDL
MODEL 2
REMARK VINA RESULT:      -8.2      3.712      6.451
REMARK  3 active torsions:
REMARK  status: ('A' for Active; 'I' for Inactive)
REMARK    1  A    between atoms: N1_1  and  C1_2 
REMARK    2  A    between atoms: C6_8  and  C7_9 
REMARK    3  A    between atoms: C10_12  and  O1_13 
ROOT
HETATM    1  C1  UNL     1      23.914   6.662  50.309  1.00  0.00     0.221 C 
HETATM    2  C2  UNL     1      25.339   6.522  49.870  1.00  0.00     0.065 C 
HETATM    3  C3  UNL     1      25.727   5.091  49.562  1.00  0.00     0.276 C 
HETATM    4  N2  UNL     1      25.614   4.246  50.712  1.00  0.00     0.104 N 
HETATM    5  C4  UNL     1      25.562   2.853  50.323  1.00  0.00     0.249 C 
HETATM    6  C5  UNL     1      26.426   1.988  51.203  1.00  0.00     0.018 C 
HETATM    7  C6  UNL     1      26.067   1.216  52.216  1.00  0.00    -0.026 C 
HETATM    8  C13 UNL     1      24.876   1.459  53.068  1.00  0.00     0.207 C 
HETATM    9  O2  UNL     1      24.418   2.737  52.984  1.00  0.00    -0.379 OA
HETATM   10  C14 UNL     1      23.835   3.174  51.848  1.00  0.00     0.157 C 
HETATM   11  C15 UNL     1      24.107   2.470  50.576  1.00  0.00     0.074 C 
HETATM   12  C16 UNL     1      24.472   4.539  51.531  1.00  0.00     0.254 C 
HETATM   13  C17 UNL     1      23.418   5.369  50.877  1.00  0.00     0.073 C 
ENDROOT
BRANCH   7  14
HETATM   14  C7  UNL     1      26.866   0.042  52.542  1.00  0.00    -0.028 A 
HETATM   15  C8  UNL     1      26.413  -1.227  52.259  1.00  0.00     0.014 A 
HETATM   16  C9  UNL     1      27.117  -2.378  52.540  1.00  0.00     0.037 A 
HETATM   17  C10 UNL     1      28.357  -2.297  53.140  1.00  0.00     0.065 A 
HETATM   18  C11 UNL     1      28.851  -1.061  53.441  1.00  0.00     0.037 A 
HETATM   19  C12 UNL     1      28.105   0.057  53.139  1.00  0.00     0.014 A 
BRANCH  17  20
HETATM   20  O1  UNL     1      29.092  -3.428  53.438  1.00  0.00    -0.361 OA
HETATM   21  H12 UNL     1      28.601  -4.314  53.536  1.00  0.00     0.217 HD
ENDBRANCH  17  20
ENDBRANCH   7  14
BRANCH   1  22
HETATM   22  N1  UNL     1      23.808   7.748  51.251  1.00  0.00     0.083 N 
HETATM   23  H1  UNL     1      22.936   8.295  51.070  1.00  0.00     0.313 HD
HETATM   24  H2  UNL     1      23.849   7.424  52.232  1.00  0.00     0.313 HD
ENDBRANCH   1  22
TORSDOF 3
ENDMDL
MODEL 3
REMARK VINA RESULT:      -7.9      3.793      4.666
REMARK  3 active torsions:
REMARK  status: ('A' for Active; 'I' for Inactive)
REMARK    1  A    between atoms: N1_1  and  C1_2 
REMARK    2  A    between atoms: C6_8  and  C7_9 
REMARK    3  A    between atoms: C10_12  and  O1_13 
ROOT
HETATM    1  C1  UNL     1      26.921   6.335  48.642  1.00  0.00     0.221 C 
HETATM    2  C2  UNL     1      27.672   5.081  48.964  1.00  0.00     0.065 C 
HETATM    3  C3  UNL     1      26.783   3.858  49.035  1.00  0.00     0.276 C 
HETATM    4  N2  UNL     1      25.799   3.970  50.068  1.00  0.00     0.104 N 
HETATM    5  C4  UNL     1      24.717   3.033  49.852  1.00  0.00     0.249 C 
HETATM    6  C5  UNL     1      24.303   2.344  51.126  1.00  0.00     0.018 C 
HETATM    7  C6  UNL     1      23.273   2.604  51.913  1.00  0.00    -0.026 C 
HETATM    8  C13 UNL     1      22.648   3.944  52.052  1.00  0.00     0.207 C 
HETATM    9  O2  UNL     1      23.455   4.951  51.624  1.00  0.00    -0.379 OA
HETATM   10  C14 UNL     1      23.726   5.088  50.309  1.00  0.00     0.157 C 
HETATM   11  C15 UNL     1      23.562   3.926  49.409  1.00  0.00     0.074 C 
HETATM   12  C16 UNL     1      25.248   5.289  50.197  1.00  0.00     0.254 C 
HETATM   13  C17 UNL     1      25.483   6.192  49.032  1.00  0.00     0.073 C 
ENDROOT
BRANCH   7  14
HETATM   14  C7  UNL     1      22.687   1.532  52.707  1.00  0.00    -0.028 A 
HETATM   15  C8  UNL     1      23.451   0.474  53.147  1.00  0.00     0.014 A 
HETATM   16  C9  UNL     1      22.961  -0.571  53.900  1.00  0.00     0.037 A 
HETATM   17  C10 UNL     1      21.629  -0.595  54.258  1.00  0.00     0.065 A 
HETATM   18  C11 UNL     1      20.828   0.430  53.847  1.00  0.00     0.037 A 
HETATM   19  C12 UNL     1      21.370   1.450  53.095  1.00  0.00     0.014 A 
BRANCH  17  20
HETATM   20  O1  UNL     1      21.101  -1.626  55.011  1.00  0.00    -0.361 OA
HETATM   21  H12 UNL     1      20.093  -1.664  55.145  1.00  0.00     0.217 HD
ENDBRANCH  17  20
ENDBRANCH   7  14
BRANCH   1  22
HETATM   22  N1  UNL     1      27.554   7.453  49.295  1.00  0.00     0.083 N 
HETATM   23  H1  UNL     1      28.393   7.759  48.750  1.00  0.00     0.313 HD
HETATM   24  H2  UNL     1      26.901   8.241  49.449  1.00  0.00     0.313 HD
ENDBRANCH   1  22
TORSDOF 3
ENDMDL
MODEL 4
REMARK VINA RESULT:      -7.7      3.509      6.801
REMARK  3 active torsions:
REMARK  status: ('A' for Active; 'I' for Inactive)
REMARK    1  A    between atoms: N1_1  and  C1_2 
REMARK    2  A    between atoms: C6_8  and  C7_9 
REMARK    3  A    between atoms: C10_12  and  O1_13 
ROOT
HETATM    1  C1  UNL     1      20.748   4.484  50.973  1.00  0.00     0.221 C 
HETATM    2  C2  UNL     1      20.294   3.089  51.270  1.00  0.00     0.065 C 
HETATM    3  C3  UNL     1      21.169   2.384  52.283  1.00  0.00     0.276 C 
HETATM    4  N2  UNL     1      22.516   2.240  51.821  1.00  0.00     0.104 N 
HETATM    5  C4  UNL     1      23.413   1.974  52.926  1.00  0.00     0.249 C 
HETATM    6  C5  UNL     1      24.407   0.890  52.598  1.00  0.00     0.018 C 
HETATM    7  C6  UNL     1      25.673   1.008  52.233  1.00  0.00    -0.026 C 
HETATM    8  C13 UNL     1      26.226   2.184  51.515  1.00  0.00     0.207 C 
HETATM    9  O2  UNL     1      25.266   2.937  50.915  1.00  0.00    -0.379 OA
HETATM   10  C14 UNL     1      24.406   3.658  51.664  1.00  0.00     0.157 C 
HETATM   11  C15 UNL     1      24.183   3.282  53.077  1.00  0.00     0.074 C 
HETATM   12  C16 UNL     1      23.001   3.381  51.098  1.00  0.00     0.254 C 
HETATM   13  C17 UNL     1      22.206   4.631  51.277  1.00  0.00     0.073 C 
ENDROOT
BRANCH   7  14
HETATM   14  C7  UNL     1      26.612  -0.062  52.540  1.00  0.00    -0.028 A 
HETATM   15  C8  UNL     1      27.834   0.208  53.115  1.00  0.00     0.014 A 
HETATM   16  C9  UNL     1      28.767  -0.756  53.431  1.00  0.00     0.037 A 
HETATM   17  C10 UNL     1      28.498  -2.085  53.175  1.00  0.00     0.065 A 
HETATM   18  C11 UNL     1      27.300  -2.405  52.606  1.00  0.00     0.037 A 
HETATM   19  C12 UNL     1      26.403  -1.402  52.310  1.00  0.00     0.014 A 
BRANCH  17  20
HETATM   20  O1  UNL     1      29.409  -3.078  53.478  1.00  0.00    -0.361 OA
HETATM   21  H12 UNL     1      30.357  -2.996  53.117  1.00  0.00     0.217 HD
ENDBRANCH  17  20
ENDBRANCH   7  14
BRANCH   1  22
HETATM   22  N1  UNL     1      20.442   4.805  49.601  1.00  0.00     0.083 N 
HETATM   23  H1  UNL     1      19.704   5.545  49.561  1.00  0.00     0.313 HD
HETATM   24  H2  UNL     1      21.282   5.087  49.066  1.00  0.00     0.313 HD
ENDBRANCH   1  22
TORSDOF 3
ENDMDL
MODEL 5
REMARK VINA RESULT:      -7.6      3.272      7.400
REMARK  3 active torsions:
REMARK  status: ('A' for Active; 'I' for Inactive)
REMARK    1  A    between atoms: N1_1  and  C1_2 
REMARK    2  A    between atoms: C6_8  and  C7_9 
REMARK    3  A    between atoms: C10_12  and  O1_13 
ROOT
HETATM    1  C1  UNL     1      17.922   0.646  51.013  1.00  0.00     0.221 C 
HETATM    2  C2  UNL     1      18.216  -0.534  51.886  1.00  0.00     0.065 C 
HETATM    3  C3  UNL     1      19.309  -0.265  52.899  1.00  0.00     0.276 C 
HETATM    4  N2  UNL     1      20.557   0.046  52.271  1.00  0.00     0.104 N 
HETATM    5  C4  UNL     1      21.448   0.708  53.200  1.00  0.00     0.249 C 
HETATM    6  C5  UNL     1      22.854   0.175  53.111  1.00  0.00     0.018 C 
HETATM    7  C6  UNL     1      23.900   0.695  52.490  1.00  0.00    -0.026 C 
HETATM    8  C13 UNL     1      23.810   1.573  51.297  1.00  0.00     0.207 C 
HETATM    9  O2  UNL     1      22.613   1.475  50.658  1.00  0.00    -0.379 OA
HETATM   10  C14 UNL     1      21.495   1.959  51.239  1.00  0.00     0.157 C 
HETATM   11  C15 UNL     1      21.464   2.150  52.706  1.00  0.00     0.074 C 
HETATM   12  C16 UNL     1      20.423   0.863  51.099  1.00  0.00     0.254 C 
HETATM   13  C17 UNL     1      19.109   1.555  50.953  1.00  0.00     0.073 C 
ENDROOT
BRANCH   7  14
HETATM   14  C7  UNL     1      25.242   0.412  52.984  1.00  0.00    -0.028 A 
HETATM   15  C8  UNL     1      25.540   0.507  54.325  1.00  0.00     0.014 A 
HETATM   16  C9  UNL     1      26.785   0.254  54.858  1.00  0.00     0.037 A 
HETATM   17  C10 UNL     1      27.824  -0.122  54.031  1.00  0.00     0.065 A 
HETATM   18  C11 UNL     1      27.580  -0.231  52.694  1.00  0.00     0.037 A 
HETATM   19  C12 UNL     1      26.316   0.034  52.213  1.00  0.00     0.014 A 
BRANCH  17  20
HETATM   20  O1  UNL     1      29.086  -0.384  54.529  1.00  0.00    -0.361 OA
HETATM   21  H12 UNL     1      29.365  -1.354  54.659  1.00  0.00     0.217 HD
ENDBRANCH  17  20
ENDBRANCH   7  14
BRANCH   1  22
HETATM   22  N1  UNL     1      17.521   0.186  49.706  1.00  0.00     0.083 N 
HETATM   23  H1  UNL     1      17.837  -0.800  49.561  1.00  0.00     0.313 HD
HETATM   24  H2  UNL     1      16.502   0.279  49.552  1.00  0.00     0.313 HD
ENDBRANCH   1  22
TORSDOF 3
ENDMDL
MODEL 6
REMARK VINA RESULT:      -7.5      3.014      7.156
REMARK  3 active torsions:
REMARK  status: ('A' for Active; 'I' for Inactive)
REMARK    1  A    between atoms: N1_1  and  C1_2 
REMARK    2  A    between atoms: C6_8  and  C7_9 
REMARK    3  A    between atoms: C10_12  and  O1_13 
ROOT
HETATM    1  C1  UNL     1      19.672   1.610  50.830  1.00  0.00     0.221 C 
HETATM    2  C2  UNL     1      19.829   0.264  51.466  1.00  0.00     0.065 C 
HETATM    3  C3  UNL     1      20.902   0.234  52.534  1.00  0.00     0.276 C 
HETATM    4  N2  UNL     1      22.195   0.541  52.003  1.00  0.00     0.104 N 
HETATM    5  C4  UNL     1      23.105   0.930  53.060  1.00  0.00     0.249 C 
HETATM    6  C5  UNL     1      24.462   0.296  52.898  1.00  0.00     0.018 C 
HETATM    7  C6  UNL     1      25.572   0.825  52.411  1.00  0.00    -0.026 C 
HETATM    8  C13 UNL     1      25.603   1.918  51.406  1.00  0.00     0.207 C 
HETATM    9  O2  UNL     1      24.427   2.054  50.737  1.00  0.00    -0.379 OA
HETATM   10  C14 UNL     1      23.334   2.520  51.377  1.00  0.00     0.157 C 
HETATM   11  C15 UNL     1      23.265   2.432  52.852  1.00  0.00     0.074 C 
HETATM   12  C16 UNL     1      22.177   1.574  51.007  1.00  0.00     0.254 C 
HETATM   13  C17 UNL     1      20.935   2.400  50.971  1.00  0.00     0.073 C 
ENDROOT
BRANCH   7  14
HETATM   14  C7  UNL     1      26.864   0.331  52.868  1.00  0.00    -0.028 A 
HETATM   15  C8  UNL     1      27.214  -0.993  52.712  1.00  0.00     0.014 A 
HETATM   16  C9  UNL     1      28.418  -1.525  53.121  1.00  0.00     0.037 A 
HETATM   17  C10 UNL     1      29.358  -0.716  53.726  1.00  0.00     0.065 A 
HETATM   18  C11 UNL     1      29.060   0.603  53.903  1.00  0.00     0.037 A 
HETATM   19  C12 UNL     1      27.841   1.083  53.476  1.00  0.00     0.014 A 
BRANCH  17  20
HETATM   20  O1  UNL     1      30.575  -1.214  54.149  1.00  0.00    -0.361 OA
HETATM   21  H12 UNL     1      31.158  -1.708  53.477  1.00  0.00     0.217 HD
ENDBRANCH  17  20
ENDBRANCH   7  14
BRANCH   1  22
HETATM   22  N1  UNL     1      19.282   1.446  49.452  1.00  0.00     0.083 N 
HETATM   23  H1  UNL     1      19.210   2.379  48.986  1.00  0.00     0.313 HD
HETATM   24  H2  UNL     1      19.921   0.818  48.934  1.00  0.00     0.313 HD
ENDBRANCH   1  22
TORSDOF 3
ENDMDL
MODEL 7
REMARK VINA RESULT:      -7.3      4.428      5.836
REMARK  3 active torsions:
REMARK  status: ('A' for Active; 'I' for Inactive)
REMARK    1  A    between atoms: N1_1  and  C1_2 
REMARK    2  A    between atoms: C6_8  and  C7_9 
REMARK    3  A    between atoms: C10_12  and  O1_13 
ROOT
HETATM    1  C1  UNL     1      23.639   7.203  48.690  1.00  0.00     0.221 C 
HETATM    2  C2  UNL     1      23.667   7.522  50.152  1.00  0.00     0.065 C 
HETATM    3  C3  UNL     1      24.319   6.437  50.983  1.00  0.00     0.276 C 
HETATM    4  N2  UNL     1      23.612   5.196  50.893  1.00  0.00     0.104 N 
HETATM    5  C4  UNL     1      24.451   4.095  51.315  1.00  0.00     0.249 C 
HETATM    6  C5  UNL     1      23.709   3.126  52.200  1.00  0.00     0.018 C 
HETATM    7  C6  UNL     1      23.171   1.960  51.885  1.00  0.00    -0.026 C 
HETATM    8  C13 UNL     1      22.671   1.611  50.532  1.00  0.00     0.207 C 
HETATM    9  O2  UNL     1      22.441   2.704  49.755  1.00  0.00    -0.379 OA
HETATM   10  C14 UNL     1      23.476   3.444  49.306  1.00  0.00     0.157 C 
HETATM   11  C15 UNL     1      24.775   3.377  50.009  1.00  0.00     0.074 C 
HETATM   12  C16 UNL     1      23.110   4.914  49.578  1.00  0.00     0.254 C 
HETATM   13  C17 UNL     1      23.715   5.724  48.480  1.00  0.00     0.073 C 
ENDROOT
BRANCH   7  14
HETATM   14  C7  UNL     1      23.049   0.927  52.905  1.00  0.00    -0.028 A 
HETATM   15  C8  UNL     1      24.155   0.243  53.360  1.00  0.00     0.014 A 
HETATM   16  C9  UNL     1      24.111  -0.744  54.321  1.00  0.00     0.037 A 
HETATM   17  C10 UNL     1      22.904  -1.097  54.889  1.00  0.00     0.065 A 
HETATM   18  C11 UNL     1      21.778  -0.449  54.472  1.00  0.00     0.037 A 
HETATM   19  C12 UNL     1      21.879   0.529  53.507  1.00  0.00     0.014 A 
BRANCH  17  20
HETATM   20  O1  UNL     1      22.819  -2.081  55.854  1.00  0.00    -0.361 OA
HETATM   21  H12 UNL     1      23.646  -2.641  56.051  1.00  0.00     0.217 HD
ENDBRANCH  17  20
ENDBRANCH   7  14
BRANCH   1  22
HETATM   22  N1  UNL     1      22.456   7.778  48.098  1.00  0.00     0.083 N 
HETATM   23  H1  UNL     1      21.960   7.062  47.520  1.00  0.00     0.313 HD
HETATM   24  H2  UNL     1      21.823   8.190  48.805  1.00  0.00     0.313 HD
ENDBRANCH   1  22
TORSDOF 3
ENDMDL
MODEL 8
REMARK VINA RESULT:      -7.3      4.187      7.589
REMARK  3 active torsions:
REMARK  status: ('A' for Active; 'I' for Inactive)
REMARK    1  A    between atoms: N1_1  and  C1_2 
REMARK    2  A    between atoms: C6_8  and  C7_9 
REMARK    3  A    between atoms: C10_12  and  O1_13 
ROOT
HETATM    1  C1  UNL     1      22.821  -0.381  53.596  1.00  0.00     0.221 C 
HETATM    2  C2  UNL     1      24.295  -0.629  53.507  1.00  0.00     0.065 C 
HETATM    3  C3  UNL     1      25.105   0.645  53.399  1.00  0.00     0.276 C 
HETATM    4  N2  UNL     1      24.786   1.385  52.217  1.00  0.00     0.104 N 
HETATM    5  C4  UNL     1      25.223   2.760  52.338  1.00  0.00     0.249 C 
HETATM    6  C5  UNL     1      25.884   3.256  51.078  1.00  0.00     0.018 C 
HETATM    7  C6  UNL     1      25.378   4.010  50.117  1.00  0.00    -0.026 C 
HETATM    8  C13 UNL     1      23.936   4.056  49.766  1.00  0.00     0.207 C 
HETATM    9  O2  UNL     1      23.245   2.981  50.229  1.00  0.00    -0.379 OA
HETATM   10  C14 UNL     1      23.033   2.832  51.554  1.00  0.00     0.157 C 
HETATM   11  C15 UNL     1      23.918   3.530  52.512  1.00  0.00     0.074 C 
HETATM   12  C16 UNL     1      23.389   1.372  51.889  1.00  0.00     0.254 C 
HETATM   13  C17 UNL     1      22.482   0.947  52.995  1.00  0.00     0.073 C 
ENDROOT
BRANCH   7  14
HETATM   14  C7  UNL     1      26.261   4.865  49.335  1.00  0.00    -0.028 A 
HETATM   15  C8  UNL     1      25.837   6.093  48.875  1.00  0.00     0.014 A 
HETATM   16  C9  UNL     1      26.620   6.950  48.132  1.00  0.00     0.037 A 
HETATM   17  C10 UNL     1      27.913   6.594  47.808  1.00  0.00     0.065 A 
HETATM   18  C11 UNL     1      28.381   5.388  48.240  1.00  0.00     0.037 A 
HETATM   19  C12 UNL     1      27.556   4.569  48.979  1.00  0.00     0.014 A 
BRANCH  17  20
HETATM   20  O1  UNL     1      28.727   7.427  47.064  1.00  0.00    -0.361 OA
HETATM   21  H12 UNL     1      29.676   7.122  46.859  1.00  0.00     0.217 HD
ENDBRANCH  17  20
ENDBRANCH   7  14
BRANCH   1  22
HETATM   22  N1  UNL     1      22.115  -1.465  52.959  1.00  0.00     0.083 N 
HETATM   23  H1  UNL     1      22.770  -2.257  52.768  1.00  0.00     0.313 HD
HETATM   24  H2  UNL     1      21.298  -1.780  53.510  1.00  0.00     0.313 HD
ENDBRANCH   1  22
TORSDOF 3
ENDMDL
MODEL 9
REMARK VINA RESULT:      -7.1      3.449      7.303
REMARK  3 active torsions:
REMARK  status: ('A' for Active; 'I' for Inactive)
REMARK    1  A    between atoms: N1_1  and  C1_2 
REMARK    2  A    between atoms: C6_8  and  C7_9 
REMARK    3  A    between atoms: C10_12  and  O1_13 
ROOT
HETATM    1  C1  UNL     1      18.494   3.070  50.865  1.00  0.00     0.221 C 
HETATM    2  C2  UNL     1      19.628   3.951  50.440  1.00  0.00     0.065 C 
HETATM    3  C3  UNL     1      20.896   3.182  50.142  1.00  0.00     0.276 C 
HETATM    4  N2  UNL     1      21.385   2.487  51.293  1.00  0.00     0.104 N 
HETATM    5  C4  UNL     1      22.310   1.442  50.908  1.00  0.00     0.249 C 
HETATM    6  C5  UNL     1      23.524   1.405  51.800  1.00  0.00     0.018 C 
HETATM    7  C6  UNL     1      23.786   0.594  52.812  1.00  0.00    -0.026 C 
HETATM    8  C13 UNL     1      22.746  -0.052  53.652  1.00  0.00     0.207 C 
HETATM    9  O2  UNL     1      21.536   0.560  53.559  1.00  0.00    -0.379 OA
HETATM   10  C14 UNL     1      20.823   0.480  52.417  1.00  0.00     0.157 C 
HETATM   11  C15 UNL     1      21.517   0.162  51.150  1.00  0.00     0.074 C 
HETATM   12  C16 UNL     1      20.348   1.910  52.100  1.00  0.00     0.254 C 
HETATM   13  C17 UNL     1      19.018   1.789  51.434  1.00  0.00     0.073 C 
ENDROOT
BRANCH   7  14
HETATM   14  C7  UNL     1      25.170   0.292  53.150  1.00  0.00    -0.028 A 
HETATM   15  C8  UNL     1      25.682   0.600  54.391  1.00  0.00     0.014 A 
HETATM   16  C9  UNL     1      26.980   0.342  54.776  1.00  0.00     0.037 A 
HETATM   17  C10 UNL     1      27.852  -0.262  53.894  1.00  0.00     0.065 A 
HETATM   18  C11 UNL     1      27.393  -0.588  52.651  1.00  0.00     0.037 A 
HETATM   19  C12 UNL     1      26.086  -0.307  52.318  1.00  0.00     0.014 A 
BRANCH  17  20
HETATM   20  O1  UNL     1      29.160  -0.537  54.244  1.00  0.00    -0.361 OA
HETATM   21  H12 UNL     1      29.750   0.231  54.557  1.00  0.00     0.217 HD
ENDBRANCH  17  20
ENDBRANCH   7  14
BRANCH   1  22
HETATM   22  N1  UNL     1      17.660   3.782  51.802  1.00  0.00     0.083 N 
HETATM   23  H1  UNL     1      17.463   3.181  52.634  1.00  0.00     0.313 HD
HETATM   24  H2  UNL     1      18.071   4.688  52.085  1.00  0.00     0.313 HD
ENDBRANCH   1  22
TORSDOF 3
ENDMDL
