MODEL 1
REMARK VINA RESULT:      -8.8      0.000      0.000
REMARK  5 active torsions:
REMARK  status: ('A' for Active; 'I' for Inactive)
REMARK    1  A    between atoms: N1_2  and  C3_4 
REMARK    2  A    between atoms: C4_5  and  C5_6 
REMARK       I    between atoms: C5_6  and  N2_8 
REMARK    3  A    between atoms: N2_8  and  C6_9 
REMARK    4  A    between atoms: C12_18  and  N6_19 
REMARK    5  A    between atoms: N6_19  and  C13_20 
ROOT
HETATM    1  C6  UNL     1      23.708   3.015  50.042  1.00  0.00     0.053 A 
HETATM    2  C7  UNL     1      22.553   2.700  49.355  1.00  0.00     0.148 A 
HETATM    3  N3  UNL     1      21.635   1.804  49.767  1.00  0.00    -0.238 NA
HETATM    4  C8  UNL     1      21.834   1.165  50.910  1.00  0.00     0.161 A 
HETATM    5  N4  UNL     1      20.889   0.265  51.299  1.00  0.00    -0.239 NA
HETATM    6  C9  UNL     1      21.063  -0.407  52.470  1.00  0.00     0.144 A 
HETATM    7  C10 UNL     1      22.180  -0.177  53.244  1.00  0.00     0.089 A 
HETATM    8  C11 UNL     1      22.415  -0.862  54.491  1.00  0.00     0.103 C 
HETATM    9  N5  UNL     1      22.601  -1.431  55.490  1.00  0.00    -0.191 NA
HETATM   10  C12 UNL     1      23.160   0.731  52.876  1.00  0.00     0.069 A 
HETATM   11  C19 UNL     1      22.968   1.417  51.671  1.00  0.00     0.042 A 
HETATM   12  C20 UNL     1      23.906   2.346  51.231  1.00  0.00     0.048 A 
ENDROOT
BRANCH  10  13
HETATM   13  N6  UNL     1      24.323   1.030  53.594  1.00  0.00    -0.354 N 
HETATM   14  H12 UNL     1      24.027   1.752  54.285  1.00  0.00     0.166 HD
BRANCH  13  15
HETATM   15  C13 UNL     1      25.618   0.519  53.469  1.00  0.00     0.033 A 
HETATM   16  C14 UNL     1      25.782  -0.751  52.953  1.00  0.00     0.029 A 
HETATM   17  C15 UNL     1      27.070  -1.255  52.831  1.00  0.00     0.004 A 
HETATM   18  C16 UNL     1      28.136  -0.447  53.237  1.00  0.00     0.019 A 
HETATM   19  C17 UNL     1      27.943   0.807  53.744  1.00  0.00     0.013 A 
HETATM   20 BR1  UNL     1      29.402   1.884  54.288  1.00  0.00    -0.051 Br
HETATM   21  C18 UNL     1      26.654   1.336  53.877  1.00  0.00     0.048 A 
ENDBRANCH  13  15
ENDBRANCH  10  13
BRANCH   1  22
HETATM   22  N2  UNL     1      24.649   3.970  49.568  1.00  0.00    -0.322 N 
HETATM   23  C5  UNL     1      26.065   3.906  49.440  1.00  0.00     0.247 C 
HETATM   24  O1  UNL     1      26.813   2.937  49.734  1.00  0.00    -0.268 OA
HETATM   25  H9  UNL     1      24.120   4.819  49.296  1.00  0.00     0.169 HD
BRANCH  23  26
HETATM   26  C4  UNL     1      26.713   5.094  48.907  1.00  0.00     0.091 C 
HETATM   27  C3  UNL     1      27.979   4.994  48.534  1.00  0.00     0.090 C 
BRANCH  27  28
HETATM   28  N1  UNL     1      28.709   6.093  48.001  1.00  0.00    -0.398 N 
HETATM   29  C1  UNL     1      28.247   7.364  47.433  1.00  0.00     0.148 C 
HETATM   30  C2  UNL     1      30.124   5.857  48.056  1.00  0.00     0.148 C 
ENDBRANCH  27  28
ENDBRANCH  23  26
ENDBRANCH   1  22
TORSDOF 5
ENDMDL
MODEL 2
REMARK VINA RESULT:      -8.5      3.372      8.176
REMARK  5 active torsions:
REMARK  status: ('A' for Active; 'I' for Inactive)
REMARK    1  A    between atoms: N1_2  and  C3_4 
REMARK    2  A    between atoms: C4_5  and  C5_6 
REMARK       I    between atoms: C5_6  and  N2_8 
REMARK    3  A    between atoms: N2_8  and  C6_9 
REMARK    4  A    between atoms: C12_18  and  N6_19 
REMARK    5  A    between atoms: N6_19  and  C13_20 
ROOT
HETATM    1  C6  UNL     1      21.947  -0.872  53.826  1.00  0.00     0.053 A 
HETATM    2  C7  UNL     1      22.347  -1.532  54.971  1.00  0.00     0.148 A 
HETATM    3  N3  UNL     1      23.580  -1.457  55.507  1.00  0.00    -0.238 NA
HETATM    4  C8  UNL     1      24.492  -0.704  54.911  1.00  0.00     0.161 A 
HETATM    5  N4  UNL     1      25.729  -0.650  55.478  1.00  0.00    -0.239 NA
HETATM    6  C9  UNL     1      26.689   0.116  54.890  1.00  0.00     0.144 A 
HETATM    7  C10 UNL     1      26.407   0.822  53.740  1.00  0.00     0.089 A 
HETATM    8  C11 UNL     1      27.386   1.648  53.076  1.00  0.00     0.103 C 
HETATM    9  N5  UNL     1      28.188   2.299  52.540  1.00  0.00    -0.191 NA
HETATM   10  C12 UNL     1      25.159   0.787  53.139  1.00  0.00     0.069 A 
HETATM   11  C19 UNL     1      24.181  -0.003  53.754  1.00  0.00     0.042 A 
HETATM   12  C20 UNL     1      22.902  -0.091  53.212  1.00  0.00     0.048 A 
ENDROOT
BRANCH  10  13
HETATM   13  N6  UNL     1      24.781   1.467  51.976  1.00  0.00    -0.354 N 
HETATM   14  H12 UNL     1      24.738   0.729  51.241  1.00  0.00     0.166 HD
BRANCH  13  15
HETATM   15  C13 UNL     1      24.508   2.823  51.770  1.00  0.00     0.033 A 
HETATM   16  C14 UNL     1      23.672   3.472  52.658  1.00  0.00     0.029 A 
HETATM   17  C15 UNL     1      23.402   4.817  52.450  1.00  0.00     0.004 A 
HETATM   18  C16 UNL     1      23.993   5.446  51.350  1.00  0.00     0.019 A 
HETATM   19  C17 UNL     1      24.816   4.778  50.489  1.00  0.00     0.013 A 
HETATM   20 BR1  UNL     1      25.606   5.651  49.005  1.00  0.00    -0.051 Br
HETATM   21  C18 UNL     1      25.103   3.421  50.678  1.00  0.00     0.048 A 
ENDBRANCH  13  15
ENDBRANCH  10  13
BRANCH   1  22
HETATM   22  N2  UNL     1      20.632  -0.981  53.295  1.00  0.00    -0.322 N 
HETATM   23  C5  UNL     1      19.719   0.013  52.842  1.00  0.00     0.247 C 
HETATM   24  O1  UNL     1      19.902   1.258  52.815  1.00  0.00    -0.268 OA
HETATM   25  H9  UNL     1      20.386  -1.989  53.277  1.00  0.00     0.169 HD
BRANCH  23  26
HETATM   26  C4  UNL     1      18.437  -0.471  52.356  1.00  0.00     0.091 C 
HETATM   27  C3  UNL     1      17.739  -1.275  53.143  1.00  0.00     0.090 C 
BRANCH  27  28
HETATM   28  N1  UNL     1      16.474  -1.806  52.766  1.00  0.00    -0.398 N 
HETATM   29  C1  UNL     1      15.985  -3.189  52.739  1.00  0.00     0.148 C 
HETATM   30  C2  UNL     1      15.572  -0.767  52.356  1.00  0.00     0.148 C 
ENDBRANCH  27  28
ENDBRANCH  23  26
ENDBRANCH   1  22
TORSDOF 5
ENDMDL
MODEL 3
REMARK VINA RESULT:      -8.5      2.905      4.958
REMARK  5 active torsions:
REMARK  status: ('A' for Active; 'I' for Inactive)
REMARK    1  A    between atoms: N1_2  and  C3_4 
REMARK    2  A    between atoms: C4_5  and  C5_6 
REMARK       I    between atoms: C5_6  and  N2_8 
REMARK    3  A    between atoms: N2_8  and  C6_9 
REMARK    4  A    between atoms: C12_18  and  N6_19 
REMARK    5  A    between atoms: N6_19  and  C13_20 
ROOT
HETATM    1  C6  UNL     1      26.684   2.190  52.214  1.00  0.00     0.053 A 
HETATM    2  C7  UNL     1      27.537   1.968  53.277  1.00  0.00     0.148 A 
HETATM    3  N3  UNL     1      27.269   1.159  54.320  1.00  0.00    -0.238 NA
HETATM    4  C8  UNL     1      26.110   0.521  54.351  1.00  0.00     0.161 A 
HETATM    5  N4  UNL     1      25.868  -0.289  55.419  1.00  0.00    -0.239 NA
HETATM    6  C9  UNL     1      24.686  -0.961  55.482  1.00  0.00     0.144 A 
HETATM    7  C10 UNL     1      23.752  -0.819  54.478  1.00  0.00     0.089 A 
HETATM    8  C11 UNL     1      22.483  -1.505  54.493  1.00  0.00     0.103 C 
HETATM    9  N5  UNL     1      21.457  -2.053  54.524  1.00  0.00    -0.191 NA
HETATM   10  C12 UNL     1      23.967  -0.002  53.379  1.00  0.00     0.069 A 
HETATM   11  C19 UNL     1      25.187   0.681  53.326  1.00  0.00     0.042 A 
HETATM   12  C20 UNL     1      25.480   1.521  52.256  1.00  0.00     0.048 A 
ENDROOT
BRANCH  10  13
HETATM   13  N6  UNL     1      23.082   0.204  52.315  1.00  0.00    -0.354 N 
HETATM   14  H12 UNL     1      23.492  -0.335  51.523  1.00  0.00     0.166 HD
BRANCH  13  15
HETATM   15  C13 UNL     1      21.900   0.949  52.254  1.00  0.00     0.033 A 
HETATM   16  C14 UNL     1      21.945   2.290  52.582  1.00  0.00     0.029 A 
HETATM   17  C15 UNL     1      20.770   3.025  52.521  1.00  0.00     0.004 A 
HETATM   18  C16 UNL     1      19.600   2.369  52.128  1.00  0.00     0.019 A 
HETATM   19  C17 UNL     1      19.586   1.041  51.809  1.00  0.00     0.013 A 
HETATM   20 BR1  UNL     1      17.989   0.172  51.280  1.00  0.00    -0.051 Br
HETATM   21  C18 UNL     1      20.758   0.278  51.864  1.00  0.00     0.048 A 
ENDBRANCH  13  15
ENDBRANCH  10  13
BRANCH   1  22
HETATM   22  N2  UNL     1      27.010   3.054  51.132  1.00  0.00    -0.322 N 
HETATM   23  C5  UNL     1      26.252   3.468  50.002  1.00  0.00     0.247 C 
HETATM   24  O1  UNL     1      25.071   3.137  49.715  1.00  0.00    -0.268 OA
HETATM   25  H9  UNL     1      27.982   3.385  51.281  1.00  0.00     0.169 HD
BRANCH  23  26
HETATM   26  C4  UNL     1      26.918   4.375  49.082  1.00  0.00     0.091 C 
HETATM   27  C3  UNL     1      26.534   5.642  49.074  1.00  0.00     0.090 C 
BRANCH  27  28
HETATM   28  N1  UNL     1      27.118   6.614  48.214  1.00  0.00    -0.398 N 
HETATM   29  C1  UNL     1      26.513   7.730  47.479  1.00  0.00     0.148 C 
HETATM   30  C2  UNL     1      28.534   6.415  48.086  1.00  0.00     0.148 C 
ENDBRANCH  27  28
ENDBRANCH  23  26
ENDBRANCH   1  22
TORSDOF 5
ENDMDL
MODEL 4
REMARK VINA RESULT:      -8.3      3.566      6.172
REMARK  5 active torsions:
REMARK  status: ('A' for Active; 'I' for Inactive)
REMARK    1  A    between atoms: N1_2  and  C3_4 
REMARK    2  A    between atoms: C4_5  and  C5_6 
REMARK       I    between atoms: C5_6  and  N2_8 
REMARK    3  A    between atoms: N2_8  and  C6_9 
REMARK    4  A    between atoms: C12_18  and  N6_19 
REMARK    5  A    between atoms: N6_19  and  C13_20 
ROOT
HETATM    1  C6  UNL     1      23.259  -0.482  53.956  1.00  0.00     0.053 A 
HETATM    2  C7  UNL     1      22.518  -1.232  54.848  1.00  0.00     0.148 A 
HETATM    3  N3  UNL     1      21.195  -1.458  54.745  1.00  0.00    -0.238 NA
HETATM    4  C8  UNL     1      20.534  -0.934  53.725  1.00  0.00     0.161 A 
HETATM    5  N4  UNL     1      19.197  -1.180  53.649  1.00  0.00    -0.239 NA
HETATM    6  C9  UNL     1      18.488  -0.656  52.612  1.00  0.00     0.144 A 
HETATM    7  C10 UNL     1      19.120   0.112  51.657  1.00  0.00     0.089 A 
HETATM    8  C11 UNL     1      18.419   0.692  50.538  1.00  0.00     0.103 C 
HETATM    9  N5  UNL     1      17.839   1.168  49.647  1.00  0.00    -0.191 NA
HETATM   10  C12 UNL     1      20.478   0.381  51.705  1.00  0.00     0.069 A 
HETATM   11  C19 UNL     1      21.195  -0.164  52.776  1.00  0.00     0.042 A 
HETATM   12  C20 UNL     1      22.563   0.060  52.897  1.00  0.00     0.048 A 
ENDROOT
BRANCH  10  13
HETATM   13  N6  UNL     1      21.204   1.147  50.785  1.00  0.00    -0.354 N 
HETATM   14  H12 UNL     1      21.289   0.536  49.944  1.00  0.00     0.166 HD
BRANCH  13  15
HETATM   15  C13 UNL     1      21.727   2.438  50.898  1.00  0.00     0.033 A 
HETATM   16  C14 UNL     1      21.012   3.383  51.608  1.00  0.00     0.029 A 
HETATM   17  C15 UNL     1      21.535   4.664  51.717  1.00  0.00     0.004 A 
HETATM   18  C16 UNL     1      22.761   4.931  51.101  1.00  0.00     0.019 A 
HETATM   19  C17 UNL     1      23.446   3.976  50.405  1.00  0.00     0.013 A 
HETATM   20 BR1  UNL     1      25.106   4.361  49.578  1.00  0.00    -0.051 Br
HETATM   21  C18 UNL     1      22.939   2.677  50.281  1.00  0.00     0.048 A 
ENDBRANCH  13  15
ENDBRANCH  10  13
BRANCH   1  22
HETATM   22  N2  UNL     1      24.658  -0.270  54.105  1.00  0.00    -0.322 N 
HETATM   23  C5  UNL     1      25.544  -0.580  55.174  1.00  0.00     0.247 C 
HETATM   24  O1  UNL     1      25.254  -1.137  56.265  1.00  0.00    -0.268 OA
HETATM   25  H9  UNL     1      24.996   0.192  53.240  1.00  0.00     0.169 HD
BRANCH  23  26
HETATM   26  C4  UNL     1      26.937  -0.212  54.978  1.00  0.00     0.091 C 
HETATM   27  C3  UNL     1      27.234   0.560  53.944  1.00  0.00     0.090 C 
BRANCH  27  28
HETATM   28  N1  UNL     1      28.564   0.979  53.659  1.00  0.00    -0.398 N 
HETATM   29  C1  UNL     1      29.795   0.202  53.482  1.00  0.00     0.148 C 
HETATM   30  C2  UNL     1      28.646   2.406  53.535  1.00  0.00     0.148 C 
ENDBRANCH  27  28
ENDBRANCH  23  26
ENDBRANCH   1  22
TORSDOF 5
ENDMDL
MODEL 5
REMARK VINA RESULT:      -8.0      3.987      8.000
REMARK  5 active torsions:
REMARK  status: ('A' for Active; 'I' for Inactive)
REMARK    1  A    between atoms: N1_2  and  C3_4 
REMARK    2  A    between atoms: C4_5  and  C5_6 
REMARK       I    between atoms: C5_6  and  N2_8 
REMARK    3  A    between atoms: N2_8  and  C6_9 
REMARK    4  A    between atoms: C12_18  and  N6_19 
REMARK    5  A    between atoms: N6_19  and  C13_20 
ROOT
HETATM    1  C6  UNL     1      21.003  -0.613  53.586  1.00  0.00     0.053 A 
HETATM    2  C7  UNL     1      21.290  -1.370  54.705  1.00  0.00     0.148 A 
HETATM    3  N3  UNL     1      22.519  -1.520  55.236  1.00  0.00    -0.238 NA
HETATM    4  C8  UNL     1      23.542  -0.908  54.660  1.00  0.00     0.161 A 
HETATM    5  N4  UNL     1      24.772  -1.079  55.219  1.00  0.00    -0.239 NA
HETATM    6  C9  UNL     1      25.845  -0.463  54.652  1.00  0.00     0.144 A 
HETATM    7  C10 UNL     1      25.683   0.320  53.529  1.00  0.00     0.089 A 
HETATM    8  C11 UNL     1      26.784   0.995  52.887  1.00  0.00     0.103 C 
HETATM    9  N5  UNL     1      27.683   1.523  52.368  1.00  0.00    -0.191 NA
HETATM   10  C12 UNL     1      24.446   0.514  52.935  1.00  0.00     0.069 A 
HETATM   11  C19 UNL     1      23.351  -0.124  53.529  1.00  0.00     0.042 A 
HETATM   12  C20 UNL     1      22.075   0.020  52.994  1.00  0.00     0.048 A 
ENDROOT
BRANCH  10  13
HETATM   13  N6  UNL     1      24.185   1.288  51.799  1.00  0.00    -0.354 N 
HETATM   14  H12 UNL     1      24.284   0.625  51.001  1.00  0.00     0.166 HD
BRANCH  13  15
HETATM   15  C13 UNL     1      23.860   2.643  51.684  1.00  0.00     0.033 A 
HETATM   16  C14 UNL     1      23.827   3.416  52.828  1.00  0.00     0.029 A 
HETATM   17  C15 UNL     1      23.503   4.760  52.709  1.00  0.00     0.004 A 
HETATM   18  C16 UNL     1      23.228   5.263  51.434  1.00  0.00     0.019 A 
HETATM   19  C17 UNL     1      23.270   4.474  50.320  1.00  0.00     0.013 A 
HETATM   20 BR1  UNL     1      22.893   5.176  48.602  1.00  0.00    -0.051 Br
HETATM   21  C18 UNL     1      23.593   3.115  50.414  1.00  0.00     0.048 A 
ENDBRANCH  13  15
ENDBRANCH  10  13
BRANCH   1  22
HETATM   22  N2  UNL     1      19.688  -0.483  53.062  1.00  0.00    -0.322 N 
HETATM   23  C5  UNL     1      18.540  -1.313  53.195  1.00  0.00     0.247 C 
HETATM   24  O1  UNL     1      18.450  -2.388  53.843  1.00  0.00    -0.268 OA
HETATM   25  H9  UNL     1      19.661   0.391  52.503  1.00  0.00     0.169 HD
BRANCH  23  26
HETATM   26  C4  UNL     1      17.341  -0.861  52.508  1.00  0.00     0.091 C 
HETATM   27  C3  UNL     1      17.384   0.309  51.891  1.00  0.00     0.090 C 
BRANCH  27  28
HETATM   28  N1  UNL     1      16.269   0.846  51.189  1.00  0.00    -0.398 N 
HETATM   29  C1  UNL     1      14.850   0.914  51.553  1.00  0.00     0.148 C 
HETATM   30  C2  UNL     1      16.664   1.397  49.924  1.00  0.00     0.148 C 
ENDBRANCH  27  28
ENDBRANCH  23  26
ENDBRANCH   1  22
TORSDOF 5
ENDMDL
MODEL 6
REMARK VINA RESULT:      -7.9      3.106      4.989
REMARK  5 active torsions:
REMARK  status: ('A' for Active; 'I' for Inactive)
REMARK    1  A    between atoms: N1_2  and  C3_4 
REMARK    2  A    between atoms: C4_5  and  C5_6 
REMARK       I    between atoms: C5_6  and  N2_8 
REMARK    3  A    between atoms: N2_8  and  C6_9 
REMARK    4  A    between atoms: C12_18  and  N6_19 
REMARK    5  A    between atoms: N6_19  and  C13_20 
ROOT
HETATM    1  C6  UNL     1      25.751   3.083  51.281  1.00  0.00     0.053 A 
HETATM    2  C7  UNL     1      26.898   2.326  51.417  1.00  0.00     0.148 A 
HETATM    3  N3  UNL     1      26.968   1.150  52.070  1.00  0.00    -0.238 NA
HETATM    4  C8  UNL     1      25.871   0.665  52.632  1.00  0.00     0.161 A 
HETATM    5  N4  UNL     1      25.974  -0.526  53.285  1.00  0.00    -0.239 NA
HETATM    6  C9  UNL     1      24.864  -1.052  53.872  1.00  0.00     0.144 A 
HETATM    7  C10 UNL     1      23.659  -0.386  53.803  1.00  0.00     0.089 A 
HETATM    8  C11 UNL     1      22.453  -0.897  54.407  1.00  0.00     0.103 C 
HETATM    9  N5  UNL     1      21.490  -1.313  54.912  1.00  0.00    -0.191 NA
HETATM   10  C12 UNL     1      23.522   0.826  53.147  1.00  0.00     0.069 A 
HETATM   11  C19 UNL     1      24.669   1.356  52.547  1.00  0.00     0.042 A 
HETATM   12  C20 UNL     1      24.615   2.570  51.868  1.00  0.00     0.048 A 
ENDROOT
BRANCH  10  13
HETATM   13  N6  UNL     1      22.344   1.573  53.025  1.00  0.00    -0.354 N 
HETATM   14  H12 UNL     1      22.325   2.175  53.876  1.00  0.00     0.166 HD
BRANCH  13  15
HETATM   15  C13 UNL     1      21.370   1.567  52.022  1.00  0.00     0.033 A 
HETATM   16  C14 UNL     1      21.509   0.683  50.970  1.00  0.00     0.029 A 
HETATM   17  C15 UNL     1      20.540   0.680  49.976  1.00  0.00     0.004 A 
HETATM   18  C16 UNL     1      19.471   1.574  50.094  1.00  0.00     0.019 A 
HETATM   19  C17 UNL     1      19.361   2.437  51.147  1.00  0.00     0.013 A 
HETATM   20 BR1  UNL     1      17.905   3.640  51.285  1.00  0.00    -0.051 Br
HETATM   21  C18 UNL     1      20.325   2.459  52.161  1.00  0.00     0.048 A 
ENDBRANCH  13  15
ENDBRANCH  10  13
BRANCH   1  22
HETATM   22  N2  UNL     1      25.725   4.321  50.581  1.00  0.00    -0.322 N 
HETATM   23  C5  UNL     1      26.496   4.792  49.481  1.00  0.00     0.247 C 
HETATM   24  O1  UNL     1      27.406   4.173  48.870  1.00  0.00    -0.268 OA
HETATM   25  H9  UNL     1      24.992   4.910  51.019  1.00  0.00     0.169 HD
BRANCH  23  26
HETATM   26  C4  UNL     1      26.192   6.135  49.016  1.00  0.00     0.091 C 
HETATM   27  C3  UNL     1      25.856   7.043  49.919  1.00  0.00     0.090 C 
BRANCH  27  28
HETATM   28  N1  UNL     1      25.539   8.386  49.574  1.00  0.00    -0.398 N 
HETATM   29  C1  UNL     1      26.397   9.567  49.434  1.00  0.00     0.148 C 
HETATM   30  C2  UNL     1      24.132   8.546  49.337  1.00  0.00     0.148 C 
ENDBRANCH  27  28
ENDBRANCH  23  26
ENDBRANCH   1  22
TORSDOF 5
ENDMDL
MODEL 7
REMARK VINA RESULT:      -7.8      3.345      6.686
REMARK  5 active torsions:
REMARK  status: ('A' for Active; 'I' for Inactive)
REMARK    1  A    between atoms: N1_2  and  C3_4 
REMARK    2  A    between atoms: C4_5  and  C5_6 
REMARK       I    between atoms: C5_6  and  N2_8 
REMARK    3  A    between atoms: N2_8  and  C6_9 
REMARK    4  A    between atoms: C12_18  and  N6_19 
REMARK    5  A    between atoms: N6_19  and  C13_20 
ROOT
HETATM    1  C6  UNL     1      21.679   0.764  52.335  1.00  0.00     0.053 A 
HETATM    2  C7  UNL     1      21.753  -0.521  52.835  1.00  0.00     0.148 A 
HETATM    3  N3  UNL     1      22.841  -1.055  53.422  1.00  0.00    -0.238 NA
HETATM    4  C8  UNL     1      23.932  -0.313  53.539  1.00  0.00     0.161 A 
HETATM    5  N4  UNL     1      25.016  -0.881  54.137  1.00  0.00    -0.239 NA
HETATM    6  C9  UNL     1      26.153  -0.145  54.274  1.00  0.00     0.144 A 
HETATM    7  C10 UNL     1      26.200   1.153  53.813  1.00  0.00     0.089 A 
HETATM    8  C11 UNL     1      27.378   1.977  53.931  1.00  0.00     0.103 C 
HETATM    9  N5  UNL     1      28.339   2.628  54.019  1.00  0.00    -0.191 NA
HETATM   10  C12 UNL     1      25.115   1.760  53.200  1.00  0.00     0.069 A 
HETATM   11  C19 UNL     1      23.952   0.993  53.066  1.00  0.00     0.042 A 
HETATM   12  C20 UNL     1      22.819   1.528  52.462  1.00  0.00     0.048 A 
ENDROOT
BRANCH  10  13
HETATM   13  N6  UNL     1      25.070   3.066  52.702  1.00  0.00    -0.354 N 
HETATM   14  H12 UNL     1      24.769   3.647  53.514  1.00  0.00     0.166 HD
BRANCH  13  15
HETATM   15  C13 UNL     1      25.349   3.556  51.423  1.00  0.00     0.033 A 
HETATM   16  C14 UNL     1      26.427   3.034  50.735  1.00  0.00     0.029 A 
HETATM   17  C15 UNL     1      26.702   3.524  49.466  1.00  0.00     0.004 A 
HETATM   18  C16 UNL     1      25.870   4.522  48.949  1.00  0.00     0.019 A 
HETATM   19  C17 UNL     1      24.810   5.018  49.653  1.00  0.00     0.013 A 
HETATM   20 BR1  UNL     1      23.697   6.370  48.933  1.00  0.00    -0.051 Br
HETATM   21  C18 UNL     1      24.514   4.541  50.935  1.00  0.00     0.048 A 
ENDBRANCH  13  15
ENDBRANCH  10  13
BRANCH   1  22
HETATM   22  N2  UNL     1      20.506   1.286  51.723  1.00  0.00    -0.322 N 
HETATM   23  C5  UNL     1      19.763   2.471  51.980  1.00  0.00     0.247 C 
HETATM   24  O1  UNL     1      20.007   3.349  52.849  1.00  0.00    -0.268 OA
HETATM   25  H9  UNL     1      20.222   0.621  50.979  1.00  0.00     0.169 HD
BRANCH  23  26
HETATM   26  C4  UNL     1      18.594   2.688  51.143  1.00  0.00     0.091 C 
HETATM   27  C3  UNL     1      18.775   3.263  49.964  1.00  0.00     0.090 C 
BRANCH  27  28
HETATM   28  N1  UNL     1      17.702   3.523  49.066  1.00  0.00    -0.398 N 
HETATM   29  C1  UNL     1      16.327   3.964  49.320  1.00  0.00     0.148 C 
HETATM   30  C2  UNL     1      18.095   3.297  47.704  1.00  0.00     0.148 C 
ENDBRANCH  27  28
ENDBRANCH  23  26
ENDBRANCH   1  22
TORSDOF 5
ENDMDL
MODEL 8
REMARK VINA RESULT:      -7.7      3.134      6.673
REMARK  5 active torsions:
REMARK  status: ('A' for Active; 'I' for Inactive)
REMARK    1  A    between atoms: N1_2  and  C3_4 
REMARK    2  A    between atoms: C4_5  and  C5_6 
REMARK       I    between atoms: C5_6  and  N2_8 
REMARK    3  A    between atoms: N2_8  and  C6_9 
REMARK    4  A    between atoms: C12_18  and  N6_19 
REMARK    5  A    between atoms: N6_19  and  C13_20 
ROOT
HETATM    1  C6  UNL     1      23.798   1.658  51.948  1.00  0.00     0.053 A 
HETATM    2  C7  UNL     1      22.532   1.152  51.730  1.00  0.00     0.148 A 
HETATM    3  N3  UNL     1      21.480   1.876  51.302  1.00  0.00    -0.238 NA
HETATM    4  C8  UNL     1      21.647   3.168  51.066  1.00  0.00     0.161 A 
HETATM    5  N4  UNL     1      20.564   3.873  50.635  1.00  0.00    -0.239 NA
HETATM    6  C9  UNL     1      20.702   5.203  50.383  1.00  0.00     0.144 A 
HETATM    7  C10 UNL     1      21.921   5.822  50.564  1.00  0.00     0.089 A 
HETATM    8  C11 UNL     1      22.124   7.228  50.313  1.00  0.00     0.103 C 
HETATM    9  N5  UNL     1      22.272   8.367  50.121  1.00  0.00    -0.191 NA
HETATM   10  C12 UNL     1      23.041   5.134  51.002  1.00  0.00     0.069 A 
HETATM   11  C19 UNL     1      22.886   3.766  51.257  1.00  0.00     0.042 A 
HETATM   12  C20 UNL     1      23.963   3.004  51.700  1.00  0.00     0.048 A 
ENDROOT
BRANCH  10  13
HETATM   13  N6  UNL     1      24.314   5.674  51.215  1.00  0.00    -0.354 N 
HETATM   14  H12 UNL     1      24.361   5.842  52.243  1.00  0.00     0.166 HD
BRANCH  13  15
HETATM   15  C13 UNL     1      25.340   5.954  50.307  1.00  0.00     0.033 A 
HETATM   16  C14 UNL     1      25.886   4.912  49.584  1.00  0.00     0.029 A 
HETATM   17  C15 UNL     1      26.905   5.193  48.684  1.00  0.00     0.004 A 
HETATM   18  C16 UNL     1      27.325   6.521  48.556  1.00  0.00     0.019 A 
HETATM   19  C17 UNL     1      26.765   7.530  49.286  1.00  0.00     0.013 A 
HETATM   20 BR1  UNL     1      27.350   9.322  49.097  1.00  0.00    -0.051 Br
HETATM   21  C18 UNL     1      25.737   7.272  50.199  1.00  0.00     0.048 A 
ENDBRANCH  13  15
ENDBRANCH  10  13
BRANCH   1  22
HETATM   22  N2  UNL     1      24.881   0.855  52.401  1.00  0.00    -0.322 N 
HETATM   23  C5  UNL     1      24.932  -0.192  53.363  1.00  0.00     0.247 C 
HETATM   24  O1  UNL     1      23.976  -0.646  54.045  1.00  0.00    -0.268 OA
HETATM   25  H9  UNL     1      25.729   1.158  51.887  1.00  0.00     0.169 HD
BRANCH  23  26
HETATM   26  C4  UNL     1      26.234  -0.803  53.576  1.00  0.00     0.091 C 
HETATM   27  C3  UNL     1      27.308  -0.106  53.237  1.00  0.00     0.090 C 
BRANCH  27  28
HETATM   28  N1  UNL     1      28.629  -0.607  53.401  1.00  0.00    -0.398 N 
HETATM   29  C1  UNL     1      29.153  -1.974  53.309  1.00  0.00     0.148 C 
HETATM   30  C2  UNL     1      29.554   0.448  53.705  1.00  0.00     0.148 C 
ENDBRANCH  27  28
ENDBRANCH  23  26
ENDBRANCH   1  22
TORSDOF 5
ENDMDL
MODEL 9
REMARK VINA RESULT:      -7.4      3.900      5.838
REMARK  5 active torsions:
REMARK  status: ('A' for Active; 'I' for Inactive)
REMARK    1  A    between atoms: N1_2  and  C3_4 
REMARK    2  A    between atoms: C4_5  and  C5_6 
REMARK       I    between atoms: C5_6  and  N2_8 
REMARK    3  A    between atoms: N2_8  and  C6_9 
REMARK    4  A    between atoms: C12_18  and  N6_19 
REMARK    5  A    between atoms: N6_19  and  C13_20 
ROOT
HETATM    1  C6  UNL     1      23.667   3.478  50.932  1.00  0.00     0.053 A 
HETATM    2  C7  UNL     1      24.996   3.156  50.738  1.00  0.00     0.148 A 
HETATM    3  N3  UNL     1      25.621   2.105  51.302  1.00  0.00    -0.238 NA
HETATM    4  C8  UNL     1      24.932   1.308  52.105  1.00  0.00     0.161 A 
HETATM    5  N4  UNL     1      25.592   0.254  52.660  1.00  0.00    -0.239 NA
HETATM    6  C9  UNL     1      24.913  -0.585  53.490  1.00  0.00     0.144 A 
HETATM    7  C10 UNL     1      23.579  -0.365  53.760  1.00  0.00     0.089 A 
HETATM    8  C11 UNL     1      22.812  -1.220  54.632  1.00  0.00     0.103 C 
HETATM    9  N5  UNL     1      22.207  -1.909  55.349  1.00  0.00    -0.191 NA
HETATM   10  C12 UNL     1      22.880   0.699  53.212  1.00  0.00     0.069 A 
HETATM   11  C19 UNL     1      23.589   1.553  52.360  1.00  0.00     0.042 A 
HETATM   12  C20 UNL     1      22.959   2.644  51.769  1.00  0.00     0.048 A 
ENDROOT
BRANCH  10  13
HETATM   13  N6  UNL     1      21.531   1.001  53.428  1.00  0.00    -0.354 N 
HETATM   14  H12 UNL     1      21.535   1.673  54.225  1.00  0.00     0.166 HD
BRANCH  13  15
HETATM   15  C13 UNL     1      20.386   0.545  52.767  1.00  0.00     0.033 A 
HETATM   16  C14 UNL     1      20.025   1.146  51.577  1.00  0.00     0.029 A 
HETATM   17  C15 UNL     1      18.888   0.691  50.925  1.00  0.00     0.004 A 
HETATM   18  C16 UNL     1      18.166  -0.355  51.508  1.00  0.00     0.019 A 
HETATM   19  C17 UNL     1      18.547  -0.929  52.686  1.00  0.00     0.013 A 
HETATM   20 BR1  UNL     1      17.554  -2.345  53.459  1.00  0.00    -0.051 Br
HETATM   21  C18 UNL     1      19.690  -0.488  53.363  1.00  0.00     0.048 A 
ENDBRANCH  13  15
ENDBRANCH  10  13
BRANCH   1  22
HETATM   22  N2  UNL     1      23.049   4.600  50.314  1.00  0.00    -0.322 N 
HETATM   23  C5  UNL     1      23.228   5.997  50.515  1.00  0.00     0.247 C 
HETATM   24  O1  UNL     1      24.015   6.555  51.323  1.00  0.00    -0.268 OA
HETATM   25  H9  UNL     1      22.371   4.237  49.618  1.00  0.00     0.169 HD
BRANCH  23  26
HETATM   26  C4  UNL     1      22.410   6.872  49.690  1.00  0.00     0.091 C 
HETATM   27  C3  UNL     1      22.506   8.178  49.887  1.00  0.00     0.090 C 
BRANCH  27  28
HETATM   28  N1  UNL     1      21.752   9.123  49.137  1.00  0.00    -0.398 N 
HETATM   29  C1  UNL     1      22.170  10.086  48.113  1.00  0.00     0.148 C 
HETATM   30  C2  UNL     1      20.360   9.077  49.488  1.00  0.00     0.148 C 
ENDBRANCH  27  28
ENDBRANCH  23  26
ENDBRANCH   1  22
TORSDOF 5
ENDMDL
