MODEL 1
REMARK VINA RESULT:      -7.7      0.000      0.000
REMARK  10 active torsions:
REMARK  status: ('A' for Active; 'I' for Inactive)
REMARK    1  A    between atoms: C2_2  and  C3_3 
REMARK    2  A    between atoms: C7_7  and  N1_8 
REMARK    3  A    between atoms: N1_8  and  C8_9 
REMARK    4  A    between atoms: C10_13  and  C11_14 
REMARK    5  A    between atoms: C11_14  and  C12_15 
REMARK    6  A    between atoms: C12_15  and  C13_16 
REMARK    7  A    between atoms: C13_16  and  O1_17 
REMARK    8  A    between atoms: C16_20  and  C17_21 
REMARK    9  A    between atoms: C21_26  and  C22_27 
REMARK   10  A    between atoms: C22_27  and  O3_28 
ROOT
HETATM    1  C8  UNL     1      22.842   3.285  52.162  1.00  0.00     0.138 C 
HETATM    2  N2  UNL     1      21.835   4.098  51.916  1.00  0.00    -0.224 NA
HETATM    3  C9  UNL     1      20.550   3.498  51.814  1.00  0.00     0.230 C 
HETATM    4  N3  UNL     1      20.227   2.301  51.910  1.00  0.00    -0.266 NA
HETATM    5  C10 UNL     1      21.192   1.134  52.164  1.00  0.00     0.093 C 
HETATM    6  C14 UNL     1      22.468   1.892  52.404  1.00  0.00     0.019 C 
HETATM    7  C15 UNL     1      23.636   1.475  52.957  1.00  0.00     0.022 C 
HETATM    8  C16 UNL     1      24.153   0.205  53.499  1.00  0.00    -0.036 C 
HETATM    9  C19 UNL     1      23.528  -0.830  54.099  1.00  0.00     0.141 C 
HETATM   10  O2  UNL     1      22.184  -1.005  54.390  1.00  0.00    -0.362 OA
HETATM   11  C20 UNL     1      21.059  -0.220  54.407  1.00  0.00     0.184 C 
HETATM   12  C21 UNL     1      20.528   0.570  53.334  1.00  0.00     0.069 C 
ENDROOT
BRANCH   1  13
HETATM   13  N1  UNL     1      24.134   3.855  52.251  1.00  0.00    -0.340 N 
HETATM   14  H7  UNL     1      24.397   4.003  53.258  1.00  0.00     0.167 HD
BRANCH  13  15
HETATM   15  C7  UNL     1      24.933   4.162  51.114  1.00  0.00     0.034 A 
HETATM   16  C6  UNL     1      25.833   3.200  50.768  1.00  0.00     0.029 A 
HETATM   17  C5  UNL     1      26.685   3.383  49.673  1.00  0.00     0.003 A 
HETATM   18  C4  UNL     1      26.617   4.553  48.929  1.00  0.00     0.011 A 
HETATM   19  C3  UNL     1      25.711   5.508  49.287  1.00  0.00    -0.035 A 
HETATM   20  C24 UNL     1      24.878   5.311  50.369  1.00  0.00     0.041 A 
BRANCH  19  21
HETATM   21  C2  UNL     1      25.579   6.757  48.563  1.00  0.00     0.001 C 
HETATM   22  C1  UNL     1      26.595   7.255  47.879  1.00  0.00     0.012 C 
ENDBRANCH  19  21
ENDBRANCH  13  15
ENDBRANCH   1  13
BRANCH   5  23
HETATM   23  C11 UNL     1      21.125   0.583  50.802  1.00  0.00     0.041 C 
BRANCH  23  24
HETATM   24  C12 UNL     1      21.738   0.994  49.572  1.00  0.00     0.029 C 
BRANCH  24  25
HETATM   25  C13 UNL     1      20.943   1.706  48.535  1.00  0.00     0.164 C 
BRANCH  25  26
HETATM   26  O1  UNL     1      19.606   1.829  48.702  1.00  0.00    -0.401 OA
HETATM   27  H15 UNL     1      19.214   2.113  47.841  1.00  0.00     0.209 HD
ENDBRANCH  25  26
ENDBRANCH  24  25
ENDBRANCH  23  24
ENDBRANCH   5  23
BRANCH  12  28
HETATM   28  C22 UNL     1      19.203  -0.012  52.840  1.00  0.00     0.176 C 
BRANCH  28  29
HETATM   29  O3  UNL     1      18.980  -1.225  53.452  1.00  0.00    -0.395 OA
HETATM   30  C23 UNL     1      17.713  -1.743  53.376  1.00  0.00     0.201 C 
ENDBRANCH  28  29
ENDBRANCH  12  28
BRANCH   8  31
HETATM   31  C17 UNL     1      25.622   0.021  53.366  1.00  0.00     0.036 C 
HETATM   32  C18 UNL     1      26.422   1.188  53.843  1.00  0.00     0.010 C 
ENDBRANCH   8  31
TORSDOF 10
ENDMDL
MODEL 2
REMARK VINA RESULT:      -7.6      2.342      5.187
REMARK  10 active torsions:
REMARK  status: ('A' for Active; 'I' for Inactive)
REMARK    1  A    between atoms: C2_2  and  C3_3 
REMARK    2  A    between atoms: C7_7  and  N1_8 
REMARK    3  A    between atoms: N1_8  and  C8_9 
REMARK    4  A    between atoms: C10_13  and  C11_14 
REMARK    5  A    between atoms: C11_14  and  C12_15 
REMARK    6  A    between atoms: C12_15  and  C13_16 
REMARK    7  A    between atoms: C13_16  and  O1_17 
REMARK    8  A    between atoms: C16_20  and  C17_21 
REMARK    9  A    between atoms: C21_26  and  C22_27 
REMARK   10  A    between atoms: C22_27  and  O3_28 
ROOT
HETATM    1  C8  UNL     1      24.882   1.762  51.478  1.00  0.00     0.138 C 
HETATM    2  N2  UNL     1      25.662   2.653  50.901  1.00  0.00    -0.224 NA
HETATM    3  C9  UNL     1      25.009   3.691  50.180  1.00  0.00     0.230 C 
HETATM    4  N3  UNL     1      23.793   3.882  49.997  1.00  0.00    -0.266 NA
HETATM    5  C10 UNL     1      22.661   2.991  50.526  1.00  0.00     0.093 C 
HETATM    6  C14 UNL     1      23.449   2.040  51.383  1.00  0.00     0.019 C 
HETATM    7  C15 UNL     1      23.025   1.182  52.347  1.00  0.00     0.022 C 
HETATM    8  C16 UNL     1      21.722   0.804  52.924  1.00  0.00    -0.036 C 
HETATM    9  C19 UNL     1      20.575   1.501  53.074  1.00  0.00     0.141 C 
HETATM   10  O2  UNL     1      20.282   2.810  52.723  1.00  0.00    -0.362 OA
HETATM   11  C20 UNL     1      20.989   3.917  52.325  1.00  0.00     0.184 C 
HETATM   12  C21 UNL     1      21.894   4.023  51.217  1.00  0.00     0.069 C 
ENDROOT
BRANCH   1  13
HETATM   13  N1  UNL     1      25.507   0.710  52.187  1.00  0.00    -0.340 N 
HETATM   14  H7  UNL     1      24.896  -0.145  52.184  1.00  0.00     0.167 HD
BRANCH  13  15
HETATM   15  C7  UNL     1      26.787   0.832  52.799  1.00  0.00     0.034 A 
HETATM   16  C6  UNL     1      27.092   2.082  53.246  1.00  0.00     0.029 A 
HETATM   17  C5  UNL     1      28.324   2.338  53.860  1.00  0.00     0.003 A 
HETATM   18  C4  UNL     1      29.246   1.312  54.017  1.00  0.00     0.011 A 
HETATM   19  C3  UNL     1      28.927   0.065  53.563  1.00  0.00    -0.035 A 
HETATM   20  C24 UNL     1      27.708  -0.169  52.962  1.00  0.00     0.041 A 
BRANCH  19  21
HETATM   21  C2  UNL     1      29.836  -1.058  53.688  1.00  0.00     0.001 C 
HETATM   22  C1  UNL     1      29.470  -2.270  53.310  1.00  0.00     0.012 C 
ENDBRANCH  19  21
ENDBRANCH  13  15
ENDBRANCH   1  13
BRANCH   5  23
HETATM   23  C11 UNL     1      22.311   2.403  49.225  1.00  0.00     0.041 C 
BRANCH  23  24
HETATM   24  C12 UNL     1      21.443   1.319  48.867  1.00  0.00     0.029 C 
BRANCH  24  25
HETATM   25  C13 UNL     1      20.166   1.103  49.601  1.00  0.00     0.164 C 
BRANCH  25  26
HETATM   26  O1  UNL     1      19.302   2.135  49.733  1.00  0.00    -0.401 OA
HETATM   27  H15 UNL     1      19.828   2.969  49.803  1.00  0.00     0.209 HD
ENDBRANCH  25  26
ENDBRANCH  24  25
ENDBRANCH  23  24
ENDBRANCH   5  23
BRANCH  12  28
HETATM   28  C22 UNL     1      21.314   4.930  50.132  1.00  0.00     0.176 C 
BRANCH  28  29
HETATM   29  O3  UNL     1      19.940   4.925  50.218  1.00  0.00    -0.395 OA
HETATM   30  C23 UNL     1      19.251   5.674  49.300  1.00  0.00     0.201 C 
ENDBRANCH  28  29
ENDBRANCH  12  28
BRANCH   8  31
HETATM   31  C17 UNL     1      21.645  -0.590  53.434  1.00  0.00     0.036 C 
HETATM   32  C18 UNL     1      22.420  -0.817  54.690  1.00  0.00     0.010 C 
ENDBRANCH   8  31
TORSDOF 10
ENDMDL
MODEL 3
REMARK VINA RESULT:      -7.5      2.490      5.269
REMARK  10 active torsions:
REMARK  status: ('A' for Active; 'I' for Inactive)
REMARK    1  A    between atoms: C2_2  and  C3_3 
REMARK    2  A    between atoms: C7_7  and  N1_8 
REMARK    3  A    between atoms: N1_8  and  C8_9 
REMARK    4  A    between atoms: C10_13  and  C11_14 
REMARK    5  A    between atoms: C11_14  and  C12_15 
REMARK    6  A    between atoms: C12_15  and  C13_16 
REMARK    7  A    between atoms: C13_16  and  O1_17 
REMARK    8  A    between atoms: C16_20  and  C17_21 
REMARK    9  A    between atoms: C21_26  and  C22_27 
REMARK   10  A    between atoms: C22_27  and  O3_28 
ROOT
HETATM    1  C8  UNL     1      24.672   1.073  51.998  1.00  0.00     0.138 C 
HETATM    2  N2  UNL     1      25.644   1.791  51.475  1.00  0.00    -0.224 NA
HETATM    3  C9  UNL     1      25.251   2.880  50.649  1.00  0.00     0.230 C 
HETATM    4  N3  UNL     1      24.110   3.258  50.330  1.00  0.00    -0.266 NA
HETATM    5  C10 UNL     1      22.796   2.595  50.768  1.00  0.00     0.093 C 
HETATM    6  C14 UNL     1      23.323   1.576  51.740  1.00  0.00     0.019 C 
HETATM    7  C15 UNL     1      22.666   0.854  52.684  1.00  0.00     0.022 C 
HETATM    8  C16 UNL     1      21.267   0.727  53.131  1.00  0.00    -0.036 C 
HETATM    9  C19 UNL     1      20.246   1.610  53.132  1.00  0.00     0.141 C 
HETATM   10  O2  UNL     1      20.214   2.928  52.701  1.00  0.00    -0.362 OA
HETATM   11  C20 UNL     1      21.134   3.880  52.341  1.00  0.00     0.184 C 
HETATM   12  C21 UNL     1      22.150   3.775  51.333  1.00  0.00     0.069 C 
ENDROOT
BRANCH   1  13
HETATM   13  N1  UNL     1      25.036  -0.027  52.810  1.00  0.00    -0.340 N 
HETATM   14  H7  UNL     1      24.185  -0.443  53.263  1.00  0.00     0.167 HD
BRANCH  13  15
HETATM   15  C7  UNL     1      26.379  -0.477  52.958  1.00  0.00     0.034 A 
HETATM   16  C6  UNL     1      26.589  -1.777  52.612  1.00  0.00     0.029 A 
HETATM   17  C5  UNL     1      27.864  -2.346  52.719  1.00  0.00     0.003 A 
HETATM   18  C4  UNL     1      28.926  -1.582  53.182  1.00  0.00     0.011 A 
HETATM   19  C3  UNL     1      28.701  -0.281  53.526  1.00  0.00    -0.035 A 
HETATM   20  C24 UNL     1      27.438   0.263  53.412  1.00  0.00     0.041 A 
BRANCH  19  21
HETATM   21  C2  UNL     1      29.757   0.581  54.018  1.00  0.00     0.001 C 
HETATM   22  C1  UNL     1      29.477   1.753  54.563  1.00  0.00     0.012 C 
ENDBRANCH  19  21
ENDBRANCH  13  15
ENDBRANCH   1  13
BRANCH   5  23
HETATM   23  C11 UNL     1      22.483   2.002  49.459  1.00  0.00     0.041 C 
BRANCH  23  24
HETATM   24  C12 UNL     1      21.451   1.098  49.040  1.00  0.00     0.029 C 
BRANCH  24  25
HETATM   25  C13 UNL     1      20.049   1.291  49.502  1.00  0.00     0.164 C 
BRANCH  25  26
HETATM   26  O1  UNL     1      19.140   1.803  48.641  1.00  0.00    -0.401 OA
HETATM   27  H15 UNL     1      18.528   1.076  48.371  1.00  0.00     0.209 HD
ENDBRANCH  25  26
ENDBRANCH  24  25
ENDBRANCH  23  24
ENDBRANCH   5  23
BRANCH  12  28
HETATM   28  C22 UNL     1      21.842   4.704  50.158  1.00  0.00     0.176 C 
BRANCH  28  29
HETATM   29  O3  UNL     1      20.488   4.945  50.108  1.00  0.00    -0.395 OA
HETATM   30  C23 UNL     1      19.942   5.209  48.879  1.00  0.00     0.201 C 
ENDBRANCH  28  29
ENDBRANCH  12  28
BRANCH   8  31
HETATM   31  C17 UNL     1      20.906  -0.605  53.682  1.00  0.00     0.036 C 
HETATM   32  C18 UNL     1      21.836  -1.091  54.745  1.00  0.00     0.010 C 
ENDBRANCH   8  31
TORSDOF 10
ENDMDL
MODEL 4
REMARK VINA RESULT:      -7.5      2.313      5.252
REMARK  10 active torsions:
REMARK  status: ('A' for Active; 'I' for Inactive)
REMARK    1  A    between atoms: C2_2  and  C3_3 
REMARK    2  A    between atoms: C7_7  and  N1_8 
REMARK    3  A    between atoms: N1_8  and  C8_9 
REMARK    4  A    between atoms: C10_13  and  C11_14 
REMARK    5  A    between atoms: C11_14  and  C12_15 
REMARK    6  A    between atoms: C12_15  and  C13_16 
REMARK    7  A    between atoms: C13_16  and  O1_17 
REMARK    8  A    between atoms: C16_20  and  C17_21 
REMARK    9  A    between atoms: C21_26  and  C22_27 
REMARK   10  A    between atoms: C22_27  and  O3_28 
ROOT
HETATM    1  C8  UNL     1      24.700   1.514  52.270  1.00  0.00     0.138 C 
HETATM    2  N2  UNL     1      24.501   0.507  53.096  1.00  0.00    -0.224 NA
HETATM    3  C9  UNL     1      23.177  -0.007  53.157  1.00  0.00     0.230 C 
HETATM    4  N3  UNL     1      22.156   0.363  52.549  1.00  0.00    -0.266 NA
HETATM    5  C10 UNL     1      22.087   1.526  51.549  1.00  0.00     0.093 C 
HETATM    6  C14 UNL     1      23.544   1.881  51.452  1.00  0.00     0.019 C 
HETATM    7  C15 UNL     1      24.195   2.636  50.531  1.00  0.00     0.022 C 
HETATM    8  C16 UNL     1      23.810   3.405  49.333  1.00  0.00    -0.036 C 
HETATM    9  C19 UNL     1      22.807   3.232  48.446  1.00  0.00     0.141 C 
HETATM   10  O2  UNL     1      21.822   2.258  48.401  1.00  0.00    -0.362 OA
HETATM   11  C20 UNL     1      21.583   1.055  49.017  1.00  0.00     0.184 C 
HETATM   12  C21 UNL     1      21.508   0.795  50.426  1.00  0.00     0.069 C 
ENDROOT
BRANCH   1  13
HETATM   13  N1  UNL     1      26.005   2.055  52.203  1.00  0.00    -0.340 N 
HETATM   14  H7  UNL     1      25.998   2.955  51.661  1.00  0.00     0.167 HD
BRANCH  13  15
HETATM   15  C7  UNL     1      27.138   1.438  52.804  1.00  0.00     0.034 A 
HETATM   16  C6  UNL     1      27.937   2.278  53.520  1.00  0.00     0.029 A 
HETATM   17  C5  UNL     1      29.089   1.798  54.154  1.00  0.00     0.003 A 
HETATM   18  C4  UNL     1      29.425   0.454  54.056  1.00  0.00     0.011 A 
HETATM   19  C3  UNL     1      28.616  -0.375  53.336  1.00  0.00    -0.035 A 
HETATM   20  C24 UNL     1      27.484   0.115  52.718  1.00  0.00     0.041 A 
BRANCH  19  21
HETATM   21  C2  UNL     1      28.899  -1.789  53.185  1.00  0.00     0.001 C 
HETATM   22  C1  UNL     1      27.953  -2.633  52.810  1.00  0.00     0.012 C 
ENDBRANCH  19  21
ENDBRANCH  13  15
ENDBRANCH   1  13
BRANCH   5  23
HETATM   23  C11 UNL     1      21.352   2.441  52.433  1.00  0.00     0.041 C 
BRANCH  23  24
HETATM   24  C12 UNL     1      21.066   3.844  52.335  1.00  0.00     0.029 C 
BRANCH  24  25
HETATM   25  C13 UNL     1      20.583   4.425  51.053  1.00  0.00     0.164 C 
BRANCH  25  26
HETATM   26  O1  UNL     1      19.484   3.899  50.467  1.00  0.00    -0.401 OA
HETATM   27  H15 UNL     1      19.779   3.329  49.715  1.00  0.00     0.209 HD
ENDBRANCH  25  26
ENDBRANCH  24  25
ENDBRANCH  23  24
ENDBRANCH   5  23
BRANCH  12  28
HETATM   28  C22 UNL     1      20.079   0.436  50.833  1.00  0.00     0.176 C 
BRANCH  28  29
HETATM   29  O3  UNL     1      19.193   1.009  49.949  1.00  0.00    -0.395 OA
HETATM   30  C23 UNL     1      17.876   0.646  50.054  1.00  0.00     0.201 C 
ENDBRANCH  28  29
ENDBRANCH  12  28
BRANCH   8  31
HETATM   31  C17 UNL     1      24.672   4.580  49.039  1.00  0.00     0.036 C 
HETATM   32  C18 UNL     1      26.119   4.353  49.329  1.00  0.00     0.010 C 
ENDBRANCH   8  31
TORSDOF 10
ENDMDL
MODEL 5
REMARK VINA RESULT:      -7.5      2.401      4.669
REMARK  10 active torsions:
REMARK  status: ('A' for Active; 'I' for Inactive)
REMARK    1  A    between atoms: C2_2  and  C3_3 
REMARK    2  A    between atoms: C7_7  and  N1_8 
REMARK    3  A    between atoms: N1_8  and  C8_9 
REMARK    4  A    between atoms: C10_13  and  C11_14 
REMARK    5  A    between atoms: C11_14  and  C12_15 
REMARK    6  A    between atoms: C12_15  and  C13_16 
REMARK    7  A    between atoms: C13_16  and  O1_17 
REMARK    8  A    between atoms: C16_20  and  C17_21 
REMARK    9  A    between atoms: C21_26  and  C22_27 
REMARK   10  A    between atoms: C22_27  and  O3_28 
ROOT
HETATM    1  C8  UNL     1      26.133   3.005  50.324  1.00  0.00     0.138 C 
HETATM    2  N2  UNL     1      26.990   2.551  51.217  1.00  0.00    -0.224 NA
HETATM    3  C9  UNL     1      26.435   2.052  52.427  1.00  0.00     0.230 C 
HETATM    4  N3  UNL     1      25.245   1.989  52.784  1.00  0.00    -0.266 NA
HETATM    5  C10 UNL     1      24.040   2.469  51.962  1.00  0.00     0.093 C 
HETATM    6  C14 UNL     1      24.724   2.822  50.670  1.00  0.00     0.019 C 
HETATM    7  C15 UNL     1      24.196   3.042  49.439  1.00  0.00     0.022 C 
HETATM    8  C16 UNL     1      22.840   3.062  48.860  1.00  0.00    -0.036 C 
HETATM    9  C19 UNL     1      21.716   2.392  49.195  1.00  0.00     0.141 C 
HETATM   10  O2  UNL     1      21.504   1.467  50.206  1.00  0.00    -0.362 OA
HETATM   11  C20 UNL     1      22.285   0.736  51.066  1.00  0.00     0.184 C 
HETATM   12  C21 UNL     1      23.270   1.229  51.984  1.00  0.00     0.069 C 
ENDROOT
BRANCH   1  13
HETATM   13  N1  UNL     1      26.661   3.522  49.118  1.00  0.00    -0.340 N 
HETATM   14  H7  UNL     1      26.752   2.757  48.403  1.00  0.00     0.167 HD
BRANCH  13  15
HETATM   15  C7  UNL     1      27.001   4.893  48.939  1.00  0.00     0.034 A 
HETATM   16  C6  UNL     1      28.241   5.113  48.421  1.00  0.00     0.029 A 
HETATM   17  C5  UNL     1      28.701   6.417  48.202  1.00  0.00     0.003 A 
HETATM   18  C4  UNL     1      27.889   7.499  48.515  1.00  0.00     0.011 A 
HETATM   19  C3  UNL     1      26.650   7.264  49.033  1.00  0.00    -0.035 A 
HETATM   20  C24 UNL     1      26.213   5.972  49.241  1.00  0.00     0.041 A 
BRANCH  19  21
HETATM   21  C2  UNL     1      25.744   8.339  49.387  1.00  0.00     0.001 C 
HETATM   22  C1  UNL     1      26.099   9.603  49.234  1.00  0.00     0.012 C 
ENDBRANCH  19  21
ENDBRANCH  13  15
ENDBRANCH   1  13
BRANCH   5  23
HETATM   23  C11 UNL     1      23.761   3.656  52.783  1.00  0.00     0.041 C 
BRANCH  23  24
HETATM   24  C12 UNL     1      22.972   4.828  52.533  1.00  0.00     0.029 C 
BRANCH  24  25
HETATM   25  C13 UNL     1      23.521   5.945  51.718  1.00  0.00     0.164 C 
BRANCH  25  26
HETATM   26  O1  UNL     1      24.418   6.788  52.280  1.00  0.00    -0.401 OA
HETATM   27  H15 UNL     1      24.966   6.272  52.919  1.00  0.00     0.209 HD
ENDBRANCH  25  26
ENDBRANCH  24  25
ENDBRANCH  23  24
ENDBRANCH   5  23
BRANCH  12  28
HETATM   28  C22 UNL     1      22.808   1.033  53.428  1.00  0.00     0.176 C 
BRANCH  28  29
HETATM   29  O3  UNL     1      22.842  -0.307  53.742  1.00  0.00    -0.395 OA
HETATM   30  C23 UNL     1      21.863  -0.782  54.576  1.00  0.00     0.201 C 
ENDBRANCH  28  29
ENDBRANCH  12  28
BRANCH   8  31
HETATM   31  C17 UNL     1      22.668   3.976  47.701  1.00  0.00     0.036 C 
HETATM   32  C18 UNL     1      22.786   5.423  48.052  1.00  0.00     0.010 C 
ENDBRANCH   8  31
TORSDOF 10
ENDMDL
MODEL 6
REMARK VINA RESULT:      -7.2      2.993      6.653
REMARK  10 active torsions:
REMARK  status: ('A' for Active; 'I' for Inactive)
REMARK    1  A    between atoms: C2_2  and  C3_3 
REMARK    2  A    between atoms: C7_7  and  N1_8 
REMARK    3  A    between atoms: N1_8  and  C8_9 
REMARK    4  A    between atoms: C10_13  and  C11_14 
REMARK    5  A    between atoms: C11_14  and  C12_15 
REMARK    6  A    between atoms: C12_15  and  C13_16 
REMARK    7  A    between atoms: C13_16  and  O1_17 
REMARK    8  A    between atoms: C16_20  and  C17_21 
REMARK    9  A    between atoms: C21_26  and  C22_27 
REMARK   10  A    between atoms: C22_27  and  O3_28 
ROOT
HETATM    1  C8  UNL     1      22.144   1.067  51.099  1.00  0.00     0.138 C 
HETATM    2  N2  UNL     1      22.359   1.712  49.971  1.00  0.00    -0.224 NA
HETATM    3  C9  UNL     1      23.595   2.407  49.868  1.00  0.00     0.230 C 
HETATM    4  N3  UNL     1      24.515   2.513  50.698  1.00  0.00    -0.266 NA
HETATM    5  C10 UNL     1      24.523   1.892  52.103  1.00  0.00     0.093 C 
HETATM    6  C14 UNL     1      23.265   1.071  52.039  1.00  0.00     0.019 C 
HETATM    7  C15 UNL     1      22.841   0.065  52.846  1.00  0.00     0.022 C 
HETATM    8  C16 UNL     1      23.354  -0.604  54.056  1.00  0.00    -0.036 C 
HETATM    9  C19 UNL     1      24.613  -0.817  54.492  1.00  0.00     0.141 C 
HETATM   10  O2  UNL     1      25.823  -0.461  53.917  1.00  0.00    -0.362 OA
HETATM   11  C20 UNL     1      26.246   0.004  52.697  1.00  0.00     0.184 C 
HETATM   12  C21 UNL     1      25.788   1.172  52.000  1.00  0.00     0.069 C 
ENDROOT
BRANCH   1  13
HETATM   13  N1  UNL     1      20.915   0.381  51.234  1.00  0.00    -0.340 N 
HETATM   14  H7  UNL     1      21.085  -0.632  51.455  1.00  0.00     0.167 HD
BRANCH  13  15
HETATM   15  C7  UNL     1      19.647   1.013  51.090  1.00  0.00     0.034 A 
HETATM   16  C6  UNL     1      19.528   2.211  51.726  1.00  0.00     0.029 A 
HETATM   17  C5  UNL     1      18.329   2.932  51.669  1.00  0.00     0.003 A 
HETATM   18  C4  UNL     1      17.249   2.425  50.960  1.00  0.00     0.011 A 
HETATM   19  C3  UNL     1      17.382   1.223  50.328  1.00  0.00    -0.035 A 
HETATM   20  C24 UNL     1      18.572   0.527  50.394  1.00  0.00     0.041 A 
BRANCH  19  21
HETATM   21  C2  UNL     1      16.301   0.625  49.569  1.00  0.00     0.001 C 
HETATM   22  C1  UNL     1      15.135   1.237  49.454  1.00  0.00     0.012 C 
ENDBRANCH  19  21
ENDBRANCH  13  15
ENDBRANCH   1  13
BRANCH   5  23
HETATM   23  C11 UNL     1      24.323   3.156  52.827  1.00  0.00     0.041 C 
BRANCH  23  24
HETATM   24  C12 UNL     1      23.294   4.152  52.747  1.00  0.00     0.029 C 
BRANCH  24  25
HETATM   25  C13 UNL     1      23.533   5.424  52.011  1.00  0.00     0.164 C 
BRANCH  25  26
HETATM   26  O1  UNL     1      24.650   5.547  51.259  1.00  0.00    -0.401 OA
HETATM   27  H15 UNL     1      24.696   4.772  50.647  1.00  0.00     0.209 HD
ENDBRANCH  25  26
ENDBRANCH  24  25
ENDBRANCH  23  24
ENDBRANCH   5  23
BRANCH  12  28
HETATM   28  C22 UNL     1      26.887   2.233  51.946  1.00  0.00     0.176 C 
BRANCH  28  29
HETATM   29  O3  UNL     1      28.028   1.741  52.538  1.00  0.00    -0.395 OA
HETATM   30  C23 UNL     1      28.588   2.489  53.541  1.00  0.00     0.201 C 
ENDBRANCH  28  29
ENDBRANCH  12  28
BRANCH   8  31
HETATM   31  C17 UNL     1      22.307  -1.145  54.962  1.00  0.00     0.036 C 
HETATM   32  C18 UNL     1      21.041  -1.522  54.264  1.00  0.00     0.010 C 
ENDBRANCH   8  31
TORSDOF 10
ENDMDL
MODEL 7
REMARK VINA RESULT:      -7.0      2.433      5.747
REMARK  10 active torsions:
REMARK  status: ('A' for Active; 'I' for Inactive)
REMARK    1  A    between atoms: C2_2  and  C3_3 
REMARK    2  A    between atoms: C7_7  and  N1_8 
REMARK    3  A    between atoms: N1_8  and  C8_9 
REMARK    4  A    between atoms: C10_13  and  C11_14 
REMARK    5  A    between atoms: C11_14  and  C12_15 
REMARK    6  A    between atoms: C12_15  and  C13_16 
REMARK    7  A    between atoms: C13_16  and  O1_17 
REMARK    8  A    between atoms: C16_20  and  C17_21 
REMARK    9  A    between atoms: C21_26  and  C22_27 
REMARK   10  A    between atoms: C22_27  and  O3_28 
ROOT
HETATM    1  C8  UNL     1      24.702   3.114  51.576  1.00  0.00     0.138 C 
HETATM    2  N2  UNL     1      25.716   3.698  50.970  1.00  0.00    -0.224 NA
HETATM    3  C9  UNL     1      25.423   4.359  49.745  1.00  0.00     0.230 C 
HETATM    4  N3  UNL     1      24.340   4.462  49.142  1.00  0.00    -0.266 NA
HETATM    5  C10 UNL     1      23.004   3.858  49.598  1.00  0.00     0.093 C 
HETATM    6  C14 UNL     1      23.398   3.330  50.950  1.00  0.00     0.019 C 
HETATM    7  C15 UNL     1      22.620   2.932  51.988  1.00  0.00     0.022 C 
HETATM    8  C16 UNL     1      21.171   2.818  52.238  1.00  0.00    -0.036 C 
HETATM    9  C19 UNL     1      20.123   3.517  51.753  1.00  0.00     0.141 C 
HETATM   10  O2  UNL     1      20.103   4.575  50.857  1.00  0.00    -0.362 OA
HETATM   11  C20 UNL     1      21.024   5.429  50.303  1.00  0.00     0.184 C 
HETATM   12  C21 UNL     1      22.208   5.081  49.572  1.00  0.00     0.069 C 
ENDROOT
BRANCH   1  13
HETATM   13  N1  UNL     1      24.970   2.435  52.787  1.00  0.00    -0.340 N 
HETATM   14  H7  UNL     1      24.440   2.879  53.579  1.00  0.00     0.167 HD
BRANCH  13  15
HETATM   15  C7  UNL     1      25.837   1.309  52.877  1.00  0.00     0.034 A 
HETATM   16  C6  UNL     1      25.246   0.109  52.620  1.00  0.00     0.029 A 
HETATM   17  C5  UNL     1      25.987  -1.078  52.682  1.00  0.00     0.003 A 
HETATM   18  C4  UNL     1      27.336  -1.036  53.009  1.00  0.00     0.011 A 
HETATM   19  C3  UNL     1      27.914   0.173  53.264  1.00  0.00    -0.035 A 
HETATM   20  C24 UNL     1      27.168   1.332  53.197  1.00  0.00     0.041 A 
BRANCH  19  21
HETATM   21  C2  UNL     1      29.315   0.301  53.614  1.00  0.00     0.001 C 
HETATM   22  C1  UNL     1      30.105  -0.758  53.646  1.00  0.00     0.012 C 
ENDBRANCH  19  21
ENDBRANCH  13  15
ENDBRANCH   1  13
BRANCH   5  23
HETATM   23  C11 UNL     1      22.962   2.798  48.581  1.00  0.00     0.041 C 
BRANCH  23  24
HETATM   24  C12 UNL     1      22.029   1.734  48.345  1.00  0.00     0.029 C 
BRANCH  24  25
HETATM   25  C13 UNL     1      20.565   1.991  48.401  1.00  0.00     0.164 C 
BRANCH  25  26
HETATM   26  O1  UNL     1      19.781   1.166  49.132  1.00  0.00    -0.401 OA
HETATM   27  H15 UNL     1      19.452   1.669  49.917  1.00  0.00     0.209 HD
ENDBRANCH  25  26
ENDBRANCH  24  25
ENDBRANCH  23  24
ENDBRANCH   5  23
BRANCH  12  28
HETATM   28  C22 UNL     1      22.070   5.476  48.102  1.00  0.00     0.176 C 
BRANCH  28  29
HETATM   29  O3  UNL     1      20.742   5.684  47.806  1.00  0.00    -0.395 OA
HETATM   30  C23 UNL     1      20.283   5.207  46.606  1.00  0.00     0.201 C 
ENDBRANCH  28  29
ENDBRANCH  12  28
BRANCH   8  31
HETATM   31  C17 UNL     1      20.784   1.745  53.192  1.00  0.00     0.036 C 
HETATM   32  C18 UNL     1      20.552   0.419  52.547  1.00  0.00     0.010 C 
ENDBRANCH   8  31
TORSDOF 10
ENDMDL
MODEL 8
REMARK VINA RESULT:      -6.9      3.027      5.337
REMARK  10 active torsions:
REMARK  status: ('A' for Active; 'I' for Inactive)
REMARK    1  A    between atoms: C2_2  and  C3_3 
REMARK    2  A    between atoms: C7_7  and  N1_8 
REMARK    3  A    between atoms: N1_8  and  C8_9 
REMARK    4  A    between atoms: C10_13  and  C11_14 
REMARK    5  A    between atoms: C11_14  and  C12_15 
REMARK    6  A    between atoms: C12_15  and  C13_16 
REMARK    7  A    between atoms: C13_16  and  O1_17 
REMARK    8  A    between atoms: C16_20  and  C17_21 
REMARK    9  A    between atoms: C21_26  and  C22_27 
REMARK   10  A    between atoms: C22_27  and  O3_28 
ROOT
HETATM    1  C8  UNL     1      23.773   2.670  49.654  1.00  0.00     0.138 C 
HETATM    2  N2  UNL     1      24.938   3.200  49.345  1.00  0.00    -0.224 NA
HETATM    3  C9  UNL     1      25.899   3.266  50.392  1.00  0.00     0.230 C 
HETATM    4  N3  UNL     1      25.800   2.906  51.578  1.00  0.00    -0.266 NA
HETATM    5  C10 UNL     1      24.553   2.285  52.221  1.00  0.00     0.093 C 
HETATM    6  C14 UNL     1      23.680   2.124  51.008  1.00  0.00     0.019 C 
HETATM    7  C15 UNL     1      22.556   1.382  50.837  1.00  0.00     0.022 C 
HETATM    8  C16 UNL     1      21.736   0.498  51.686  1.00  0.00    -0.036 C 
HETATM    9  C19 UNL     1      22.061  -0.281  52.740  1.00  0.00     0.141 C 
HETATM   10  O2  UNL     1      23.291  -0.483  53.347  1.00  0.00    -0.362 OA
HETATM   11  C20 UNL     1      24.603  -0.203  53.055  1.00  0.00     0.184 C 
HETATM   12  C21 UNL     1      25.176   1.076  52.752  1.00  0.00     0.069 C 
ENDROOT
BRANCH   1  13
HETATM   13  N1  UNL     1      22.794   2.607  48.635  1.00  0.00    -0.340 N 
HETATM   14  H7  UNL     1      22.648   1.612  48.331  1.00  0.00     0.167 HD
BRANCH  13  15
HETATM   15  C7  UNL     1      22.121   3.754  48.126  1.00  0.00     0.034 A 
HETATM   16  C6  UNL     1      21.328   4.399  49.025  1.00  0.00     0.029 A 
HETATM   17  C5  UNL     1      20.604   5.538  48.648  1.00  0.00     0.003 A 
HETATM   18  C4  UNL     1      20.693   6.016  47.348  1.00  0.00     0.011 A 
HETATM   19  C3  UNL     1      21.492   5.359  46.458  1.00  0.00    -0.035 A 
HETATM   20  C24 UNL     1      22.198   4.240  46.847  1.00  0.00     0.041 A 
BRANCH  19  21
HETATM   21  C2  UNL     1      21.637   5.795  45.083  1.00  0.00     0.001 C 
HETATM   22  C1  UNL     1      22.614   6.612  44.730  1.00  0.00     0.012 C 
ENDBRANCH  19  21
ENDBRANCH  13  15
ENDBRANCH   1  13
BRANCH   5  23
HETATM   23  C11 UNL     1      24.186   3.468  53.014  1.00  0.00     0.041 C 
BRANCH  23  24
HETATM   24  C12 UNL     1      23.243   4.523  52.779  1.00  0.00     0.029 C 
BRANCH  24  25
HETATM   25  C13 UNL     1      23.590   5.656  51.879  1.00  0.00     0.164 C 
BRANCH  25  26
HETATM   26  O1  UNL     1      24.394   6.640  52.344  1.00  0.00    -0.401 OA
HETATM   27  H15 UNL     1      23.942   7.071  53.109  1.00  0.00     0.209 HD
ENDBRANCH  25  26
ENDBRANCH  24  25
ENDBRANCH  23  24
ENDBRANCH   5  23
BRANCH  12  28
HETATM   28  C22 UNL     1      26.110   1.529  53.874  1.00  0.00     0.176 C 
BRANCH  28  29
HETATM   29  O3  UNL     1      26.532   0.431  54.589  1.00  0.00    -0.395 OA
HETATM   30  C23 UNL     1      27.883   0.262  54.744  1.00  0.00     0.201 C 
ENDBRANCH  28  29
ENDBRANCH  12  28
BRANCH   8  31
HETATM   31  C17 UNL     1      20.295   0.446  51.326  1.00  0.00     0.036 C 
HETATM   32  C18 UNL     1      19.982   1.058  50.000  1.00  0.00     0.010 C 
ENDBRANCH   8  31
TORSDOF 10
ENDMDL
MODEL 9
REMARK VINA RESULT:      -6.8      2.526      5.190
REMARK  10 active torsions:
REMARK  status: ('A' for Active; 'I' for Inactive)
REMARK    1  A    between atoms: C2_2  and  C3_3 
REMARK    2  A    between atoms: C7_7  and  N1_8 
REMARK    3  A    between atoms: N1_8  and  C8_9 
REMARK    4  A    between atoms: C10_13  and  C11_14 
REMARK    5  A    between atoms: C11_14  and  C12_15 
REMARK    6  A    between atoms: C12_15  and  C13_16 
REMARK    7  A    between atoms: C13_16  and  O1_17 
REMARK    8  A    between atoms: C16_20  and  C17_21 
REMARK    9  A    between atoms: C21_26  and  C22_27 
REMARK   10  A    between atoms: C22_27  and  O3_28 
ROOT
HETATM    1  C8  UNL     1      23.581   4.506  51.715  1.00  0.00     0.138 C 
HETATM    2  N2  UNL     1      23.959   5.655  51.193  1.00  0.00    -0.224 NA
HETATM    3  C9  UNL     1      23.168   6.150  50.119  1.00  0.00     0.230 C 
HETATM    4  N3  UNL     1      22.165   5.649  49.580  1.00  0.00    -0.266 NA
HETATM    5  C10 UNL     1      21.523   4.309  49.962  1.00  0.00     0.093 C 
HETATM    6  C14 UNL     1      22.332   3.964  51.182  1.00  0.00     0.019 C 
HETATM    7  C15 UNL     1      22.090   3.049  52.156  1.00  0.00     0.022 C 
HETATM    8  C16 UNL     1      21.040   2.050  52.428  1.00  0.00    -0.036 C 
HETATM    9  C19 UNL     1      19.728   2.025  52.113  1.00  0.00     0.141 C 
HETATM   10  O2  UNL     1      18.964   2.955  51.425  1.00  0.00    -0.362 OA
HETATM   11  C20 UNL     1      19.116   4.253  51.006  1.00  0.00     0.184 C 
HETATM   12  C21 UNL     1      20.163   4.790  50.185  1.00  0.00     0.069 C 
ENDROOT
BRANCH   1  13
HETATM   13  N1  UNL     1      24.360   3.983  52.773  1.00  0.00    -0.340 N 
HETATM   14  H7  UNL     1      24.286   4.602  53.620  1.00  0.00     0.167 HD
BRANCH  13  15
HETATM   15  C7  UNL     1      25.119   2.783  52.667  1.00  0.00     0.034 A 
HETATM   16  C6  UNL     1      25.821   2.649  51.509  1.00  0.00     0.029 A 
HETATM   17  C5  UNL     1      26.602   1.510  51.276  1.00  0.00     0.003 A 
HETATM   18  C4  UNL     1      26.663   0.505  52.232  1.00  0.00     0.011 A 
HETATM   19  C3  UNL     1      25.953   0.653  53.387  1.00  0.00    -0.035 A 
HETATM   20  C24 UNL     1      25.190   1.782  53.600  1.00  0.00     0.041 A 
BRANCH  19  21
HETATM   21  C2  UNL     1      25.963  -0.352  54.433  1.00  0.00     0.001 C 
HETATM   22  C1  UNL     1      24.835  -0.875  54.881  1.00  0.00     0.012 C 
ENDBRANCH  19  21
ENDBRANCH  13  15
ENDBRANCH   1  13
BRANCH   5  23
HETATM   23  C11 UNL     1      21.979   3.578  48.771  1.00  0.00     0.041 C 
BRANCH  23  24
HETATM   24  C12 UNL     1      22.400   2.219  48.585  1.00  0.00     0.029 C 
BRANCH  24  25
HETATM   25  C13 UNL     1      21.423   1.104  48.718  1.00  0.00     0.164 C 
BRANCH  25  26
HETATM   26  O1  UNL     1      20.110   1.394  48.860  1.00  0.00    -0.401 OA
HETATM   27  H15 UNL     1      19.587   0.676  48.426  1.00  0.00     0.209 HD
ENDBRANCH  25  26
ENDBRANCH  24  25
ENDBRANCH  23  24
ENDBRANCH   5  23
BRANCH  12  28
HETATM   28  C22 UNL     1      19.620   5.200  48.817  1.00  0.00     0.176 C 
BRANCH  28  29
HETATM   29  O3  UNL     1      18.849   6.333  48.951  1.00  0.00    -0.395 OA
HETATM   30  C23 UNL     1      18.956   7.286  47.972  1.00  0.00     0.201 C 
ENDBRANCH  28  29
ENDBRANCH  12  28
BRANCH   8  31
HETATM   31  C17 UNL     1      21.497   0.854  53.183  1.00  0.00     0.036 C 
HETATM   32  C18 UNL     1      22.240  -0.138  52.351  1.00  0.00     0.010 C 
ENDBRANCH   8  31
TORSDOF 10
ENDMDL
