MODEL 1
REMARK VINA RESULT:      -8.0      0.000      0.000
REMARK  9 active torsions:
REMARK  status: ('A' for Active; 'I' for Inactive)
REMARK    1  A    between atoms: O1_1  and  C1_2 
REMARK    2  A    between atoms: C4_5  and  C5_6 
REMARK    3  A    between atoms: C5_6  and  N1_7 
REMARK    4  A    between atoms: N1_7  and  C6_8 
REMARK    5  A    between atoms: N1_7  and  C13_17 
REMARK    6  A    between atoms: C6_8  and  C7_9 
REMARK    7  A    between atoms: C13_17  and  O2_18 
REMARK    8  A    between atoms: C13_17  and  N2_19 
REMARK    9  A    between atoms: C18_24  and  O3_25 
ROOT
HETATM    1  N1  UNL     1      24.232   2.052  51.172  1.00  0.00     0.145 N 
ENDROOT
BRANCH   1   2
HETATM    2  C5  UNL     1      23.571   2.423  52.370  1.00  0.00     0.317 C 
BRANCH   2   3
HETATM    3  C4  UNL     1      22.905   1.241  53.035  1.00  0.00    -0.030 A 
HETATM    4  C3  UNL     1      21.532   1.321  53.302  1.00  0.00     0.011 A 
HETATM    5  C2  UNL     1      20.765   0.345  53.903  1.00  0.00     0.037 A 
HETATM    6  C1  UNL     1      21.427  -0.806  54.267  1.00  0.00     0.065 A 
HETATM    7  C20 UNL     1      22.779  -0.922  54.021  1.00  0.00     0.037 A 
HETATM    8  C19 UNL     1      23.522   0.069  53.419  1.00  0.00     0.011 A 
BRANCH   6   9
HETATM    9  O1  UNL     1      20.679  -1.810  54.877  1.00  0.00    -0.361 OA
HETATM   10  H1  UNL     1      21.212  -2.535  55.352  1.00  0.00     0.217 HD
ENDBRANCH   6   9
ENDBRANCH   2   3
ENDBRANCH   1   2
BRANCH   1  11
HETATM   11  C6  UNL     1      25.627   2.498  51.259  1.00  0.00     0.317 C 
BRANCH  11  12
HETATM   12  C7  UNL     1      26.496   1.560  51.978  1.00  0.00    -0.027 A 
HETATM   13  C8  UNL     1      26.458   0.164  51.934  1.00  0.00     0.032 A 
HETATM   14  C9  UNL     1      27.334  -0.610  52.662  1.00  0.00     0.036 A 
HETATM   15 CL1  UNL     1      27.187  -2.369  52.525  1.00  0.00    -0.084 Cl
HETATM   16  C10 UNL     1      28.295  -0.046  53.473  1.00  0.00     0.047 A 
HETATM   17  C11 UNL     1      28.409   1.323  53.578  1.00  0.00     0.036 A 
HETATM   18 CL2  UNL     1      29.578   2.128  54.565  1.00  0.00    -0.084 Cl
HETATM   19  C12 UNL     1      27.504   2.039  52.825  1.00  0.00     0.032 A 
ENDBRANCH  11  12
ENDBRANCH   1  11
BRANCH   1  20
HETATM   20  C13 UNL     1      23.609   2.537  49.993  1.00  0.00     0.465 C 
BRANCH  20  21
HETATM   21  O2  UNL     1      23.891   3.900  49.768  1.00  0.00    -0.352 OA
HETATM   22  H12 UNL     1      23.184   4.373  49.297  1.00  0.00     0.214 HD
ENDBRANCH  20  21
BRANCH  20  23
HETATM   23  N2  UNL     1      22.239   2.363  49.894  1.00  0.00    -0.334 N 
HETATM   24  C14 UNL     1      21.372   3.410  49.486  1.00  0.00     0.128 C 
HETATM   25  C15 UNL     1      20.124   3.399  50.356  1.00  0.00     0.046 C 
HETATM   26  C16 UNL     1      19.533   2.004  50.355  1.00  0.00    -0.025 C 
HETATM   27  C17 UNL     1      20.327   1.005  49.915  1.00  0.00     0.022 C 
HETATM   28  C18 UNL     1      21.752   1.097  49.416  1.00  0.00     0.243 C 
BRANCH  28  29
HETATM   29  O3  UNL     1      21.706   1.139  48.027  1.00  0.00    -0.373 OA
HETATM   30  H20 UNL     1      21.243   1.941  47.681  1.00  0.00     0.212 HD
ENDBRANCH  28  29
ENDBRANCH  20  23
ENDBRANCH   1  20
TORSDOF 9
ENDMDL
MODEL 2
REMARK VINA RESULT:      -7.7      2.882      5.280
REMARK  9 active torsions:
REMARK  status: ('A' for Active; 'I' for Inactive)
REMARK    1  A    between atoms: O1_1  and  C1_2 
REMARK    2  A    between atoms: C4_5  and  C5_6 
REMARK    3  A    between atoms: C5_6  and  N1_7 
REMARK    4  A    between atoms: N1_7  and  C6_8 
REMARK    5  A    between atoms: N1_7  and  C13_17 
REMARK    6  A    between atoms: C6_8  and  C7_9 
REMARK    7  A    between atoms: C13_17  and  O2_18 
REMARK    8  A    between atoms: C13_17  and  N2_19 
REMARK    9  A    between atoms: C18_24  and  O3_25 
ROOT
HETATM    1  N1  UNL     1      24.505   2.319  51.935  1.00  0.00     0.145 N 
ENDROOT
BRANCH   1   2
HETATM    2  C5  UNL     1      25.690   2.038  51.209  1.00  0.00     0.317 C 
BRANCH   2   3
HETATM    3  C4  UNL     1      26.702   1.293  52.049  1.00  0.00    -0.030 A 
HETATM    4  C3  UNL     1      26.625  -0.104  52.090  1.00  0.00     0.011 A 
HETATM    5  C2  UNL     1      27.457  -0.942  52.803  1.00  0.00     0.037 A 
HETATM    6  C1  UNL     1      28.449  -0.328  53.536  1.00  0.00     0.065 A 
HETATM    7  C20 UNL     1      28.556   1.046  53.520  1.00  0.00     0.037 A 
HETATM    8  C19 UNL     1      27.711   1.860  52.799  1.00  0.00     0.011 A 
BRANCH   6   9
HETATM    9  O1  UNL     1      29.306  -1.147  54.267  1.00  0.00    -0.361 OA
HETATM   10  H1  UNL     1      30.230  -1.294  53.867  1.00  0.00     0.217 HD
ENDBRANCH   6   9
ENDBRANCH   2   3
ENDBRANCH   1   2
BRANCH   1  11
HETATM   11  C6  UNL     1      23.414   1.526  51.360  1.00  0.00     0.317 C 
BRANCH  11  12
HETATM   12  C7  UNL     1      22.720   0.687  52.344  1.00  0.00    -0.027 A 
HETATM   13  C8  UNL     1      23.274   0.049  53.456  1.00  0.00     0.032 A 
HETATM   14  C9  UNL     1      22.512  -0.717  54.309  1.00  0.00     0.036 A 
HETATM   15 CL1  UNL     1      23.327  -1.477  55.684  1.00  0.00    -0.084 Cl
HETATM   16  C10 UNL     1      21.160  -0.894  54.108  1.00  0.00     0.047 A 
HETATM   17  C11 UNL     1      20.527  -0.303  53.038  1.00  0.00     0.036 A 
HETATM   18 CL2  UNL     1      18.838  -0.462  52.697  1.00  0.00    -0.084 Cl
HETATM   19  C12 UNL     1      21.344   0.450  52.224  1.00  0.00     0.032 A 
ENDBRANCH  11  12
ENDBRANCH   1  11
BRANCH   1  20
HETATM   20  C13 UNL     1      24.170   3.697  51.984  1.00  0.00     0.465 C 
BRANCH  20  21
HETATM   21  O2  UNL     1      24.185   4.200  53.301  1.00  0.00    -0.352 OA
HETATM   22  H12 UNL     1      24.332   3.519  53.978  1.00  0.00     0.214 HD
ENDBRANCH  20  21
BRANCH  20  23
HETATM   23  N2  UNL     1      22.971   4.069  51.399  1.00  0.00    -0.334 N 
HETATM   24  C14 UNL     1      21.894   4.598  52.156  1.00  0.00     0.128 C 
HETATM   25  C15 UNL     1      20.587   3.990  51.666  1.00  0.00     0.046 C 
HETATM   26  C16 UNL     1      20.496   4.160  50.164  1.00  0.00    -0.025 C 
HETATM   27  C17 UNL     1      21.636   4.475  49.514  1.00  0.00     0.022 C 
HETATM   28  C18 UNL     1      23.016   4.682  50.099  1.00  0.00     0.243 C 
BRANCH  28  29
HETATM   29  O3  UNL     1      23.199   6.050  50.263  1.00  0.00    -0.373 OA
HETATM   30  H20 UNL     1      23.919   6.268  50.904  1.00  0.00     0.212 HD
ENDBRANCH  28  29
ENDBRANCH  20  23
ENDBRANCH   1  20
TORSDOF 9
ENDMDL
MODEL 3
REMARK VINA RESULT:      -7.7      3.139      5.364
REMARK  9 active torsions:
REMARK  status: ('A' for Active; 'I' for Inactive)
REMARK    1  A    between atoms: O1_1  and  C1_2 
REMARK    2  A    between atoms: C4_5  and  C5_6 
REMARK    3  A    between atoms: C5_6  and  N1_7 
REMARK    4  A    between atoms: N1_7  and  C6_8 
REMARK    5  A    between atoms: N1_7  and  C13_17 
REMARK    6  A    between atoms: C6_8  and  C7_9 
REMARK    7  A    between atoms: C13_17  and  O2_18 
REMARK    8  A    between atoms: C13_17  and  N2_19 
REMARK    9  A    between atoms: C18_24  and  O3_25 
ROOT
HETATM    1  N1  UNL     1      23.477   2.520  52.091  1.00  0.00     0.145 N 
ENDROOT
BRANCH   1   2
HETATM    2  C5  UNL     1      24.765   2.452  51.500  1.00  0.00     0.317 C 
BRANCH   2   3
HETATM    3  C4  UNL     1      25.700   1.566  52.288  1.00  0.00    -0.030 A 
HETATM    4  C3  UNL     1      25.936   1.884  53.631  1.00  0.00     0.011 A 
HETATM    5  C2  UNL     1      26.759   1.193  54.496  1.00  0.00     0.037 A 
HETATM    6  C1  UNL     1      27.399   0.092  53.972  1.00  0.00     0.065 A 
HETATM    7  C20 UNL     1      27.192  -0.253  52.653  1.00  0.00     0.037 A 
HETATM    8  C19 UNL     1      26.364   0.455  51.810  1.00  0.00     0.011 A 
BRANCH   6   9
HETATM    9  O1  UNL     1      28.237  -0.627  54.821  1.00  0.00    -0.361 OA
HETATM   10  H1  UNL     1      29.007  -0.106  55.232  1.00  0.00     0.217 HD
ENDBRANCH   6   9
ENDBRANCH   2   3
ENDBRANCH   1   2
BRANCH   1  11
HETATM   11  C6  UNL     1      22.630   1.500  51.463  1.00  0.00     0.317 C 
BRANCH  11  12
HETATM   12  C7  UNL     1      22.015   0.579  52.425  1.00  0.00    -0.027 A 
HETATM   13  C8  UNL     1      20.686   0.147  52.458  1.00  0.00     0.032 A 
HETATM   14  C9  UNL     1      20.229  -0.723  53.421  1.00  0.00     0.036 A 
HETATM   15 CL1  UNL     1      18.524  -1.197  53.359  1.00  0.00    -0.084 Cl
HETATM   16  C10 UNL     1      21.059  -1.214  54.405  1.00  0.00     0.047 A 
HETATM   17  C11 UNL     1      22.385  -0.845  54.453  1.00  0.00     0.036 A 
HETATM   18 CL2  UNL     1      23.508  -1.403  55.644  1.00  0.00    -0.084 Cl
HETATM   19  C12 UNL     1      22.780   0.027  53.462  1.00  0.00     0.032 A 
ENDBRANCH  11  12
ENDBRANCH   1  11
BRANCH   1  20
HETATM   20  C13 UNL     1      22.875   3.803  52.021  1.00  0.00     0.465 C 
BRANCH  20  21
HETATM   21  O2  UNL     1      21.469   3.725  51.949  1.00  0.00    -0.352 OA
HETATM   22  H12 UNL     1      21.113   2.853  52.190  1.00  0.00     0.214 HD
ENDBRANCH  20  21
BRANCH  20  23
HETATM   23  N2  UNL     1      23.308   4.641  51.008  1.00  0.00    -0.334 N 
HETATM   24  C14 UNL     1      22.588   4.795  49.795  1.00  0.00     0.128 C 
HETATM   25  C15 UNL     1      23.565   4.820  48.629  1.00  0.00     0.046 C 
HETATM   26  C16 UNL     1      24.637   5.855  48.905  1.00  0.00    -0.025 C 
HETATM   27  C17 UNL     1      24.747   6.296  50.176  1.00  0.00     0.022 C 
HETATM   28  C18 UNL     1      23.929   5.884  51.380  1.00  0.00     0.243 C 
BRANCH  28  29
HETATM   29  O3  UNL     1      22.933   6.838  51.555  1.00  0.00    -0.373 OA
HETATM   30  H20 UNL     1      22.838   7.128  52.495  1.00  0.00     0.212 HD
ENDBRANCH  28  29
ENDBRANCH  20  23
ENDBRANCH   1  20
TORSDOF 9
ENDMDL
MODEL 4
REMARK VINA RESULT:      -7.6      3.866      5.486
REMARK  9 active torsions:
REMARK  status: ('A' for Active; 'I' for Inactive)
REMARK    1  A    between atoms: O1_1  and  C1_2 
REMARK    2  A    between atoms: C4_5  and  C5_6 
REMARK    3  A    between atoms: C5_6  and  N1_7 
REMARK    4  A    between atoms: N1_7  and  C6_8 
REMARK    5  A    between atoms: N1_7  and  C13_17 
REMARK    6  A    between atoms: C6_8  and  C7_9 
REMARK    7  A    between atoms: C13_17  and  O2_18 
REMARK    8  A    between atoms: C13_17  and  N2_19 
REMARK    9  A    between atoms: C18_24  and  O3_25 
ROOT
HETATM    1  N1  UNL     1      23.483   2.513  52.024  1.00  0.00     0.145 N 
ENDROOT
BRANCH   1   2
HETATM    2  C5  UNL     1      23.897   1.598  53.025  1.00  0.00     0.317 C 
BRANCH   2   3
HETATM    3  C4  UNL     1      22.821   0.585  53.340  1.00  0.00    -0.030 A 
HETATM    4  C3  UNL     1      21.506   1.041  53.486  1.00  0.00     0.011 A 
HETATM    5  C2  UNL     1      20.405   0.263  53.777  1.00  0.00     0.037 A 
HETATM    6  C1  UNL     1      20.641  -1.085  53.934  1.00  0.00     0.065 A 
HETATM    7  C20 UNL     1      21.924  -1.572  53.798  1.00  0.00     0.037 A 
HETATM    8  C19 UNL     1      23.007  -0.772  53.508  1.00  0.00     0.011 A 
BRANCH   6   9
HETATM    9  O1  UNL     1      19.549  -1.898  54.229  1.00  0.00    -0.361 OA
HETATM   10  H1  UNL     1      19.463  -2.194  55.198  1.00  0.00     0.217 HD
ENDBRANCH   6   9
ENDBRANCH   2   3
ENDBRANCH   1   2
BRANCH   1  11
HETATM   11  C6  UNL     1      23.755   1.913  50.713  1.00  0.00     0.317 C 
BRANCH  11  12
HETATM   12  C7  UNL     1      22.678   2.123  49.740  1.00  0.00    -0.027 A 
HETATM   13  C8  UNL     1      22.771   2.743  48.490  1.00  0.00     0.032 A 
HETATM   14  C9  UNL     1      21.678   2.881  47.665  1.00  0.00     0.036 A 
HETATM   15 CL1  UNL     1      21.921   3.684  46.106  1.00  0.00    -0.084 Cl
HETATM   16  C10 UNL     1      20.433   2.414  48.029  1.00  0.00     0.047 A 
HETATM   17  C11 UNL     1      20.246   1.790  49.242  1.00  0.00     0.036 A 
HETATM   18 CL2  UNL     1      18.728   1.170  49.792  1.00  0.00    -0.084 Cl
HETATM   19  C12 UNL     1      21.377   1.683  50.020  1.00  0.00     0.032 A 
ENDBRANCH  11  12
ENDBRANCH   1  11
BRANCH   1  20
HETATM   20  C13 UNL     1      24.074   3.798  52.134  1.00  0.00     0.465 C 
BRANCH  20  21
HETATM   21  O2  UNL     1      24.267   4.179  53.478  1.00  0.00    -0.352 OA
HETATM   22  H12 UNL     1      24.927   3.639  53.947  1.00  0.00     0.214 HD
ENDBRANCH  20  21
BRANCH  20  23
HETATM   23  N2  UNL     1      23.431   4.839  51.485  1.00  0.00    -0.334 N 
HETATM   24  C14 UNL     1      22.119   5.253  51.836  1.00  0.00     0.128 C 
HETATM   25  C15 UNL     1      21.323   5.534  50.570  1.00  0.00     0.046 C 
HETATM   26  C16 UNL     1      22.112   6.485  49.693  1.00  0.00    -0.025 C 
HETATM   27  C17 UNL     1      23.422   6.637  49.979  1.00  0.00     0.022 C 
HETATM   28  C18 UNL     1      24.219   5.971  51.080  1.00  0.00     0.243 C 
BRANCH  28  29
HETATM   29  O3  UNL     1      24.289   6.863  52.143  1.00  0.00    -0.373 OA
HETATM   30  H20 UNL     1      23.957   7.764  51.913  1.00  0.00     0.212 HD
ENDBRANCH  28  29
ENDBRANCH  20  23
ENDBRANCH   1  20
TORSDOF 9
ENDMDL
MODEL 5
REMARK VINA RESULT:      -7.5      2.802      6.161
REMARK  9 active torsions:
REMARK  status: ('A' for Active; 'I' for Inactive)
REMARK    1  A    between atoms: O1_1  and  C1_2 
REMARK    2  A    between atoms: C4_5  and  C5_6 
REMARK    3  A    between atoms: C5_6  and  N1_7 
REMARK    4  A    between atoms: N1_7  and  C6_8 
REMARK    5  A    between atoms: N1_7  and  C13_17 
REMARK    6  A    between atoms: C6_8  and  C7_9 
REMARK    7  A    between atoms: C13_17  and  O2_18 
REMARK    8  A    between atoms: C13_17  and  N2_19 
REMARK    9  A    between atoms: C18_24  and  O3_25 
ROOT
HETATM    1  N1  UNL     1      24.197   2.901  51.251  1.00  0.00     0.145 N 
ENDROOT
BRANCH   1   2
HETATM    2  C5  UNL     1      23.988   3.749  50.134  1.00  0.00     0.317 C 
BRANCH   2   3
HETATM    3  C4  UNL     1      22.781   3.329  49.327  1.00  0.00    -0.030 A 
HETATM    4  C3  UNL     1      21.731   4.244  49.185  1.00  0.00     0.011 A 
HETATM    5  C2  UNL     1      20.558   4.032  48.492  1.00  0.00     0.037 A 
HETATM    6  C1  UNL     1      20.426   2.799  47.891  1.00  0.00     0.065 A 
HETATM    7  C20 UNL     1      21.439   1.871  48.009  1.00  0.00     0.037 A 
HETATM    8  C19 UNL     1      22.601   2.110  48.708  1.00  0.00     0.011 A 
BRANCH   6   9
HETATM    9  O1  UNL     1      19.252   2.553  47.183  1.00  0.00    -0.361 OA
HETATM   10  H1  UNL     1      19.354   2.439  46.177  1.00  0.00     0.217 HD
ENDBRANCH   6   9
ENDBRANCH   2   3
ENDBRANCH   1   2
BRANCH   1  11
HETATM   11  C6  UNL     1      23.099   3.113  52.200  1.00  0.00     0.317 C 
BRANCH  11  12
HETATM   12  C7  UNL     1      22.335   1.894  52.490  1.00  0.00    -0.027 A 
HETATM   13  C8  UNL     1      21.115   1.503  51.932  1.00  0.00     0.032 A 
HETATM   14  C9  UNL     1      20.495   0.328  52.291  1.00  0.00     0.036 A 
HETATM   15 CL1  UNL     1      18.952  -0.058  51.515  1.00  0.00    -0.084 Cl
HETATM   16  C10 UNL     1      21.047  -0.526  53.222  1.00  0.00     0.047 A 
HETATM   17  C11 UNL     1      22.247  -0.224  53.825  1.00  0.00     0.036 A 
HETATM   18 CL2  UNL     1      23.023  -1.226  55.002  1.00  0.00    -0.084 Cl
HETATM   19  C12 UNL     1      22.816   0.964  53.422  1.00  0.00     0.032 A 
ENDBRANCH  11  12
ENDBRANCH   1  11
BRANCH   1  20
HETATM   20  C13 UNL     1      25.459   3.071  51.878  1.00  0.00     0.465 C 
BRANCH  20  21
HETATM   21  O2  UNL     1      26.433   3.563  50.984  1.00  0.00    -0.352 OA
HETATM   22  H12 UNL     1      26.942   2.865  50.537  1.00  0.00     0.214 HD
ENDBRANCH  20  21
BRANCH  20  23
HETATM   23  N2  UNL     1      25.991   1.965  52.520  1.00  0.00    -0.334 N 
HETATM   24  C14 UNL     1      26.824   1.031  51.852  1.00  0.00     0.128 C 
HETATM   25  C15 UNL     1      26.440  -0.380  52.273  1.00  0.00     0.046 C 
HETATM   26  C16 UNL     1      26.429  -0.457  53.786  1.00  0.00    -0.025 C 
HETATM   27  C17 UNL     1      26.415   0.714  54.458  1.00  0.00     0.022 C 
HETATM   28  C18 UNL     1      26.407   2.115  53.888  1.00  0.00     0.243 C 
BRANCH  28  29
HETATM   29  O3  UNL     1      27.717   2.579  53.901  1.00  0.00    -0.373 OA
HETATM   30  H20 UNL     1      27.818   3.435  54.384  1.00  0.00     0.212 HD
ENDBRANCH  28  29
ENDBRANCH  20  23
ENDBRANCH   1  20
TORSDOF 9
ENDMDL
MODEL 6
REMARK VINA RESULT:      -7.3      3.564      5.844
REMARK  9 active torsions:
REMARK  status: ('A' for Active; 'I' for Inactive)
REMARK    1  A    between atoms: O1_1  and  C1_2 
REMARK    2  A    between atoms: C4_5  and  C5_6 
REMARK    3  A    between atoms: C5_6  and  N1_7 
REMARK    4  A    between atoms: N1_7  and  C6_8 
REMARK    5  A    between atoms: N1_7  and  C13_17 
REMARK    6  A    between atoms: C6_8  and  C7_9 
REMARK    7  A    between atoms: C13_17  and  O2_18 
REMARK    8  A    between atoms: C13_17  and  N2_19 
REMARK    9  A    between atoms: C18_24  and  O3_25 
ROOT
HETATM    1  N1  UNL     1      24.805   3.904  50.195  1.00  0.00     0.145 N 
ENDROOT
BRANCH   1   2
HETATM    2  C5  UNL     1      26.061   3.434  50.657  1.00  0.00     0.317 C 
BRANCH   2   3
HETATM    3  C4  UNL     1      25.909   2.294  51.637  1.00  0.00    -0.030 A 
HETATM    4  C3  UNL     1      26.741   1.178  51.486  1.00  0.00     0.011 A 
HETATM    5  C2  UNL     1      26.738   0.050  52.280  1.00  0.00     0.037 A 
HETATM    6  C1  UNL     1      25.826   0.040  53.312  1.00  0.00     0.065 A 
HETATM    7  C20 UNL     1      24.989   1.120  53.493  1.00  0.00     0.037 A 
HETATM    8  C19 UNL     1      25.012   2.235  52.683  1.00  0.00     0.011 A 
BRANCH   6   9
HETATM    9  O1  UNL     1      25.798  -1.085  54.133  1.00  0.00    -0.361 OA
HETATM   10  H1  UNL     1      25.544  -1.960  53.681  1.00  0.00     0.217 HD
ENDBRANCH   6   9
ENDBRANCH   2   3
ENDBRANCH   1   2
BRANCH   1  11
HETATM   11  C6  UNL     1      24.432   3.126  49.008  1.00  0.00     0.317 C 
BRANCH  11  12
HETATM   12  C7  UNL     1      23.038   2.670  49.023  1.00  0.00    -0.027 A 
HETATM   13  C8  UNL     1      22.016   3.030  48.141  1.00  0.00     0.032 A 
HETATM   14  C9  UNL     1      20.740   2.530  48.264  1.00  0.00     0.036 A 
HETATM   15 CL1  UNL     1      19.530   3.061  47.086  1.00  0.00    -0.084 Cl
HETATM   16  C10 UNL     1      20.403   1.645  49.267  1.00  0.00     0.047 A 
HETATM   17  C11 UNL     1      21.345   1.233  50.183  1.00  0.00     0.036 A 
HETATM   18 CL2  UNL     1      21.026   0.129  51.475  1.00  0.00    -0.084 Cl
HETATM   19  C12 UNL     1      22.601   1.769  50.004  1.00  0.00     0.032 A 
ENDBRANCH  11  12
ENDBRANCH   1  11
BRANCH   1  20
HETATM   20  C13 UNL     1      24.771   5.297  49.929  1.00  0.00     0.465 C 
BRANCH  20  21
HETATM   21  O2  UNL     1      25.880   5.969  50.483  1.00  0.00    -0.352 OA
HETATM   22  H12 UNL     1      26.624   5.383  50.700  1.00  0.00     0.214 HD
ENDBRANCH  20  21
BRANCH  20  23
HETATM   23  N2  UNL     1      23.627   5.977  50.311  1.00  0.00    -0.334 N 
HETATM   24  C14 UNL     1      22.760   5.490  51.323  1.00  0.00     0.128 C 
HETATM   25  C15 UNL     1      21.315   5.693  50.891  1.00  0.00     0.046 C 
HETATM   26  C16 UNL     1      21.120   7.139  50.484  1.00  0.00    -0.025 C 
HETATM   27  C17 UNL     1      22.235   7.864  50.252  1.00  0.00     0.022 C 
HETATM   28  C18 UNL     1      23.676   7.414  50.346  1.00  0.00     0.243 C 
BRANCH  28  29
HETATM   29  O3  UNL     1      24.157   7.808  51.590  1.00  0.00    -0.373 OA
HETATM   30  H20 UNL     1      24.518   7.056  52.119  1.00  0.00     0.212 HD
ENDBRANCH  28  29
ENDBRANCH  20  23
ENDBRANCH   1  20
TORSDOF 9
ENDMDL
MODEL 7
REMARK VINA RESULT:      -7.2      2.495      4.790
REMARK  9 active torsions:
REMARK  status: ('A' for Active; 'I' for Inactive)
REMARK    1  A    between atoms: O1_1  and  C1_2 
REMARK    2  A    between atoms: C4_5  and  C5_6 
REMARK    3  A    between atoms: C5_6  and  N1_7 
REMARK    4  A    between atoms: N1_7  and  C6_8 
REMARK    5  A    between atoms: N1_7  and  C13_17 
REMARK    6  A    between atoms: C6_8  and  C7_9 
REMARK    7  A    between atoms: C13_17  and  O2_18 
REMARK    8  A    between atoms: C13_17  and  N2_19 
REMARK    9  A    between atoms: C18_24  and  O3_25 
ROOT
HETATM    1  N1  UNL     1      23.244   4.340  51.764  1.00  0.00     0.145 N 
ENDROOT
BRANCH   1   2
HETATM    2  C5  UNL     1      21.865   4.617  51.950  1.00  0.00     0.317 C 
BRANCH   2   3
HETATM    3  C4  UNL     1      20.989   3.623  51.224  1.00  0.00    -0.030 A 
HETATM    4  C3  UNL     1      20.077   2.873  51.978  1.00  0.00     0.011 A 
HETATM    5  C2  UNL     1      19.207   1.922  51.487  1.00  0.00     0.037 A 
HETATM    6  C1  UNL     1      19.254   1.704  50.128  1.00  0.00     0.065 A 
HETATM    7  C20 UNL     1      20.138   2.423  49.352  1.00  0.00     0.037 A 
HETATM    8  C19 UNL     1      20.998   3.368  49.869  1.00  0.00     0.011 A 
BRANCH   6   9
HETATM    9  O1  UNL     1      18.387   0.750  49.601  1.00  0.00    -0.361 OA
HETATM   10  H1  UNL     1      17.397   0.899  49.782  1.00  0.00     0.217 HD
ENDBRANCH   6   9
ENDBRANCH   2   3
ENDBRANCH   1   2
BRANCH   1  11
HETATM   11  C6  UNL     1      23.804   3.916  53.052  1.00  0.00     0.317 C 
BRANCH  11  12
HETATM   12  C7  UNL     1      24.303   2.536  53.045  1.00  0.00    -0.027 A 
HETATM   13  C8  UNL     1      25.635   2.115  53.011  1.00  0.00     0.032 A 
HETATM   14  C9  UNL     1      25.975   0.781  53.006  1.00  0.00     0.036 A 
HETATM   15 CL1  UNL     1      27.696   0.371  52.962  1.00  0.00    -0.084 Cl
HETATM   16  C10 UNL     1      25.017  -0.210  53.034  1.00  0.00     0.047 A 
HETATM   17  C11 UNL     1      23.678   0.110  53.069  1.00  0.00     0.036 A 
HETATM   18 CL2  UNL     1      22.400  -1.054  53.106  1.00  0.00    -0.084 Cl
HETATM   19  C12 UNL     1      23.405   1.461  53.073  1.00  0.00     0.032 A 
ENDBRANCH  11  12
ENDBRANCH   1  11
BRANCH   1  20
HETATM   20  C13 UNL     1      23.981   5.419  51.211  1.00  0.00     0.465 C 
BRANCH  20  21
HETATM   21  O2  UNL     1      23.140   6.408  50.660  1.00  0.00    -0.352 OA
HETATM   22  H12 UNL     1      22.497   6.062  50.019  1.00  0.00     0.214 HD
ENDBRANCH  20  21
BRANCH  20  23
HETATM   23  N2  UNL     1      24.941   5.100  50.266  1.00  0.00    -0.334 N 
HETATM   24  C14 UNL     1      24.988   3.828  49.637  1.00  0.00     0.128 C 
HETATM   25  C15 UNL     1      26.435   3.367  49.541  1.00  0.00     0.046 C 
HETATM   26  C16 UNL     1      27.261   4.462  48.898  1.00  0.00    -0.025 C 
HETATM   27  C17 UNL     1      26.708   5.692  48.841  1.00  0.00     0.022 C 
HETATM   28  C18 UNL     1      25.349   6.126  49.346  1.00  0.00     0.243 C 
BRANCH  28  29
HETATM   29  O3  UNL     1      24.479   6.118  48.262  1.00  0.00    -0.373 OA
HETATM   30  H20 UNL     1      24.939   5.974  47.399  1.00  0.00     0.212 HD
ENDBRANCH  28  29
ENDBRANCH  20  23
ENDBRANCH   1  20
TORSDOF 9
ENDMDL
MODEL 8
REMARK VINA RESULT:      -7.0      2.166      4.899
REMARK  9 active torsions:
REMARK  status: ('A' for Active; 'I' for Inactive)
REMARK    1  A    between atoms: O1_1  and  C1_2 
REMARK    2  A    between atoms: C4_5  and  C5_6 
REMARK    3  A    between atoms: C5_6  and  N1_7 
REMARK    4  A    between atoms: N1_7  and  C6_8 
REMARK    5  A    between atoms: N1_7  and  C13_17 
REMARK    6  A    between atoms: C6_8  and  C7_9 
REMARK    7  A    between atoms: C13_17  and  O2_18 
REMARK    8  A    between atoms: C13_17  and  N2_19 
REMARK    9  A    between atoms: C18_24  and  O3_25 
ROOT
HETATM    1  N1  UNL     1      23.735   2.937  52.040  1.00  0.00     0.145 N 
ENDROOT
BRANCH   1   2
HETATM    2  C5  UNL     1      24.629   2.494  51.032  1.00  0.00     0.317 C 
BRANCH   2   3
HETATM    3  C4  UNL     1      25.263   3.651  50.295  1.00  0.00    -0.030 A 
HETATM    4  C3  UNL     1      26.501   3.441  49.676  1.00  0.00     0.011 A 
HETATM    5  C2  UNL     1      27.224   4.378  48.968  1.00  0.00     0.037 A 
HETATM    6  C1  UNL     1      26.658   5.630  48.871  1.00  0.00     0.065 A 
HETATM    7  C20 UNL     1      25.440   5.876  49.467  1.00  0.00     0.037 A 
HETATM    8  C19 UNL     1      24.739   4.921  50.170  1.00  0.00     0.011 A 
BRANCH   6   9
HETATM    9  O1  UNL     1      27.364   6.599  48.162  1.00  0.00    -0.361 OA
HETATM   10  H1  UNL     1      27.457   7.504  48.617  1.00  0.00     0.217 HD
ENDBRANCH   6   9
ENDBRANCH   2   3
ENDBRANCH   1   2
BRANCH   1  11
HETATM   11  C6  UNL     1      24.173   2.373  53.322  1.00  0.00     0.317 C 
BRANCH  11  12
HETATM   12  C7  UNL     1      25.399   1.573  53.219  1.00  0.00    -0.027 A 
HETATM   13  C8  UNL     1      25.511   0.239  52.818  1.00  0.00     0.032 A 
HETATM   14  C9  UNL     1      26.727  -0.404  52.764  1.00  0.00     0.036 A 
HETATM   15 CL1  UNL     1      26.741  -2.095  52.241  1.00  0.00    -0.084 Cl
HETATM   16  C10 UNL     1      27.899   0.237  53.105  1.00  0.00     0.047 A 
HETATM   17  C11 UNL     1      27.886   1.552  53.512  1.00  0.00     0.036 A 
HETATM   18 CL2  UNL     1      29.298   2.445  53.959  1.00  0.00    -0.084 Cl
HETATM   19  C12 UNL     1      26.640   2.137  53.543  1.00  0.00     0.032 A 
ENDBRANCH  11  12
ENDBRANCH   1  11
BRANCH   1  20
HETATM   20  C13 UNL     1      22.374   2.632  51.782  1.00  0.00     0.465 C 
BRANCH  20  21
HETATM   21  O2  UNL     1      21.520   3.707  52.101  1.00  0.00    -0.352 OA
HETATM   22  H12 UNL     1      21.925   4.581  51.969  1.00  0.00     0.214 HD
ENDBRANCH  20  21
BRANCH  20  23
HETATM   23  N2  UNL     1      21.865   1.491  52.380  1.00  0.00    -0.334 N 
HETATM   24  C14 UNL     1      20.663   1.506  53.135  1.00  0.00     0.128 C 
HETATM   25  C15 UNL     1      20.842   0.657  54.385  1.00  0.00     0.046 C 
HETATM   26  C16 UNL     1      21.362  -0.708  53.984  1.00  0.00    -0.025 C 
HETATM   27  C17 UNL     1      21.873  -0.826  52.740  1.00  0.00     0.022 C 
HETATM   28  C18 UNL     1      21.997   0.244  51.678  1.00  0.00     0.243 C 
BRANCH  28  29
HETATM   29  O3  UNL     1      20.914   0.106  50.818  1.00  0.00    -0.373 OA
HETATM   30  H20 UNL     1      20.651  -0.836  50.678  1.00  0.00     0.212 HD
ENDBRANCH  28  29
ENDBRANCH  20  23
ENDBRANCH   1  20
TORSDOF 9
ENDMDL
MODEL 9
REMARK VINA RESULT:      -7.0      8.833     12.056
REMARK  9 active torsions:
REMARK  status: ('A' for Active; 'I' for Inactive)
REMARK    1  A    between atoms: O1_1  and  C1_2 
REMARK    2  A    between atoms: C4_5  and  C5_6 
REMARK    3  A    between atoms: C5_6  and  N1_7 
REMARK    4  A    between atoms: N1_7  and  C6_8 
REMARK    5  A    between atoms: N1_7  and  C13_17 
REMARK    6  A    between atoms: C6_8  and  C7_9 
REMARK    7  A    between atoms: C13_17  and  O2_18 
REMARK    8  A    between atoms: C13_17  and  N2_19 
REMARK    9  A    between atoms: C18_24  and  O3_25 
ROOT
HETATM    1  N1  UNL     1      31.672   6.809  47.396  1.00  0.00     0.145 N 
ENDROOT
BRANCH   1   2
HETATM    2  C5  UNL     1      32.271   7.540  48.453  1.00  0.00     0.317 C 
BRANCH   2   3
HETATM    3  C4  UNL     1      31.795   8.974  48.486  1.00  0.00    -0.030 A 
HETATM    4  C3  UNL     1      32.313   9.864  47.538  1.00  0.00     0.011 A 
HETATM    5  C2  UNL     1      31.996  11.202  47.423  1.00  0.00     0.037 A 
HETATM    6  C1  UNL     1      31.085  11.688  48.334  1.00  0.00     0.065 A 
HETATM    7  C20 UNL     1      30.552  10.841  49.283  1.00  0.00     0.037 A 
HETATM    8  C19 UNL     1      30.886   9.508  49.376  1.00  0.00     0.011 A 
BRANCH   6   9
HETATM    9  O1  UNL     1      30.744  13.035  48.244  1.00  0.00    -0.361 OA
HETATM   10  H1  UNL     1      30.735  13.551  49.120  1.00  0.00     0.217 HD
ENDBRANCH   6   9
ENDBRANCH   2   3
ENDBRANCH   1   2
BRANCH   1  11
HETATM   11  C6  UNL     1      30.843   5.751  47.983  1.00  0.00     0.317 C 
BRANCH  11  12
HETATM   12  C7  UNL     1      29.414   6.082  48.018  1.00  0.00    -0.027 A 
HETATM   13  C8  UNL     1      28.802   7.254  47.565  1.00  0.00     0.032 A 
HETATM   14  C9  UNL     1      27.442   7.446  47.657  1.00  0.00     0.036 A 
HETATM   15 CL1  UNL     1      26.784   8.972  47.048  1.00  0.00    -0.084 Cl
HETATM   16  C10 UNL     1      26.612   6.490  48.203  1.00  0.00     0.047 A 
HETATM   17  C11 UNL     1      27.125   5.303  48.676  1.00  0.00     0.036 A 
HETATM   18 CL2  UNL     1      26.172   4.042  49.377  1.00  0.00    -0.084 Cl
HETATM   19  C12 UNL     1      28.491   5.173  48.554  1.00  0.00     0.032 A 
ENDBRANCH  11  12
ENDBRANCH   1  11
BRANCH   1  20
HETATM   20  C13 UNL     1      32.599   6.278  46.462  1.00  0.00     0.465 C 
BRANCH  20  21
HETATM   21  O2  UNL     1      32.152   6.420  45.132  1.00  0.00    -0.352 OA
HETATM   22  H12 UNL     1      31.521   5.735  44.856  1.00  0.00     0.214 HD
ENDBRANCH  20  21
BRANCH  20  23
HETATM   23  N2  UNL     1      32.982   4.959  46.644  1.00  0.00    -0.334 N 
HETATM   24  C14 UNL     1      32.593   3.929  45.748  1.00  0.00     0.128 C 
HETATM   25  C15 UNL     1      32.203   2.692  46.543  1.00  0.00     0.046 C 
HETATM   26  C16 UNL     1      33.321   2.352  47.507  1.00  0.00    -0.025 C 
HETATM   27  C17 UNL     1      34.241   3.311  47.739  1.00  0.00     0.022 C 
HETATM   28  C18 UNL     1      34.303   4.705  47.153  1.00  0.00     0.243 C 
BRANCH  28  29
HETATM   29  O3  UNL     1      35.189   4.669  46.083  1.00  0.00    -0.373 OA
HETATM   30  H20 UNL     1      36.071   4.298  46.326  1.00  0.00     0.212 HD
ENDBRANCH  28  29
ENDBRANCH  20  23
ENDBRANCH   1  20
TORSDOF 9
ENDMDL
