MODEL 1
REMARK VINA RESULT:      -8.3      0.000      0.000
REMARK  4 active torsions:
REMARK  status: ('A' for Active; 'I' for Inactive)
REMARK    1  A    between atoms: C2_2  and  C3_3 
REMARK    2  A    between atoms: C3_3  and  C4_4 
REMARK       I    between atoms: C4_4  and  N1_6 
REMARK    3  A    between atoms: N1_6  and  C5_7 
REMARK    4  A    between atoms: N2_9  and  C7_10 
ROOT
HETATM    1  C5  UNL     1      23.718   2.767  51.831  1.00  0.00     0.107 C 
HETATM    2  C6  UNL     1      23.385   1.341  51.384  1.00  0.00     0.148 C 
HETATM    3  N2  UNL     1      22.812   0.424  52.239  1.00  0.00    -0.378 N 
HETATM    4  C13 UNL     1      21.385  -0.207  52.364  1.00  0.00     0.135 C 
HETATM    5  C14 UNL     1      20.593   1.034  52.250  1.00  0.00     0.006 C 
HETATM    6  C15 UNL     1      20.068   0.820  50.823  1.00  0.00     0.020 C 
HETATM    7  C16 UNL     1      19.929   2.031  52.252  1.00  0.00     0.127 A 
HETATM    8  N3  UNL     1      19.192   3.281  51.935  1.00  0.00    -0.298 NA
HETATM    9  C17 UNL     1      20.081   4.274  51.658  1.00  0.00     0.091 A 
HETATM   10  C18 UNL     1      21.222   3.154  51.894  1.00  0.00     0.092 A 
HETATM   11  C19 UNL     1      22.521   3.730  51.655  1.00  0.00    -0.021 C 
HETATM   12  C20 UNL     1      23.193   5.171  51.464  1.00  0.00     0.013 C 
ENDROOT
BRANCH   1  13
HETATM   13  N1  UNL     1      24.651   3.047  50.742  1.00  0.00    -0.354 N 
HETATM   14  C4  UNL     1      26.057   3.064  50.714  1.00  0.00     0.221 C 
HETATM   15  O1  UNL     1      26.562   2.700  51.785  1.00  0.00    -0.273 OA
HETATM   16  H6  UNL     1      24.091   3.146  49.818  1.00  0.00     0.162 HD
BRANCH  14  17
HETATM   17  C3  UNL     1      26.682   3.534  49.504  1.00  0.00     0.129 C 
BRANCH  17  18
HETATM   18  C2  UNL     1      26.673   4.892  49.018  1.00  0.00    -0.028 C 
HETATM   19  C1  UNL     1      27.896   5.039  48.550  1.00  0.00     0.007 C 
ENDBRANCH  17  18
ENDBRANCH  14  17
ENDBRANCH   1  13
BRANCH   3  20
HETATM   20  C7  UNL     1      23.668  -0.077  53.244  1.00  0.00     0.031 A 
HETATM   21  C8  UNL     1      23.102  -0.752  54.280  1.00  0.00     0.029 A 
HETATM   22  C9  UNL     1      23.731  -1.314  55.470  1.00  0.00     0.004 A 
HETATM   23  C10 UNL     1      25.016  -0.977  55.324  1.00  0.00     0.019 A 
HETATM   24  C11 UNL     1      25.826  -0.313  54.460  1.00  0.00     0.013 A 
HETATM   25 BR1  UNL     1      27.644   0.128  54.604  1.00  0.00    -0.051 Br
HETATM   26  C12 UNL     1      25.064   0.160  53.307  1.00  0.00     0.048 A 
ENDBRANCH   3  20
TORSDOF 4
ENDMDL
MODEL 2
REMARK VINA RESULT:      -7.9      2.904      5.254
REMARK  4 active torsions:
REMARK  status: ('A' for Active; 'I' for Inactive)
REMARK    1  A    between atoms: C2_2  and  C3_3 
REMARK    2  A    between atoms: C3_3  and  C4_4 
REMARK       I    between atoms: C4_4  and  N1_6 
REMARK    3  A    between atoms: N1_6  and  C5_7 
REMARK    4  A    between atoms: N2_9  and  C7_10 
ROOT
HETATM    1  C5  UNL     1      24.253   0.791  52.628  1.00  0.00     0.107 C 
HETATM    2  C6  UNL     1      23.202   1.878  52.869  1.00  0.00     0.148 C 
HETATM    3  N2  UNL     1      21.983   1.871  52.222  1.00  0.00    -0.378 N 
HETATM    4  C13 UNL     1      20.515   1.566  52.667  1.00  0.00     0.135 C 
HETATM    5  C14 UNL     1      20.772   0.314  53.406  1.00  0.00     0.006 C 
HETATM    6  C15 UNL     1      20.608   0.869  54.829  1.00  0.00     0.020 C 
HETATM    7  C16 UNL     1      20.936  -0.750  53.933  1.00  0.00     0.127 A 
HETATM    8  N3  UNL     1      21.289  -1.888  54.820  1.00  0.00    -0.298 NA
HETATM    9  C17 UNL     1      22.641  -2.046  54.838  1.00  0.00     0.091 A 
HETATM   10  C18 UNL     1      22.683  -0.765  53.854  1.00  0.00     0.092 A 
HETATM   11  C19 UNL     1      24.053  -0.430  53.555  1.00  0.00    -0.021 C 
HETATM   12  C20 UNL     1      25.516  -1.065  53.699  1.00  0.00     0.013 C 
ENDROOT
BRANCH   1  13
HETATM   13  N1  UNL     1      25.377   1.553  53.166  1.00  0.00    -0.354 N 
HETATM   14  C4  UNL     1      26.611   1.905  52.592  1.00  0.00     0.221 C 
HETATM   15  O1  UNL     1      26.701   1.567  51.404  1.00  0.00    -0.273 OA
HETATM   16  H6  UNL     1      25.091   1.965  54.129  1.00  0.00     0.162 HD
BRANCH  14  17
HETATM   17  C3  UNL     1      27.576   2.540  53.453  1.00  0.00     0.129 C 
BRANCH  17  18
HETATM   18  C2  UNL     1      28.913   2.067  53.720  1.00  0.00    -0.028 C 
HETATM   19  C1  UNL     1      28.695   0.920  54.331  1.00  0.00     0.007 C 
ENDBRANCH  17  18
ENDBRANCH  14  17
ENDBRANCH   1  13
BRANCH   3  20
HETATM   20  C7  UNL     1      22.030   2.200  50.850  1.00  0.00     0.031 A 
HETATM   21  C8  UNL     1      21.750   1.217  49.952  1.00  0.00     0.029 A 
HETATM   22  C9  UNL     1      21.785   1.259  48.495  1.00  0.00     0.004 A 
HETATM   23  C10 UNL     1      22.196   2.503  48.235  1.00  0.00     0.019 A 
HETATM   24  C11 UNL     1      22.565   3.636  48.889  1.00  0.00     0.013 A 
HETATM   25 BR1  UNL     1      23.253   5.248  48.220  1.00  0.00    -0.051 Br
HETATM   26  C12 UNL     1      22.447   3.452  50.334  1.00  0.00     0.048 A 
ENDBRANCH   3  20
TORSDOF 4
ENDMDL
MODEL 3
REMARK VINA RESULT:      -7.7      3.021      6.797
REMARK  4 active torsions:
REMARK  status: ('A' for Active; 'I' for Inactive)
REMARK    1  A    between atoms: C2_2  and  C3_3 
REMARK    2  A    between atoms: C3_3  and  C4_4 
REMARK       I    between atoms: C4_4  and  N1_6 
REMARK    3  A    between atoms: N1_6  and  C5_7 
REMARK    4  A    between atoms: N2_9  and  C7_10 
ROOT
HETATM    1  C5  UNL     1      22.211   0.933  52.904  1.00  0.00     0.107 C 
HETATM    2  C6  UNL     1      23.173   0.872  51.714  1.00  0.00     0.148 C 
HETATM    3  N2  UNL     1      24.312   1.647  51.656  1.00  0.00    -0.378 N 
HETATM    4  C13 UNL     1      25.841   1.349  51.799  1.00  0.00     0.135 C 
HETATM    5  C14 UNL     1      25.783   0.515  53.016  1.00  0.00     0.006 C 
HETATM    6  C15 UNL     1      26.041  -0.847  52.354  1.00  0.00     0.020 C 
HETATM    7  C16 UNL     1      25.778  -0.088  54.052  1.00  0.00     0.127 A 
HETATM    8  N3  UNL     1      25.629  -1.072  55.154  1.00  0.00    -0.298 NA
HETATM    9  C17 UNL     1      24.308  -1.247  55.431  1.00  0.00     0.091 A 
HETATM   10  C18 UNL     1      24.041  -0.201  54.228  1.00  0.00     0.092 A 
HETATM   11  C19 UNL     1      22.622  -0.035  54.037  1.00  0.00    -0.021 C 
HETATM   12  C20 UNL     1      21.249  -0.376  54.789  1.00  0.00     0.013 C 
ENDROOT
BRANCH   1  13
HETATM   13  N1  UNL     1      21.081   0.320  52.211  1.00  0.00    -0.354 N 
HETATM   14  C4  UNL     1      19.802   0.820  51.910  1.00  0.00     0.221 C 
HETATM   15  O1  UNL     1      19.666   2.009  52.229  1.00  0.00    -0.273 OA
HETATM   16  H6  UNL     1      21.397  -0.636  51.804  1.00  0.00     0.162 HD
BRANCH  14  17
HETATM   17  C3  UNL     1      18.854  -0.104  51.342  1.00  0.00     0.129 C 
BRANCH  17  18
HETATM   18  C2  UNL     1      17.579  -0.466  51.911  1.00  0.00    -0.028 C 
HETATM   19  C1  UNL     1      17.924  -1.217  52.937  1.00  0.00     0.007 C 
ENDBRANCH  17  18
ENDBRANCH  14  17
ENDBRANCH   1  13
BRANCH   3  20
HETATM   20  C7  UNL     1      24.092   3.023  51.426  1.00  0.00     0.031 A 
HETATM   21  C8  UNL     1      23.806   3.807  52.500  1.00  0.00     0.029 A 
HETATM   22  C9  UNL     1      23.476   5.227  52.546  1.00  0.00     0.004 A 
HETATM   23  C10 UNL     1      23.487   5.584  51.259  1.00  0.00     0.019 A 
HETATM   24  C11 UNL     1      23.693   5.043  50.029  1.00  0.00     0.013 A 
HETATM   25 BR1  UNL     1      23.495   5.803  48.326  1.00  0.00    -0.051 Br
HETATM   26  C12 UNL     1      24.046   3.630  50.147  1.00  0.00     0.048 A 
ENDBRANCH   3  20
TORSDOF 4
ENDMDL
MODEL 4
REMARK VINA RESULT:      -7.3      3.329      4.756
REMARK  4 active torsions:
REMARK  status: ('A' for Active; 'I' for Inactive)
REMARK    1  A    between atoms: C2_2  and  C3_3 
REMARK    2  A    between atoms: C3_3  and  C4_4 
REMARK       I    between atoms: C4_4  and  N1_6 
REMARK    3  A    between atoms: N1_6  and  C5_7 
REMARK    4  A    between atoms: N2_9  and  C7_10 
ROOT
HETATM    1  C5  UNL     1      23.571   1.355  52.910  1.00  0.00     0.107 C 
HETATM    2  C6  UNL     1      22.837   0.875  51.656  1.00  0.00     0.148 C 
HETATM    3  N2  UNL     1      21.479   1.052  51.492  1.00  0.00    -0.378 N 
HETATM    4  C13 UNL     1      20.602   1.989  50.596  1.00  0.00     0.135 C 
HETATM    5  C14 UNL     1      21.314   3.257  50.852  1.00  0.00     0.006 C 
HETATM    6  C15 UNL     1      22.025   3.379  49.497  1.00  0.00     0.020 C 
HETATM    7  C16 UNL     1      21.814   4.314  51.112  1.00  0.00     0.127 A 
HETATM    8  N3  UNL     1      22.686   5.507  51.256  1.00  0.00    -0.298 NA
HETATM    9  C17 UNL     1      23.774   5.186  52.008  1.00  0.00     0.091 A 
HETATM   10  C18 UNL     1      23.149   3.697  52.059  1.00  0.00     0.092 A 
HETATM   11  C19 UNL     1      24.034   2.825  52.789  1.00  0.00    -0.021 C 
HETATM   12  C20 UNL     1      25.309   2.923  53.753  1.00  0.00     0.013 C 
ENDROOT
BRANCH   1  13
HETATM   13  N1  UNL     1      24.754   0.520  52.715  1.00  0.00    -0.354 N 
HETATM   14  C4  UNL     1      25.251  -0.564  53.461  1.00  0.00     0.221 C 
HETATM   15  O1  UNL     1      24.496  -0.894  54.387  1.00  0.00    -0.273 OA
HETATM   16  H6  UNL     1      25.210   0.776  51.764  1.00  0.00     0.162 HD
BRANCH  14  17
HETATM   17  C3  UNL     1      26.541  -1.082  53.084  1.00  0.00     0.129 C 
BRANCH  17  18
HETATM   18  C2  UNL     1      27.738  -0.303  52.877  1.00  0.00    -0.028 C 
HETATM   19  C1  UNL     1      28.192  -0.143  54.104  1.00  0.00     0.007 C 
ENDBRANCH  17  18
ENDBRANCH  14  17
ENDBRANCH   1  13
BRANCH   3  20
HETATM   20  C7  UNL     1      20.664   0.231  52.302  1.00  0.00     0.031 A 
HETATM   21  C8  UNL     1      21.276  -0.544  53.237  1.00  0.00     0.029 A 
HETATM   22  C9  UNL     1      20.696  -1.520  54.152  1.00  0.00     0.004 A 
HETATM   23  C10 UNL     1      19.398  -1.503  53.833  1.00  0.00     0.019 A 
HETATM   24  C11 UNL     1      18.546  -0.893  52.968  1.00  0.00     0.013 A 
HETATM   25 BR1  UNL     1      16.721  -1.194  52.656  1.00  0.00    -0.051 Br
HETATM   26  C12 UNL     1      19.264   0.077  52.144  1.00  0.00     0.048 A 
ENDBRANCH   3  20
TORSDOF 4
ENDMDL
MODEL 5
REMARK VINA RESULT:      -7.2      1.884      2.794
REMARK  4 active torsions:
REMARK  status: ('A' for Active; 'I' for Inactive)
REMARK    1  A    between atoms: C2_2  and  C3_3 
REMARK    2  A    between atoms: C3_3  and  C4_4 
REMARK       I    between atoms: C4_4  and  N1_6 
REMARK    3  A    between atoms: N1_6  and  C5_7 
REMARK    4  A    between atoms: N2_9  and  C7_10 
ROOT
HETATM    1  C5  UNL     1      24.399   4.622  50.547  1.00  0.00     0.107 C 
HETATM    2  C6  UNL     1      23.668   3.502  49.801  1.00  0.00     0.148 C 
HETATM    3  N2  UNL     1      22.701   2.730  50.410  1.00  0.00    -0.378 N 
HETATM    4  C13 UNL     1      21.143   2.646  50.297  1.00  0.00     0.135 C 
HETATM    5  C14 UNL     1      20.845   4.090  50.370  1.00  0.00     0.006 C 
HETATM    6  C15 UNL     1      20.488   4.309  48.892  1.00  0.00     0.020 C 
HETATM    7  C16 UNL     1      20.566   5.246  50.518  1.00  0.00     0.127 A 
HETATM    8  N3  UNL     1      20.352   6.711  50.400  1.00  0.00    -0.298 NA
HETATM    9  C17 UNL     1      21.556   7.346  50.396  1.00  0.00     0.091 A 
HETATM   10  C18 UNL     1      22.201   5.868  50.492  1.00  0.00     0.092 A 
HETATM   11  C19 UNL     1      23.639   5.966  50.474  1.00  0.00    -0.021 C 
HETATM   12  C20 UNL     1      24.781   7.079  50.626  1.00  0.00     0.013 C 
ENDROOT
BRANCH   1  13
HETATM   13  N1  UNL     1      25.517   4.715  49.612  1.00  0.00    -0.354 N 
HETATM   14  C4  UNL     1      26.805   4.153  49.656  1.00  0.00     0.221 C 
HETATM   15  O1  UNL     1      26.963   3.392  50.621  1.00  0.00    -0.273 OA
HETATM   16  H6  UNL     1      25.183   5.233  48.718  1.00  0.00     0.162 HD
BRANCH  14  17
HETATM   17  C3  UNL     1      27.736   4.567  48.637  1.00  0.00     0.129 C 
BRANCH  17  18
HETATM   18  C2  UNL     1      28.090   5.928  48.318  1.00  0.00    -0.028 C 
HETATM   19  C1  UNL     1      29.394   5.854  48.147  1.00  0.00     0.007 C 
ENDBRANCH  17  18
ENDBRANCH  14  17
ENDBRANCH   1  13
BRANCH   3  20
HETATM   20  C7  UNL     1      23.183   1.802  51.359  1.00  0.00     0.031 A 
HETATM   21  C8  UNL     1      22.302   1.318  52.276  1.00  0.00     0.029 A 
HETATM   22  C9  UNL     1      22.537   0.411  53.393  1.00  0.00     0.004 A 
HETATM   23  C10 UNL     1      23.852   0.184  53.331  1.00  0.00     0.019 A 
HETATM   24  C11 UNL     1      24.935   0.535  52.589  1.00  0.00     0.013 A 
HETATM   25 BR1  UNL     1      26.752   0.142  52.843  1.00  0.00    -0.051 Br
HETATM   26  C12 UNL     1      24.539   1.415  51.493  1.00  0.00     0.048 A 
ENDBRANCH   3  20
TORSDOF 4
ENDMDL
MODEL 6
REMARK VINA RESULT:      -7.0      2.828      3.984
REMARK  4 active torsions:
REMARK  status: ('A' for Active; 'I' for Inactive)
REMARK    1  A    between atoms: C2_2  and  C3_3 
REMARK    2  A    between atoms: C3_3  and  C4_4 
REMARK       I    between atoms: C4_4  and  N1_6 
REMARK    3  A    between atoms: N1_6  and  C5_7 
REMARK    4  A    between atoms: N2_9  and  C7_10 
ROOT
HETATM    1  C5  UNL     1      23.141   3.034  51.574  1.00  0.00     0.107 C 
HETATM    2  C6  UNL     1      23.173   1.777  50.701  1.00  0.00     0.148 C 
HETATM    3  N2  UNL     1      22.018   1.164  50.261  1.00  0.00    -0.378 N 
HETATM    4  C13 UNL     1      21.300   1.061  48.875  1.00  0.00     0.135 C 
HETATM    5  C14 UNL     1      21.368   2.485  48.492  1.00  0.00     0.006 C 
HETATM    6  C15 UNL     1      22.465   2.366  47.423  1.00  0.00     0.020 C 
HETATM    7  C16 UNL     1      21.327   3.645  48.196  1.00  0.00     0.127 A 
HETATM    8  N3  UNL     1      21.602   5.047  47.787  1.00  0.00    -0.298 NA
HETATM    9  C17 UNL     1      22.345   5.662  48.747  1.00  0.00     0.091 A 
HETATM   10  C18 UNL     1      22.306   4.241  49.517  1.00  0.00     0.092 A 
HETATM   11  C19 UNL     1      23.075   4.329  50.733  1.00  0.00    -0.021 C 
HETATM   12  C20 UNL     1      23.750   5.444  51.664  1.00  0.00     0.013 C 
ENDROOT
BRANCH   1  13
HETATM   13  N1  UNL     1      24.513   2.911  52.058  1.00  0.00    -0.354 N 
HETATM   14  C4  UNL     1      25.053   2.165  53.121  1.00  0.00     0.221 C 
HETATM   15  O1  UNL     1      24.214   1.439  53.671  1.00  0.00    -0.273 OA
HETATM   16  H6  UNL     1      25.175   3.427  51.369  1.00  0.00     0.162 HD
BRANCH  14  17
HETATM   17  C3  UNL     1      26.442   2.383  53.435  1.00  0.00     0.129 C 
BRANCH  17  18
HETATM   18  C2  UNL     1      27.561   2.086  52.575  1.00  0.00    -0.028 C 
HETATM   19  C1  UNL     1      28.452   1.605  53.419  1.00  0.00     0.007 C 
ENDBRANCH  17  18
ENDBRANCH  14  17
ENDBRANCH   1  13
BRANCH   3  20
HETATM   20  C7  UNL     1      21.289   0.473  51.253  1.00  0.00     0.031 A 
HETATM   21  C8  UNL     1      19.932   0.559  51.217  1.00  0.00     0.029 A 
HETATM   22  C9  UNL     1      18.947   0.007  52.140  1.00  0.00     0.004 A 
HETATM   23  C10 UNL     1      19.700  -0.588  53.070  1.00  0.00     0.019 A 
HETATM   24  C11 UNL     1      21.008  -0.798  53.373  1.00  0.00     0.013 A 
HETATM   25 BR1  UNL     1      21.786  -1.590  54.886  1.00  0.00    -0.051 Br
HETATM   26  C12 UNL     1      21.869  -0.220  52.344  1.00  0.00     0.048 A 
ENDBRANCH   3  20
TORSDOF 4
ENDMDL
MODEL 7
REMARK VINA RESULT:      -6.9      2.492      5.331
REMARK  4 active torsions:
REMARK  status: ('A' for Active; 'I' for Inactive)
REMARK    1  A    between atoms: C2_2  and  C3_3 
REMARK    2  A    between atoms: C3_3  and  C4_4 
REMARK       I    between atoms: C4_4  and  N1_6 
REMARK    3  A    between atoms: N1_6  and  C5_7 
REMARK    4  A    between atoms: N2_9  and  C7_10 
ROOT
HETATM    1  C5  UNL     1      22.688   1.196  51.206  1.00  0.00     0.107 C 
HETATM    2  C6  UNL     1      23.326   2.327  52.017  1.00  0.00     0.148 C 
HETATM    3  N2  UNL     1      24.615   2.757  51.781  1.00  0.00    -0.378 N 
HETATM    4  C13 UNL     1      25.234   4.039  51.132  1.00  0.00     0.135 C 
HETATM    5  C14 UNL     1      24.386   4.098  49.925  1.00  0.00     0.006 C 
HETATM    6  C15 UNL     1      23.504   5.284  50.342  1.00  0.00     0.020 C 
HETATM    7  C16 UNL     1      23.776   4.119  48.894  1.00  0.00     0.127 A 
HETATM    8  N3  UNL     1      22.767   4.232  47.810  1.00  0.00    -0.298 NA
HETATM    9  C17 UNL     1      21.835   3.250  47.953  1.00  0.00     0.091 A 
HETATM   10  C18 UNL     1      22.667   2.819  49.270  1.00  0.00     0.092 A 
HETATM   11  C19 UNL     1      22.010   1.712  49.916  1.00  0.00    -0.021 C 
HETATM   12  C20 UNL     1      20.860   0.638  49.612  1.00  0.00     0.013 C 
ENDROOT
BRANCH   1  13
HETATM   13  N1  UNL     1      21.621   0.913  52.163  1.00  0.00    -0.354 N 
HETATM   14  C4  UNL     1      21.388  -0.207  52.981  1.00  0.00     0.221 C 
HETATM   15  O1  UNL     1      22.299  -1.045  52.916  1.00  0.00    -0.273 OA
HETATM   16  H6  UNL     1      21.010   1.802  52.278  1.00  0.00     0.162 HD
BRANCH  14  17
HETATM   17  C3  UNL     1      20.146  -0.240  53.709  1.00  0.00     0.129 C 
BRANCH  17  18
HETATM   18  C2  UNL     1      18.996  -1.048  53.386  1.00  0.00    -0.028 C 
HETATM   19  C1  UNL     1      18.465  -0.399  52.369  1.00  0.00     0.007 C 
ENDBRANCH  17  18
ENDBRANCH  14  17
ENDBRANCH   1  13
BRANCH   3  20
HETATM   20  C7  UNL     1      25.630   1.868  52.196  1.00  0.00     0.031 A 
HETATM   21  C8  UNL     1      25.376   0.534  52.116  1.00  0.00     0.029 A 
HETATM   22  C9  UNL     1      26.207  -0.591  52.528  1.00  0.00     0.004 A 
HETATM   23  C10 UNL     1      27.286   0.000  53.046  1.00  0.00     0.019 A 
HETATM   24  C11 UNL     1      27.780   1.245  53.282  1.00  0.00     0.013 A 
HETATM   25 BR1  UNL     1      29.334   1.776  54.189  1.00  0.00    -0.051 Br
HETATM   26  C12 UNL     1      26.856   2.262  52.785  1.00  0.00     0.048 A 
ENDBRANCH   3  20
TORSDOF 4
ENDMDL
MODEL 8
REMARK VINA RESULT:      -6.8      7.028     12.713
REMARK  4 active torsions:
REMARK  status: ('A' for Active; 'I' for Inactive)
REMARK    1  A    between atoms: C2_2  and  C3_3 
REMARK    2  A    between atoms: C3_3  and  C4_4 
REMARK       I    between atoms: C4_4  and  N1_6 
REMARK    3  A    between atoms: N1_6  and  C5_7 
REMARK    4  A    between atoms: N2_9  and  C7_10 
ROOT
HETATM    1  C5  UNL     1      30.851   7.917  48.719  1.00  0.00     0.107 C 
HETATM    2  C6  UNL     1      30.757   8.570  47.337  1.00  0.00     0.148 C 
HETATM    3  N2  UNL     1      31.191   9.859  47.109  1.00  0.00    -0.378 N 
HETATM    4  C13 UNL     1      32.420  10.479  46.364  1.00  0.00     0.135 C 
HETATM    5  C14 UNL     1      33.474   9.619  46.938  1.00  0.00     0.006 C 
HETATM    6  C15 UNL     1      33.736   8.749  45.700  1.00  0.00     0.020 C 
HETATM    7  C16 UNL     1      34.359   8.998  47.454  1.00  0.00     0.127 A 
HETATM    8  N3  UNL     1      35.335   7.978  47.916  1.00  0.00    -0.298 NA
HETATM    9  C17 UNL     1      34.693   7.042  48.667  1.00  0.00     0.091 A 
HETATM   10  C18 UNL     1      33.351   7.885  48.352  1.00  0.00     0.092 A 
HETATM   11  C19 UNL     1      32.216   7.228  48.948  1.00  0.00    -0.021 C 
HETATM   12  C20 UNL     1      31.905   6.069  50.009  1.00  0.00     0.013 C 
ENDROOT
BRANCH   1  13
HETATM   13  N1  UNL     1      29.882   6.858  48.447  1.00  0.00    -0.354 N 
HETATM   14  C4  UNL     1      28.483   6.829  48.590  1.00  0.00     0.221 C 
HETATM   15  O1  UNL     1      28.014   7.923  48.932  1.00  0.00    -0.273 OA
HETATM   16  H6  UNL     1      30.392   6.033  47.960  1.00  0.00     0.162 HD
BRANCH  14  17
HETATM   17  C3  UNL     1      27.829   5.563  48.376  1.00  0.00     0.129 C 
BRANCH  17  18
HETATM   18  C2  UNL     1      26.562   5.160  48.934  1.00  0.00    -0.028 C 
HETATM   19  C1  UNL     1      26.809   3.936  49.355  1.00  0.00     0.007 C 
ENDBRANCH  17  18
ENDBRANCH  14  17
ENDBRANCH   1  13
BRANCH   3  20
HETATM   20  C7  UNL     1      30.378  10.873  47.659  1.00  0.00     0.031 A 
HETATM   21  C8  UNL     1      30.955  11.748  48.526  1.00  0.00     0.029 A 
HETATM   22  C9  UNL     1      30.347  12.838  49.281  1.00  0.00     0.004 A 
HETATM   23  C10 UNL     1      29.057  12.759  48.945  1.00  0.00     0.019 A 
HETATM   24  C11 UNL     1      28.226  12.011  48.173  1.00  0.00     0.013 A 
HETATM   25 BR1  UNL     1      26.357  12.063  48.007  1.00  0.00    -0.051 Br
HETATM   26  C12 UNL     1      28.980  10.987  47.455  1.00  0.00     0.048 A 
ENDBRANCH   3  20
TORSDOF 4
ENDMDL
MODEL 9
REMARK VINA RESULT:      -6.8      2.572      5.495
REMARK  4 active torsions:
REMARK  status: ('A' for Active; 'I' for Inactive)
REMARK    1  A    between atoms: C2_2  and  C3_3 
REMARK    2  A    between atoms: C3_3  and  C4_4 
REMARK       I    between atoms: C4_4  and  N1_6 
REMARK    3  A    between atoms: N1_6  and  C5_7 
REMARK    4  A    between atoms: N2_9  and  C7_10 
ROOT
HETATM    1  C5  UNL     1      21.536   2.033  50.137  1.00  0.00     0.107 C 
HETATM    2  C6  UNL     1      21.728   2.665  51.518  1.00  0.00     0.148 C 
HETATM    3  N2  UNL     1      22.960   2.704  52.138  1.00  0.00    -0.378 N 
HETATM    4  C13 UNL     1      23.997   3.839  52.429  1.00  0.00     0.135 C 
HETATM    5  C14 UNL     1      24.015   4.461  51.090  1.00  0.00     0.006 C 
HETATM    6  C15 UNL     1      23.215   5.726  51.432  1.00  0.00     0.020 C 
HETATM    7  C16 UNL     1      24.119   4.929  49.992  1.00  0.00     0.127 A 
HETATM    8  N3  UNL     1      23.943   5.621  48.690  1.00  0.00    -0.298 NA
HETATM    9  C17 UNL     1      22.983   4.986  47.964  1.00  0.00     0.091 A 
HETATM   10  C18 UNL     1      22.841   4.002  49.238  1.00  0.00     0.092 A 
HETATM   11  C19 UNL     1      21.797   3.040  48.993  1.00  0.00    -0.021 C 
HETATM   12  C20 UNL     1      20.907   2.500  47.776  1.00  0.00     0.013 C 
ENDROOT
BRANCH   1  13
HETATM   13  N1  UNL     1      20.087   1.880  50.246  1.00  0.00    -0.354 N 
HETATM   14  C4  UNL     1      19.306   0.825  50.750  1.00  0.00     0.221 C 
HETATM   15  O1  UNL     1      19.990  -0.080  51.250  1.00  0.00    -0.273 OA
HETATM   16  H6  UNL     1      19.615   2.818  49.969  1.00  0.00     0.162 HD
BRANCH  14  17
HETATM   17  C3  UNL     1      17.880   0.923  50.572  1.00  0.00     0.129 C 
BRANCH  17  18
HETATM   18  C2  UNL     1      17.033  -0.072  49.960  1.00  0.00    -0.028 C 
HETATM   19  C1  UNL     1      16.451  -0.633  51.001  1.00  0.00     0.007 C 
ENDBRANCH  17  18
ENDBRANCH  14  17
ENDBRANCH   1  13
BRANCH   3  20
HETATM   20  C7  UNL     1      23.427   1.464  52.624  1.00  0.00     0.031 A 
HETATM   21  C8  UNL     1      22.593   0.739  53.417  1.00  0.00     0.029 A 
HETATM   22  C9  UNL     1      22.835  -0.527  54.099  1.00  0.00     0.004 A 
HETATM   23  C10 UNL     1      24.105  -0.803  53.788  1.00  0.00     0.019 A 
HETATM   24  C11 UNL     1      25.142  -0.279  53.084  1.00  0.00     0.013 A 
HETATM   25 BR1  UNL     1      26.921  -0.859  52.941  1.00  0.00    -0.051 Br
HETATM   26  C12 UNL     1      24.739   0.964  52.432  1.00  0.00     0.048 A 
ENDBRANCH   3  20
TORSDOF 4
ENDMDL
