MODEL 1
REMARK VINA RESULT:      -8.1      0.000      0.000
REMARK  6 active torsions:
REMARK  status: ('A' for Active; 'I' for Inactive)
REMARK       I    between atoms: C2_2  and  N1_4 
REMARK    1  A    between atoms: N2_7  and  C5_8 
REMARK    2  A    between atoms: C7_10  and  N3_11 
REMARK    3  A    between atoms: C9_13  and  C10_14 
REMARK    4  A    between atoms: C10_14  and  C11_15 
REMARK    5  A    between atoms: C13_19  and  C14_20 
REMARK    6  A    between atoms: C14_20  and  N4_21 
ROOT
HETATM    1  N3  UNL     1      25.467   1.775  51.797  1.00  0.00    -0.336 N 
HETATM    2  C8  UNL     1      26.579   1.418  52.432  1.00  0.00     0.101 A 
HETATM    3  C9  UNL     1      26.373   0.459  53.445  1.00  0.00    -0.017 A 
HETATM    4  C12 UNL     1      25.010   0.287  53.343  1.00  0.00     0.045 A 
HETATM    5  C13 UNL     1      24.210  -0.554  54.069  1.00  0.00     0.078 A 
HETATM    6  N5  UNL     1      22.871  -0.597  53.793  1.00  0.00    -0.244 NA
HETATM    7  C15 UNL     1      22.311   0.160  52.834  1.00  0.00     0.235 A 
HETATM    8  N6  UNL     1      23.107   0.983  52.130  1.00  0.00    -0.223 NA
HETATM    9  C16 UNL     1      24.451   1.067  52.359  1.00  0.00     0.144 A 
ENDROOT
BRANCH   1  10
HETATM   10  C7  UNL     1      25.188   2.680  50.739  1.00  0.00     0.095 C 
HETATM   11  C6  UNL     1      26.393   3.473  50.205  1.00  0.00     0.061 C 
HETATM   12  C5  UNL     1      25.333   4.527  49.856  1.00  0.00     0.227 C 
HETATM   13  C17 UNL     1      24.628   4.040  51.104  1.00  0.00     0.061 C 
BRANCH  12  14
HETATM   14  N2  UNL     1      25.778   5.878  49.810  1.00  0.00     0.096 N 
HETATM   15  C4  UNL     1      25.960   6.205  48.381  1.00  0.00     0.292 C 
HETATM   16  C3  UNL     1      26.993   7.328  48.398  1.00  0.00     0.156 C 
HETATM   17  N1  UNL     1      26.682   8.263  49.471  1.00  0.00    -0.349 N 
HETATM   18  C2  UNL     1      27.665   9.190  49.927  1.00  0.00     0.215 C 
HETATM   19  C19 UNL     1      25.369   8.222  50.042  1.00  0.00     0.156 C 
HETATM   20  C1  UNL     1      29.016   9.212  49.308  1.00  0.00     0.117 C 
HETATM   21  O1  UNL     1      27.545  10.044  50.834  1.00  0.00    -0.274 OA
HETATM   22  C18 UNL     1      24.825   6.842  50.292  1.00  0.00     0.292 C 
ENDBRANCH  12  14
ENDBRANCH   1  10
BRANCH   3  23
HETATM   23  C10 UNL     1      27.424  -0.124  54.303  1.00  0.00     0.157 C 
BRANCH  23  24
HETATM   24  C11 UNL     1      28.635   0.664  54.500  1.00  0.00     0.302 C 
HETATM   25  O2  UNL     1      29.130   1.672  54.956  1.00  0.00    -0.260 OA
HETATM   26  F1  UNL     1      29.782   0.156  54.001  1.00  0.00    -0.164 F 
ENDBRANCH  23  24
ENDBRANCH   3  23
BRANCH   5  27
HETATM   27  C14 UNL     1      24.610  -1.408  55.185  1.00  0.00     0.326 C 
BRANCH  27  28
HETATM   28  N4  UNL     1      23.413  -1.723  55.952  1.00  0.00     0.084 N 
HETATM   29  H17 UNL     1      22.583  -1.260  55.521  1.00  0.00     0.313 HD
HETATM   30  H18 UNL     1      23.195  -2.760  55.860  1.00  0.00     0.313 HD
ENDBRANCH  27  28
ENDBRANCH   5  27
TORSDOF 6
ENDMDL
MODEL 2
REMARK VINA RESULT:      -7.9      1.607      2.322
REMARK  6 active torsions:
REMARK  status: ('A' for Active; 'I' for Inactive)
REMARK       I    between atoms: C2_2  and  N1_4 
REMARK    1  A    between atoms: N2_7  and  C5_8 
REMARK    2  A    between atoms: C7_10  and  N3_11 
REMARK    3  A    between atoms: C9_13  and  C10_14 
REMARK    4  A    between atoms: C10_14  and  C11_15 
REMARK    5  A    between atoms: C13_19  and  C14_20 
REMARK    6  A    between atoms: C14_20  and  N4_21 
ROOT
HETATM    1  N3  UNL     1      25.828   3.262  50.413  1.00  0.00    -0.336 N 
HETATM    2  C8  UNL     1      26.804   2.692  51.111  1.00  0.00     0.101 A 
HETATM    3  C9  UNL     1      26.364   1.668  51.976  1.00  0.00    -0.017 A 
HETATM    4  C12 UNL     1      25.012   1.694  51.712  1.00  0.00     0.045 A 
HETATM    5  C13 UNL     1      24.034   0.897  52.245  1.00  0.00     0.078 A 
HETATM    6  N5  UNL     1      22.742   1.065  51.830  1.00  0.00    -0.244 NA
HETATM    7  C15 UNL     1      22.396   1.989  50.916  1.00  0.00     0.235 A 
HETATM    8  N6  UNL     1      23.365   2.766  50.403  1.00  0.00    -0.223 NA
HETATM    9  C16 UNL     1      24.673   2.642  50.777  1.00  0.00     0.144 A 
ENDROOT
BRANCH   1  10
HETATM   10  C7  UNL     1      25.788   4.304  49.448  1.00  0.00     0.095 C 
HETATM   11  C6  UNL     1      27.149   4.719  48.863  1.00  0.00     0.061 C 
HETATM   12  C5  UNL     1      26.466   6.083  48.683  1.00  0.00     0.227 C 
HETATM   13  C17 UNL     1      25.724   5.730  49.955  1.00  0.00     0.061 C 
BRANCH  12  14
HETATM   14  N2  UNL     1      27.321   7.222  48.688  1.00  0.00     0.096 N 
HETATM   15  C4  UNL     1      27.183   7.848  47.358  1.00  0.00     0.292 C 
HETATM   16  C3  UNL     1      28.500   8.596  47.176  1.00  0.00     0.156 C 
HETATM   17  N1  UNL     1      28.860   9.265  48.418  1.00  0.00    -0.349 N 
HETATM   18  C2  UNL     1      30.191   9.731  48.627  1.00  0.00     0.215 C 
HETATM   19  C19 UNL     1      27.840   9.441  49.409  1.00  0.00     0.156 C 
HETATM   20  C1  UNL     1      31.224   9.540  47.576  1.00  0.00     0.117 C 
HETATM   21  O1  UNL     1      30.644  10.316  49.637  1.00  0.00    -0.274 OA
HETATM   22  C18 UNL     1      26.947   8.249  49.622  1.00  0.00     0.292 C 
ENDBRANCH  12  14
ENDBRANCH   1  10
BRANCH   3  23
HETATM   23  C10 UNL     1      27.226   0.860  52.861  1.00  0.00     0.157 C 
BRANCH  23  24
HETATM   24  C11 UNL     1      28.231   1.572  53.640  1.00  0.00     0.302 C 
HETATM   25  O2  UNL     1      28.575   2.621  54.142  1.00  0.00    -0.260 OA
HETATM   26  F1  UNL     1      29.306   0.862  54.046  1.00  0.00    -0.164 F 
ENDBRANCH  23  24
ENDBRANCH   3  23
BRANCH   5  27
HETATM   27  C14 UNL     1      24.191  -0.117  53.286  1.00  0.00     0.326 C 
BRANCH  27  28
HETATM   28  N4  UNL     1      22.910  -0.789  53.446  1.00  0.00     0.084 N 
HETATM   29  H17 UNL     1      22.219  -0.403  52.765  1.00  0.00     0.313 HD
HETATM   30  H18 UNL     1      23.003  -1.808  53.154  1.00  0.00     0.313 HD
ENDBRANCH  27  28
ENDBRANCH   5  27
TORSDOF 6
ENDMDL
MODEL 3
REMARK VINA RESULT:      -7.8      1.853      2.219
REMARK  6 active torsions:
REMARK  status: ('A' for Active; 'I' for Inactive)
REMARK       I    between atoms: C2_2  and  N1_4 
REMARK    1  A    between atoms: N2_7  and  C5_8 
REMARK    2  A    between atoms: C7_10  and  N3_11 
REMARK    3  A    between atoms: C9_13  and  C10_14 
REMARK    4  A    between atoms: C10_14  and  C11_15 
REMARK    5  A    between atoms: C13_19  and  C14_20 
REMARK    6  A    between atoms: C14_20  and  N4_21 
ROOT
HETATM    1  N3  UNL     1      23.638   2.468  51.356  1.00  0.00    -0.336 N 
HETATM    2  C8  UNL     1      24.634   1.658  51.701  1.00  0.00     0.101 A 
HETATM    3  C9  UNL     1      24.266   0.672  52.640  1.00  0.00    -0.017 A 
HETATM    4  C12 UNL     1      22.936   0.990  52.816  1.00  0.00     0.045 A 
HETATM    5  C13 UNL     1      22.018   0.360  53.614  1.00  0.00     0.078 A 
HETATM    6  N5  UNL     1      20.729   0.818  53.629  1.00  0.00    -0.244 NA
HETATM    7  C15 UNL     1      20.331   1.866  52.888  1.00  0.00     0.235 A 
HETATM    8  N6  UNL     1      21.242   2.476  52.110  1.00  0.00    -0.223 NA
HETATM    9  C16 UNL     1      22.543   2.063  52.052  1.00  0.00     0.144 A 
ENDROOT
BRANCH   1  10
HETATM   10  C7  UNL     1      23.535   3.576  50.472  1.00  0.00     0.095 C 
HETATM   11  C6  UNL     1      24.720   3.774  49.512  1.00  0.00     0.061 C 
HETATM   12  C5  UNL     1      24.310   5.252  49.578  1.00  0.00     0.227 C 
HETATM   13  C17 UNL     1      23.915   4.941  51.006  1.00  0.00     0.061 C 
BRANCH  12  14
HETATM   14  N2  UNL     1      25.343   6.205  49.351  1.00  0.00     0.096 N 
HETATM   15  C4  UNL     1      24.939   6.978  48.160  1.00  0.00     0.292 C 
HETATM   16  C3  UNL     1      26.262   7.481  47.592  1.00  0.00     0.156 C 
HETATM   17  N1  UNL     1      27.118   7.941  48.677  1.00  0.00    -0.349 N 
HETATM   18  C2  UNL     1      28.515   8.126  48.465  1.00  0.00     0.215 C 
HETATM   19  C19 UNL     1      26.512   8.202  49.949  1.00  0.00     0.156 C 
HETATM   20  C1  UNL     1      29.111   7.854  47.131  1.00  0.00     0.117 C 
HETATM   21  O1  UNL     1      29.369   8.511  49.296  1.00  0.00    -0.274 OA
HETATM   22  C18 UNL     1      25.499   7.183  50.394  1.00  0.00     0.292 C 
ENDBRANCH  12  14
ENDBRANCH   1  10
BRANCH   3  23
HETATM   23  C10 UNL     1      25.160  -0.364  53.194  1.00  0.00     0.157 C 
BRANCH  23  24
HETATM   24  C11 UNL     1      25.889  -0.030  54.412  1.00  0.00     0.302 C 
HETATM   25  O2  UNL     1      26.382  -0.430  55.445  1.00  0.00    -0.260 OA
HETATM   26  F1  UNL     1      26.223   1.267  54.588  1.00  0.00    -0.164 F 
ENDBRANCH  23  24
ENDBRANCH   3  23
BRANCH   5  27
HETATM   27  C14 UNL     1      22.261  -0.750  54.533  1.00  0.00     0.326 C 
BRANCH  27  28
HETATM   28  N4  UNL     1      21.017  -1.495  54.665  1.00  0.00     0.084 N 
HETATM   29  H17 UNL     1      21.087  -2.398  54.145  1.00  0.00     0.313 HD
HETATM   30  H18 UNL     1      20.891  -1.800  55.676  1.00  0.00     0.313 HD
ENDBRANCH  27  28
ENDBRANCH   5  27
TORSDOF 6
ENDMDL
MODEL 4
REMARK VINA RESULT:      -7.5      2.747      3.502
REMARK  6 active torsions:
REMARK  status: ('A' for Active; 'I' for Inactive)
REMARK       I    between atoms: C2_2  and  N1_4 
REMARK    1  A    between atoms: N2_7  and  C5_8 
REMARK    2  A    between atoms: C7_10  and  N3_11 
REMARK    3  A    between atoms: C9_13  and  C10_14 
REMARK    4  A    between atoms: C10_14  and  C11_15 
REMARK    5  A    between atoms: C13_19  and  C14_20 
REMARK    6  A    between atoms: C14_20  and  N4_21 
ROOT
HETATM    1  N3  UNL     1      23.251   2.304  51.709  1.00  0.00    -0.336 N 
HETATM    2  C8  UNL     1      22.508   1.288  52.133  1.00  0.00     0.101 A 
HETATM    3  C9  UNL     1      23.256   0.228  52.688  1.00  0.00    -0.017 A 
HETATM    4  C12 UNL     1      24.531   0.730  52.544  1.00  0.00     0.045 A 
HETATM    5  C13 UNL     1      25.712   0.152  52.926  1.00  0.00     0.078 A 
HETATM    6  N5  UNL     1      26.881   0.832  52.716  1.00  0.00    -0.244 NA
HETATM    7  C15 UNL     1      26.911   2.049  52.146  1.00  0.00     0.235 A 
HETATM    8  N6  UNL     1      25.745   2.604  51.774  1.00  0.00    -0.223 NA
HETATM    9  C16 UNL     1      24.547   1.975  51.960  1.00  0.00     0.144 A 
ENDROOT
BRANCH   1  10
HETATM   10  C7  UNL     1      22.953   3.552  51.097  1.00  0.00     0.095 C 
HETATM   11  C6  UNL     1      23.796   3.903  49.859  1.00  0.00     0.061 C 
HETATM   12  C5  UNL     1      23.524   5.351  50.293  1.00  0.00     0.227 C 
HETATM   13  C17 UNL     1      23.569   4.797  51.701  1.00  0.00     0.061 C 
BRANCH  12  14
HETATM   14  N2  UNL     1      24.498   6.317  49.912  1.00  0.00     0.096 N 
HETATM   15  C4  UNL     1      24.201   6.672  48.509  1.00  0.00     0.292 C 
HETATM   16  C3  UNL     1      25.545   7.149  47.967  1.00  0.00     0.156 C 
HETATM   17  N1  UNL     1      26.201   7.993  48.957  1.00  0.00    -0.349 N 
HETATM   18  C2  UNL     1      27.594   8.275  48.855  1.00  0.00     0.215 C 
HETATM   19  C19 UNL     1      25.405   8.526  50.022  1.00  0.00     0.156 C 
HETATM   20  C1  UNL     1      28.391   7.712  47.733  1.00  0.00     0.117 C 
HETATM   21  O1  UNL     1      28.289   8.976  49.625  1.00  0.00    -0.274 OA
HETATM   22  C18 UNL     1      24.426   7.560  50.632  1.00  0.00     0.292 C 
ENDBRANCH  12  14
ENDBRANCH   1  10
BRANCH   3  23
HETATM   23  C10 UNL     1      22.697  -1.020  53.244  1.00  0.00     0.157 C 
BRANCH  23  24
HETATM   24  C11 UNL     1      22.479  -1.065  54.686  1.00  0.00     0.302 C 
HETATM   25  O2  UNL     1      22.741  -1.607  55.738  1.00  0.00    -0.260 OA
HETATM   26  F1  UNL     1      21.632  -0.150  55.204  1.00  0.00    -0.164 F 
ENDBRANCH  23  24
ENDBRANCH   3  23
BRANCH   5  27
HETATM   27  C14 UNL     1      25.898  -1.177  53.502  1.00  0.00     0.326 C 
BRANCH  27  28
HETATM   28  N4  UNL     1      27.206  -1.662  53.083  1.00  0.00     0.084 N 
HETATM   29  H17 UNL     1      27.949  -1.249  53.688  1.00  0.00     0.313 HD
HETATM   30  H18 UNL     1      27.278  -2.705  53.278  1.00  0.00     0.313 HD
ENDBRANCH  27  28
ENDBRANCH   5  27
TORSDOF 6
ENDMDL
MODEL 5
REMARK VINA RESULT:      -7.4      4.548      6.898
REMARK  6 active torsions:
REMARK  status: ('A' for Active; 'I' for Inactive)
REMARK       I    between atoms: C2_2  and  N1_4 
REMARK    1  A    between atoms: N2_7  and  C5_8 
REMARK    2  A    between atoms: C7_10  and  N3_11 
REMARK    3  A    between atoms: C9_13  and  C10_14 
REMARK    4  A    between atoms: C10_14  and  C11_15 
REMARK    5  A    between atoms: C13_19  and  C14_20 
REMARK    6  A    between atoms: C14_20  and  N4_21 
ROOT
HETATM    1  N3  UNL     1      23.200   0.567  52.436  1.00  0.00    -0.336 N 
HETATM    2  C8  UNL     1      24.097   1.244  51.726  1.00  0.00     0.101 A 
HETATM    3  C9  UNL     1      25.405   1.178  52.249  1.00  0.00    -0.017 A 
HETATM    4  C12 UNL     1      25.184   0.385  53.354  1.00  0.00     0.045 A 
HETATM    5  C13 UNL     1      26.100  -0.057  54.271  1.00  0.00     0.078 A 
HETATM    6  N5  UNL     1      25.680  -0.866  55.291  1.00  0.00    -0.244 NA
HETATM    7  C15 UNL     1      24.397  -1.242  55.427  1.00  0.00     0.235 A 
HETATM    8  N6  UNL     1      23.507  -0.799  54.521  1.00  0.00    -0.223 NA
HETATM    9  C16 UNL     1      23.868   0.008  53.480  1.00  0.00     0.144 A 
ENDROOT
BRANCH   1  10
HETATM   10  C7  UNL     1      21.803   0.350  52.303  1.00  0.00     0.095 C 
HETATM   11  C6  UNL     1      21.239   0.496  50.879  1.00  0.00     0.061 C 
HETATM   12  C5  UNL     1      19.948   0.892  51.611  1.00  0.00     0.227 C 
HETATM   13  C17 UNL     1      20.876   1.500  52.641  1.00  0.00     0.061 C 
BRANCH  12  14
HETATM   14  N2  UNL     1      19.061   1.752  50.904  1.00  0.00     0.096 N 
HETATM   15  C4  UNL     1      17.853   0.953  50.616  1.00  0.00     0.292 C 
HETATM   16  C3  UNL     1      17.262   1.627  49.381  1.00  0.00     0.156 C 
HETATM   17  N1  UNL     1      17.332   3.074  49.532  1.00  0.00    -0.349 N 
HETATM   18  C2  UNL     1      17.179   3.925  48.399  1.00  0.00     0.215 C 
HETATM   19  C19 UNL     1      17.552   3.605  50.844  1.00  0.00     0.156 C 
HETATM   20  C1  UNL     1      16.944   3.343  47.053  1.00  0.00     0.117 C 
HETATM   21  O1  UNL     1      17.217   5.176  48.375  1.00  0.00    -0.274 OA
HETATM   22  C18 UNL     1      18.588   2.880  51.660  1.00  0.00     0.292 C 
ENDBRANCH  12  14
ENDBRANCH   1  10
BRANCH   3  23
HETATM   23  C10 UNL     1      26.598   1.823  51.666  1.00  0.00     0.157 C 
BRANCH  23  24
HETATM   24  C11 UNL     1      26.370   2.889  50.697  1.00  0.00     0.302 C 
HETATM   25  O2  UNL     1      25.950   4.009  50.496  1.00  0.00    -0.260 OA
HETATM   26  F1  UNL     1      26.752   2.650  49.425  1.00  0.00    -0.164 F 
ENDBRANCH  23  24
ENDBRANCH   3  23
BRANCH   5  27
HETATM   27  C14 UNL     1      27.520   0.283  54.334  1.00  0.00     0.326 C 
BRANCH  27  28
HETATM   28  N4  UNL     1      28.276  -0.899  53.944  1.00  0.00     0.084 N 
HETATM   29  H17 UNL     1      28.283  -1.590  54.727  1.00  0.00     0.313 HD
HETATM   30  H18 UNL     1      27.761  -1.409  53.166  1.00  0.00     0.313 HD
ENDBRANCH  27  28
ENDBRANCH   5  27
TORSDOF 6
ENDMDL
MODEL 6
REMARK VINA RESULT:      -7.3      3.890      6.892
REMARK  6 active torsions:
REMARK  status: ('A' for Active; 'I' for Inactive)
REMARK       I    between atoms: C2_2  and  N1_4 
REMARK    1  A    between atoms: N2_7  and  C5_8 
REMARK    2  A    between atoms: C7_10  and  N3_11 
REMARK    3  A    between atoms: C9_13  and  C10_14 
REMARK    4  A    between atoms: C10_14  and  C11_15 
REMARK    5  A    between atoms: C13_19  and  C14_20 
REMARK    6  A    between atoms: C14_20  and  N4_21 
ROOT
HETATM    1  N3  UNL     1      27.272   6.605  48.615  1.00  0.00    -0.336 N 
HETATM    2  C8  UNL     1      27.298   5.278  48.670  1.00  0.00     0.101 A 
HETATM    3  C9  UNL     1      26.269   4.719  49.456  1.00  0.00    -0.017 A 
HETATM    4  C12 UNL     1      25.627   5.868  49.865  1.00  0.00     0.045 A 
HETATM    5  C13 UNL     1      24.512   5.975  50.653  1.00  0.00     0.078 A 
HETATM    6  N5  UNL     1      24.010   7.217  50.925  1.00  0.00    -0.244 NA
HETATM    7  C15 UNL     1      24.573   8.340  50.448  1.00  0.00     0.235 A 
HETATM    8  N6  UNL     1      25.669   8.222  49.678  1.00  0.00    -0.223 NA
HETATM    9  C16 UNL     1      26.214   7.008  49.369  1.00  0.00     0.144 A 
ENDROOT
BRANCH   1  10
HETATM   10  C7  UNL     1      28.081   7.578  47.970  1.00  0.00     0.095 C 
HETATM   11  C6  UNL     1      29.216   7.023  47.093  1.00  0.00     0.061 C 
HETATM   12  C5  UNL     1      29.910   8.347  47.446  1.00  0.00     0.227 C 
HETATM   13  C17 UNL     1      29.196   8.214  48.774  1.00  0.00     0.061 C 
BRANCH  12  14
HETATM   14  N2  UNL     1      31.333   8.337  47.435  1.00  0.00     0.096 N 
HETATM   15  C4  UNL     1      31.731   7.285  46.478  1.00  0.00     0.292 C 
HETATM   16  C3  UNL     1      33.120   6.872  46.956  1.00  0.00     0.156 C 
HETATM   17  N1  UNL     1      33.888   8.057  47.314  1.00  0.00    -0.349 N 
HETATM   18  C2  UNL     1      35.065   7.940  48.109  1.00  0.00     0.215 C 
HETATM   19  C19 UNL     1      33.426   9.328  46.841  1.00  0.00     0.156 C 
HETATM   20  C1  UNL     1      35.522   6.606  48.577  1.00  0.00     0.117 C 
HETATM   21  O1  UNL     1      35.819   8.862  48.494  1.00  0.00    -0.274 OA
HETATM   22  C18 UNL     1      31.939   9.541  46.935  1.00  0.00     0.292 C 
ENDBRANCH  12  14
ENDBRANCH   1  10
BRANCH   3  23
HETATM   23  C10 UNL     1      26.048   3.278  49.686  1.00  0.00     0.157 C 
BRANCH  23  24
HETATM   24  C11 UNL     1      26.566   2.717  50.928  1.00  0.00     0.302 C 
HETATM   25  O2  UNL     1      27.496   2.648  51.704  1.00  0.00    -0.260 OA
HETATM   26  F1  UNL     1      25.746   1.894  51.616  1.00  0.00    -0.164 F 
ENDBRANCH  23  24
ENDBRANCH   3  23
BRANCH   5  27
HETATM   27  C14 UNL     1      23.790   4.889  51.314  1.00  0.00     0.326 C 
BRANCH  27  28
HETATM   28  N4  UNL     1      23.803   5.156  52.745  1.00  0.00     0.084 N 
HETATM   29  H17 UNL     1      23.530   6.148  52.923  1.00  0.00     0.313 HD
HETATM   30  H18 UNL     1      23.032   4.597  53.218  1.00  0.00     0.313 HD
ENDBRANCH  27  28
ENDBRANCH   5  27
TORSDOF 6
ENDMDL
MODEL 7
REMARK VINA RESULT:      -7.2      6.369      9.177
REMARK  6 active torsions:
REMARK  status: ('A' for Active; 'I' for Inactive)
REMARK       I    between atoms: C2_2  and  N1_4 
REMARK    1  A    between atoms: N2_7  and  C5_8 
REMARK    2  A    between atoms: C7_10  and  N3_11 
REMARK    3  A    between atoms: C9_13  and  C10_14 
REMARK    4  A    between atoms: C10_14  and  C11_15 
REMARK    5  A    between atoms: C13_19  and  C14_20 
REMARK    6  A    between atoms: C14_20  and  N4_21 
ROOT
HETATM    1  N3  UNL     1      20.796   1.582  51.572  1.00  0.00    -0.336 N 
HETATM    2  C8  UNL     1      21.202   0.509  52.242  1.00  0.00     0.101 A 
HETATM    3  C9  UNL     1      22.474   0.654  52.834  1.00  0.00    -0.017 A 
HETATM    4  C12 UNL     1      22.779   1.938  52.438  1.00  0.00     0.045 A 
HETATM    5  C13 UNL     1      23.904   2.664  52.729  1.00  0.00     0.078 A 
HETATM    6  N5  UNL     1      24.006   3.944  52.258  1.00  0.00    -0.244 NA
HETATM    7  C15 UNL     1      23.041   4.516  51.518  1.00  0.00     0.235 A 
HETATM    8  N6  UNL     1      21.943   3.792  51.238  1.00  0.00    -0.223 NA
HETATM    9  C16 UNL     1      21.784   2.510  51.683  1.00  0.00     0.144 A 
ENDROOT
BRANCH   1  10
HETATM   10  C7  UNL     1      19.623   1.894  50.834  1.00  0.00     0.095 C 
HETATM   11  C6  UNL     1      18.722   2.981  51.445  1.00  0.00     0.061 C 
HETATM   12  C5  UNL     1      17.602   2.230  50.710  1.00  0.00     0.227 C 
HETATM   13  C17 UNL     1      18.420   0.990  51.007  1.00  0.00     0.061 C 
BRANCH  12  14
HETATM   14  N2  UNL     1      16.298   2.334  51.270  1.00  0.00     0.096 N 
HETATM   15  C4  UNL     1      15.627   3.437  50.553  1.00  0.00     0.292 C 
HETATM   16  C3  UNL     1      14.578   3.926  51.548  1.00  0.00     0.156 C 
HETATM   17  N1  UNL     1      13.936   2.784  52.184  1.00  0.00    -0.349 N 
HETATM   18  C2  UNL     1      13.186   2.955  53.384  1.00  0.00     0.215 C 
HETATM   19  C19 UNL     1      14.077   1.500  51.565  1.00  0.00     0.156 C 
HETATM   20  C1  UNL     1      13.052   4.302  53.997  1.00  0.00     0.117 C 
HETATM   21  O1  UNL     1      12.585   2.074  54.040  1.00  0.00    -0.274 OA
HETATM   22  C18 UNL     1      15.458   1.187  51.056  1.00  0.00     0.292 C 
ENDBRANCH  12  14
ENDBRANCH   1  10
BRANCH   3  23
HETATM   23  C10 UNL     1      23.169  -0.368  53.641  1.00  0.00     0.157 C 
BRANCH  23  24
HETATM   24  C11 UNL     1      22.411  -0.990  54.721  1.00  0.00     0.302 C 
HETATM   25  O2  UNL     1      22.199  -1.992  55.370  1.00  0.00    -0.260 OA
HETATM   26  F1  UNL     1      21.517  -0.211  55.367  1.00  0.00    -0.164 F 
ENDBRANCH  23  24
ENDBRANCH   3  23
BRANCH   5  27
HETATM   27  C14 UNL     1      25.084   2.209  53.461  1.00  0.00     0.326 C 
BRANCH  27  28
HETATM   28  N4  UNL     1      26.255   2.536  52.661  1.00  0.00     0.084 N 
HETATM   29  H17 UNL     1      26.130   2.181  51.687  1.00  0.00     0.313 HD
HETATM   30  H18 UNL     1      26.316   3.591  52.535  1.00  0.00     0.313 HD
ENDBRANCH  27  28
ENDBRANCH   5  27
TORSDOF 6
ENDMDL
MODEL 8
REMARK VINA RESULT:      -7.0      6.956     10.280
REMARK  6 active torsions:
REMARK  status: ('A' for Active; 'I' for Inactive)
REMARK       I    between atoms: C2_2  and  N1_4 
REMARK    1  A    between atoms: N2_7  and  C5_8 
REMARK    2  A    between atoms: C7_10  and  N3_11 
REMARK    3  A    between atoms: C9_13  and  C10_14 
REMARK    4  A    between atoms: C10_14  and  C11_15 
REMARK    5  A    between atoms: C13_19  and  C14_20 
REMARK    6  A    between atoms: C14_20  and  N4_21 
ROOT
HETATM    1  N3  UNL     1      19.402   0.290  51.794  1.00  0.00    -0.336 N 
HETATM    2  C8  UNL     1      20.005   0.048  52.953  1.00  0.00     0.101 A 
HETATM    3  C9  UNL     1      21.381   0.356  52.953  1.00  0.00    -0.017 A 
HETATM    4  C12 UNL     1      21.529   0.808  51.660  1.00  0.00     0.045 A 
HETATM    5  C13 UNL     1      22.664   1.279  51.056  1.00  0.00     0.078 A 
HETATM    6  N5  UNL     1      22.596   1.709  49.760  1.00  0.00    -0.244 NA
HETATM    7  C15 UNL     1      21.452   1.684  49.055  1.00  0.00     0.235 A 
HETATM    8  N6  UNL     1      20.345   1.217  49.658  1.00  0.00    -0.223 NA
HETATM    9  C16 UNL     1      20.352   0.777  50.951  1.00  0.00     0.144 A 
ENDROOT
BRANCH   1  10
HETATM   10  C7  UNL     1      18.067   0.140  51.331  1.00  0.00     0.095 C 
HETATM   11  C6  UNL     1      17.199   1.410  51.382  1.00  0.00     0.061 C 
HETATM   12  C5  UNL     1      16.043   0.411  51.536  1.00  0.00     0.227 C 
HETATM   13  C17 UNL     1      17.047  -0.432  52.293  1.00  0.00     0.061 C 
BRANCH  12  14
HETATM   14  N2  UNL     1      14.891   0.881  52.227  1.00  0.00     0.096 N 
HETATM   15  C4  UNL     1      13.971   1.397  51.193  1.00  0.00     0.292 C 
HETATM   16  C3  UNL     1      13.124   2.419  51.945  1.00  0.00     0.156 C 
HETATM   17  N1  UNL     1      12.754   1.886  53.249  1.00  0.00    -0.349 N 
HETATM   18  C2  UNL     1      12.274   2.753  54.273  1.00  0.00     0.215 C 
HETATM   19  C19 UNL     1      12.884   0.475  53.461  1.00  0.00     0.156 C 
HETATM   20  C1  UNL     1      12.144   4.211  54.018  1.00  0.00     0.117 C 
HETATM   21  O1  UNL     1      11.924   2.441  55.434  1.00  0.00    -0.274 OA
HETATM   22  C18 UNL     1      14.143  -0.139  52.912  1.00  0.00     0.292 C 
ENDBRANCH  12  14
ENDBRANCH   1  10
BRANCH   3  23
HETATM   23  C10 UNL     1      22.298   0.198  54.100  1.00  0.00     0.157 C 
BRANCH  23  24
HETATM   24  C11 UNL     1      22.255  -1.073  54.814  1.00  0.00     0.302 C 
HETATM   25  O2  UNL     1      22.726  -1.763  55.693  1.00  0.00    -0.260 OA
HETATM   26  F1  UNL     1      21.321  -1.965  54.419  1.00  0.00    -0.164 F 
ENDBRANCH  23  24
ENDBRANCH   3  23
BRANCH   5  27
HETATM   27  C14 UNL     1      24.009   1.333  51.626  1.00  0.00     0.326 C 
BRANCH  27  28
HETATM   28  N4  UNL     1      24.699   2.465  51.023  1.00  0.00     0.084 N 
HETATM   29  H17 UNL     1      24.657   2.393  49.982  1.00  0.00     0.313 HD
HETATM   30  H18 UNL     1      24.164   3.360  51.233  1.00  0.00     0.313 HD
ENDBRANCH  27  28
ENDBRANCH   5  27
TORSDOF 6
ENDMDL
MODEL 9
REMARK VINA RESULT:      -6.9      4.743      7.696
REMARK  6 active torsions:
REMARK  status: ('A' for Active; 'I' for Inactive)
REMARK       I    between atoms: C2_2  and  N1_4 
REMARK    1  A    between atoms: N2_7  and  C5_8 
REMARK    2  A    between atoms: C7_10  and  N3_11 
REMARK    3  A    between atoms: C9_13  and  C10_14 
REMARK    4  A    between atoms: C10_14  and  C11_15 
REMARK    5  A    between atoms: C13_19  and  C14_20 
REMARK    6  A    between atoms: C14_20  and  N4_21 
ROOT
HETATM    1  N3  UNL     1      27.741   6.737  48.616  1.00  0.00    -0.336 N 
HETATM    2  C8  UNL     1      27.488   5.433  48.648  1.00  0.00     0.101 A 
HETATM    3  C9  UNL     1      26.271   5.103  49.280  1.00  0.00    -0.017 A 
HETATM    4  C12 UNL     1      25.828   6.363  49.622  1.00  0.00     0.045 A 
HETATM    5  C13 UNL     1      24.663   6.702  50.258  1.00  0.00     0.078 A 
HETATM    6  N5  UNL     1      24.393   8.024  50.485  1.00  0.00    -0.244 NA
HETATM    7  C15 UNL     1      25.233   9.003  50.108  1.00  0.00     0.235 A 
HETATM    8  N6  UNL     1      26.374   8.656  49.487  1.00  0.00    -0.223 NA
HETATM    9  C16 UNL     1      26.696   7.354  49.231  1.00  0.00     0.144 A 
ENDROOT
BRANCH   1  10
HETATM   10  C7  UNL     1      28.810   7.518  48.102  1.00  0.00     0.095 C 
HETATM   11  C6  UNL     1      29.105   7.337  46.603  1.00  0.00     0.061 C 
HETATM   12  C5  UNL     1      30.534   7.723  47.009  1.00  0.00     0.227 C 
HETATM   13  C17 UNL     1      30.220   7.002  48.303  1.00  0.00     0.061 C 
BRANCH  12  14
HETATM   14  N2  UNL     1      31.582   7.219  46.187  1.00  0.00     0.096 N 
HETATM   15  C4  UNL     1      31.543   8.007  44.939  1.00  0.00     0.292 C 
HETATM   16  C3  UNL     1      32.172   7.075  43.907  1.00  0.00     0.156 C 
HETATM   17  N1  UNL     1      33.337   6.418  44.485  1.00  0.00    -0.349 N 
HETATM   18  C2  UNL     1      33.888   5.256  43.870  1.00  0.00     0.215 C 
HETATM   19  C19 UNL     1      33.904   6.977  45.675  1.00  0.00     0.156 C 
HETATM   20  C1  UNL     1      33.280   4.706  42.631  1.00  0.00     0.117 C 
HETATM   21  O1  UNL     1      34.876   4.589  44.250  1.00  0.00    -0.274 OA
HETATM   22  C18 UNL     1      32.906   7.418  46.711  1.00  0.00     0.292 C 
ENDBRANCH  12  14
ENDBRANCH   1  10
BRANCH   3  23
HETATM   23  C10 UNL     1      25.732   3.740  49.451  1.00  0.00     0.157 C 
BRANCH  23  24
HETATM   24  C11 UNL     1      25.871   3.131  50.769  1.00  0.00     0.302 C 
HETATM   25  O2  UNL     1      25.325   2.798  51.799  1.00  0.00    -0.260 OA
HETATM   26  F1  UNL     1      27.105   2.709  51.119  1.00  0.00    -0.164 F 
ENDBRANCH  23  24
ENDBRANCH   3  23
BRANCH   5  27
HETATM   27  C14 UNL     1      23.654   5.793  50.796  1.00  0.00     0.326 C 
BRANCH  27  28
HETATM   28  N4  UNL     1      23.872   5.690  52.232  1.00  0.00     0.084 N 
HETATM   29  H17 UNL     1      24.871   5.457  52.424  1.00  0.00     0.313 HD
HETATM   30  H18 UNL     1      23.751   6.648  52.679  1.00  0.00     0.313 HD
ENDBRANCH  27  28
ENDBRANCH   5  27
TORSDOF 6
ENDMDL
