MODEL 1
REMARK VINA RESULT:      -8.3      0.000      0.000
REMARK  4 active torsions:
REMARK  status: ('A' for Active; 'I' for Inactive)
REMARK    1  A    between atoms: O1_2  and  C2_3 
REMARK    2  A    between atoms: C4_5  and  N1_6 
REMARK    3  A    between atoms: N1_6  and  C5_7 
REMARK    4  A    between atoms: C16_21  and  O3_22 
ROOT
HETATM    1  C5  UNL     1      22.929  -0.152  53.457  1.00  0.00     0.141 A 
HETATM    2  N2  UNL     1      23.370  -0.827  54.531  1.00  0.00    -0.224 NA
HETATM    3  C6  UNL     1      22.605  -1.645  55.259  1.00  0.00     0.236 A 
HETATM    4  N3  UNL     1      21.324  -1.797  54.891  1.00  0.00    -0.241 NA
HETATM    5  C7  UNL     1      20.767  -1.177  53.836  1.00  0.00     0.072 A 
HETATM    6  C8  UNL     1      21.608  -0.345  53.123  1.00  0.00     0.037 A 
HETATM    7  C9  UNL     1      21.362   0.379  52.046  1.00  0.00     0.017 C 
HETATM    8  C10 UNL     1      20.334   0.776  51.056  1.00  0.00     0.203 C 
HETATM    9  O2  UNL     1      19.031   0.680  51.587  1.00  0.00    -0.359 OA
HETATM   10  C11 UNL     1      18.158  -0.341  52.004  1.00  0.00     0.141 C 
HETATM   11  C12 UNL     1      18.393  -1.270  52.941  1.00  0.00    -0.038 C 
HETATM   12  C13 UNL     1      17.283  -2.233  53.180  1.00  0.00     0.050 C 
HETATM   13  C14 UNL     1      19.512  -1.586  53.834  1.00  0.00     0.041 C 
ENDROOT
BRANCH   1  14
HETATM   14  N1  UNL     1      23.778   0.719  52.727  1.00  0.00    -0.340 N 
HETATM   15  H5  UNL     1      23.044   1.071  52.044  1.00  0.00     0.167 HD
BRANCH  14  16
HETATM   16  C4  UNL     1      25.115   1.182  52.676  1.00  0.00     0.038 A 
HETATM   17  C3  UNL     1      25.464   1.965  51.602  1.00  0.00     0.066 A 
HETATM   18  C2  UNL     1      26.737   2.435  51.553  1.00  0.00     0.073 A 
HETATM   19  C18 UNL     1      27.628   2.116  52.568  1.00  0.00     0.073 A 
HETATM   20  C16 UNL     1      27.311   1.333  53.661  1.00  0.00     0.073 A 
HETATM   21  C15 UNL     1      25.998   0.867  53.680  1.00  0.00     0.066 A 
BRANCH  18  22
HETATM   22  O1  UNL     1      27.168   3.231  50.500  1.00  0.00    -0.356 OA
HETATM   23  C1  UNL     1      26.189   3.933  49.767  1.00  0.00     0.210 C 
ENDBRANCH  18  22
BRANCH  20  24
HETATM   24  O3  UNL     1      28.279   1.076  54.621  1.00  0.00    -0.356 OA
HETATM   25  C17 UNL     1      29.003  -0.142  54.582  1.00  0.00     0.210 C 
ENDBRANCH  20  24
ENDBRANCH  14  16
ENDBRANCH   1  14
TORSDOF 4
ENDMDL
MODEL 2
REMARK VINA RESULT:      -8.2      2.031      3.240
REMARK  4 active torsions:
REMARK  status: ('A' for Active; 'I' for Inactive)
REMARK    1  A    between atoms: O1_2  and  C2_3 
REMARK    2  A    between atoms: C4_5  and  N1_6 
REMARK    3  A    between atoms: N1_6  and  C5_7 
REMARK    4  A    between atoms: C16_21  and  O3_22 
ROOT
HETATM    1  C5  UNL     1      23.029   1.170  52.035  1.00  0.00     0.141 A 
HETATM    2  N2  UNL     1      23.275   1.725  50.838  1.00  0.00    -0.224 NA
HETATM    3  C6  UNL     1      22.372   1.807  49.858  1.00  0.00     0.236 A 
HETATM    4  N3  UNL     1      21.150   1.304  50.088  1.00  0.00    -0.241 NA
HETATM    5  C7  UNL     1      20.783   0.725  51.245  1.00  0.00     0.072 A 
HETATM    6  C8  UNL     1      21.759   0.671  52.219  1.00  0.00     0.037 A 
HETATM    7  C9  UNL     1      21.699   0.183  53.446  1.00  0.00     0.017 C 
HETATM    8  C10 UNL     1      20.839  -0.490  54.446  1.00  0.00     0.203 C 
HETATM    9  O2  UNL     1      19.816  -1.243  53.834  1.00  0.00    -0.359 OA
HETATM   10  C11 UNL     1      18.653  -0.990  53.084  1.00  0.00     0.141 C 
HETATM   11  C12 UNL     1      18.569  -0.313  51.931  1.00  0.00    -0.038 C 
HETATM   12  C13 UNL     1      17.202  -0.199  51.353  1.00  0.00     0.050 C 
HETATM   13  C14 UNL     1      19.527   0.365  51.052  1.00  0.00     0.041 C 
ENDROOT
BRANCH   1  14
HETATM   14  N1  UNL     1      24.029   1.091  53.038  1.00  0.00    -0.340 N 
HETATM   15  H5  UNL     1      23.406   1.346  53.862  1.00  0.00     0.167 HD
BRANCH  14  16
HETATM   16  C4  UNL     1      25.404   0.802  53.216  1.00  0.00     0.038 A 
HETATM   17  C3  UNL     1      26.222   1.850  53.561  1.00  0.00     0.066 A 
HETATM   18  C2  UNL     1      27.539   1.582  53.758  1.00  0.00     0.073 A 
HETATM   19  C18 UNL     1      28.007   0.285  53.607  1.00  0.00     0.073 A 
HETATM   20  C16 UNL     1      27.213  -0.792  53.263  1.00  0.00     0.073 A 
HETATM   21  C15 UNL     1      25.868  -0.482  53.067  1.00  0.00     0.066 A 
BRANCH  18  22
HETATM   22  O1  UNL     1      28.431   2.588  54.107  1.00  0.00    -0.356 OA
HETATM   23  C1  UNL     1      29.729   2.203  54.499  1.00  0.00     0.210 C 
ENDBRANCH  18  22
BRANCH  20  24
HETATM   24  O3  UNL     1      27.783  -2.050  53.139  1.00  0.00    -0.356 OA
HETATM   25  C17 UNL     1      29.191  -2.195  53.207  1.00  0.00     0.210 C 
ENDBRANCH  20  24
ENDBRANCH  14  16
ENDBRANCH   1  14
TORSDOF 4
ENDMDL
MODEL 3
REMARK VINA RESULT:      -8.2      1.854      2.442
REMARK  4 active torsions:
REMARK  status: ('A' for Active; 'I' for Inactive)
REMARK    1  A    between atoms: O1_2  and  C2_3 
REMARK    2  A    between atoms: C4_5  and  N1_6 
REMARK    3  A    between atoms: N1_6  and  C5_7 
REMARK    4  A    between atoms: C16_21  and  O3_22 
ROOT
HETATM    1  C5  UNL     1      22.820   0.132  53.095  1.00  0.00     0.141 A 
HETATM    2  N2  UNL     1      22.632  -0.509  54.259  1.00  0.00    -0.224 NA
HETATM    3  C6  UNL     1      21.448  -0.971  54.669  1.00  0.00     0.236 A 
HETATM    4  N3  UNL     1      20.389  -0.782  53.867  1.00  0.00    -0.241 NA
HETATM    5  C7  UNL     1      20.452  -0.156  52.678  1.00  0.00     0.072 A 
HETATM    6  C8  UNL     1      21.702   0.299  52.310  1.00  0.00     0.037 A 
HETATM    7  C9  UNL     1      22.080   0.929  51.211  1.00  0.00     0.017 C 
HETATM    8  C10 UNL     1      21.631   1.490  49.916  1.00  0.00     0.203 C 
HETATM    9  O2  UNL     1      20.267   1.847  49.945  1.00  0.00    -0.359 OA
HETATM   10  C11 UNL     1      19.027   1.187  50.027  1.00  0.00     0.141 C 
HETATM   11  C12 UNL     1      18.622   0.348  50.991  1.00  0.00    -0.038 C 
HETATM   12  C13 UNL     1      17.252  -0.208  50.822  1.00  0.00     0.050 C 
HETATM   13  C14 UNL     1      19.210  -0.174  52.228  1.00  0.00     0.041 C 
ENDROOT
BRANCH   1  14
HETATM   14  N1  UNL     1      24.096   0.620  52.713  1.00  0.00    -0.340 N 
HETATM   15  H5  UNL     1      23.754   1.342  52.012  1.00  0.00     0.167 HD
BRANCH  14  16
HETATM   16  C4  UNL     1      25.477   0.445  52.975  1.00  0.00     0.038 A 
HETATM   17  C3  UNL     1      26.183   1.556  53.369  1.00  0.00     0.066 A 
HETATM   18  C2  UNL     1      27.503   1.396  53.647  1.00  0.00     0.073 A 
HETATM   19  C18 UNL     1      28.085   0.142  53.527  1.00  0.00     0.073 A 
HETATM   20  C16 UNL     1      27.405  -0.995  53.136  1.00  0.00     0.073 A 
HETATM   21  C15 UNL     1      26.054  -0.797  52.857  1.00  0.00     0.066 A 
BRANCH  18  22
HETATM   22  O1  UNL     1      28.286   2.471  54.049  1.00  0.00    -0.356 OA
HETATM   23  C1  UNL     1      29.622   2.206  54.414  1.00  0.00     0.210 C 
ENDBRANCH  18  22
BRANCH  20  24
HETATM   24  O3  UNL     1      28.083  -2.202  53.050  1.00  0.00    -0.356 OA
HETATM   25  C17 UNL     1      29.459  -2.261  53.385  1.00  0.00     0.210 C 
ENDBRANCH  20  24
ENDBRANCH  14  16
ENDBRANCH   1  14
TORSDOF 4
ENDMDL
MODEL 4
REMARK VINA RESULT:      -8.2      1.877      2.768
REMARK  4 active torsions:
REMARK  status: ('A' for Active; 'I' for Inactive)
REMARK    1  A    between atoms: O1_2  and  C2_3 
REMARK    2  A    between atoms: C4_5  and  N1_6 
REMARK    3  A    between atoms: N1_6  and  C5_7 
REMARK    4  A    between atoms: C16_21  and  O3_22 
ROOT
HETATM    1  C5  UNL     1      22.819   0.188  53.121  1.00  0.00     0.141 A 
HETATM    2  N2  UNL     1      22.622  -0.484  54.267  1.00  0.00    -0.224 NA
HETATM    3  C6  UNL     1      21.438  -0.968  54.649  1.00  0.00     0.236 A 
HETATM    4  N3  UNL     1      20.388  -0.770  53.838  1.00  0.00    -0.241 NA
HETATM    5  C7  UNL     1      20.459  -0.115  52.666  1.00  0.00     0.072 A 
HETATM    6  C8  UNL     1      21.709   0.362  52.325  1.00  0.00     0.037 A 
HETATM    7  C9  UNL     1      22.094   1.023  51.248  1.00  0.00     0.017 C 
HETATM    8  C10 UNL     1      21.656   1.611  49.961  1.00  0.00     0.203 C 
HETATM    9  O2  UNL     1      20.288   1.952  49.980  1.00  0.00    -0.359 OA
HETATM   10  C11 UNL     1      19.054   1.277  50.030  1.00  0.00     0.141 C 
HETATM   11  C12 UNL     1      18.646   0.411  50.968  1.00  0.00    -0.038 C 
HETATM   12  C13 UNL     1      17.285  -0.155  50.767  1.00  0.00     0.050 C 
HETATM   13  C14 UNL     1      19.224  -0.135  52.199  1.00  0.00     0.041 C 
ENDROOT
BRANCH   1  14
HETATM   14  N1  UNL     1      24.094   0.699  52.768  1.00  0.00    -0.340 N 
HETATM   15  H5  UNL     1      23.754   1.419  52.064  1.00  0.00     0.167 HD
BRANCH  14  16
HETATM   16  C4  UNL     1      25.472   0.544  53.058  1.00  0.00     0.038 A 
HETATM   17  C3  UNL     1      26.000  -0.717  52.922  1.00  0.00     0.066 A 
HETATM   18  C2  UNL     1      27.325  -0.874  53.174  1.00  0.00     0.073 A 
HETATM   19  C18 UNL     1      28.089   0.221  53.552  1.00  0.00     0.073 A 
HETATM   20  C16 UNL     1      27.591   1.501  53.696  1.00  0.00     0.073 A 
HETATM   21  C15 UNL     1      26.229   1.628  53.432  1.00  0.00     0.066 A 
BRANCH  18  22
HETATM   22  O1  UNL     1      27.934  -2.118  53.061  1.00  0.00    -0.356 OA
HETATM   23  C1  UNL     1      29.317  -2.195  53.323  1.00  0.00     0.210 C 
ENDBRANCH  18  22
BRANCH  20  24
HETATM   24  O3  UNL     1      28.443   2.527  54.078  1.00  0.00    -0.356 OA
HETATM   25  C17 UNL     1      29.734   2.221  54.575  1.00  0.00     0.210 C 
ENDBRANCH  20  24
ENDBRANCH  14  16
ENDBRANCH   1  14
TORSDOF 4
ENDMDL
MODEL 5
REMARK VINA RESULT:      -8.1      2.039      3.442
REMARK  4 active torsions:
REMARK  status: ('A' for Active; 'I' for Inactive)
REMARK    1  A    between atoms: O1_2  and  C2_3 
REMARK    2  A    between atoms: C4_5  and  N1_6 
REMARK    3  A    between atoms: N1_6  and  C5_7 
REMARK    4  A    between atoms: C16_21  and  O3_22 
ROOT
HETATM    1  C5  UNL     1      22.974   1.139  52.041  1.00  0.00     0.141 A 
HETATM    2  N2  UNL     1      23.252   1.671  50.840  1.00  0.00    -0.224 NA
HETATM    3  C6  UNL     1      22.372   1.742  49.838  1.00  0.00     0.236 A 
HETATM    4  N3  UNL     1      21.141   1.252  50.049  1.00  0.00    -0.241 NA
HETATM    5  C7  UNL     1      20.744   0.697  51.208  1.00  0.00     0.072 A 
HETATM    6  C8  UNL     1      21.697   0.653  52.205  1.00  0.00     0.037 A 
HETATM    7  C9  UNL     1      21.606   0.188  53.439  1.00  0.00     0.017 C 
HETATM    8  C10 UNL     1      20.717  -0.460  54.431  1.00  0.00     0.203 C 
HETATM    9  O2  UNL     1      19.702  -1.216  53.810  1.00  0.00    -0.359 OA
HETATM   10  C11 UNL     1      18.559  -0.968  53.029  1.00  0.00     0.141 C 
HETATM   11  C12 UNL     1      18.507  -0.311  51.862  1.00  0.00    -0.038 C 
HETATM   12  C13 UNL     1      17.154  -0.197  51.251  1.00  0.00     0.050 C 
HETATM   13  C14 UNL     1      19.489   0.343  50.993  1.00  0.00     0.041 C 
ENDROOT
BRANCH   1  14
HETATM   14  N1  UNL     1      23.951   1.071  53.068  1.00  0.00    -0.340 N 
HETATM   15  H5  UNL     1      23.301   1.296  53.879  1.00  0.00     0.167 HD
BRANCH  14  16
HETATM   16  C4  UNL     1      25.328   0.817  53.276  1.00  0.00     0.038 A 
HETATM   17  C3  UNL     1      25.757  -0.478  53.105  1.00  0.00     0.066 A 
HETATM   18  C2  UNL     1      27.079  -0.731  53.277  1.00  0.00     0.073 A 
HETATM   19  C18 UNL     1      27.940   0.304  53.614  1.00  0.00     0.073 A 
HETATM   20  C16 UNL     1      27.544   1.616  53.792  1.00  0.00     0.073 A 
HETATM   21  C15 UNL     1      26.181   1.841  53.609  1.00  0.00     0.066 A 
BRANCH  18  22
HETATM   22  O1  UNL     1      27.590  -2.013  53.124  1.00  0.00    -0.356 OA
HETATM   23  C1  UNL     1      28.991  -2.167  53.150  1.00  0.00     0.210 C 
ENDBRANCH  18  22
BRANCH  20  24
HETATM   24  O3  UNL     1      28.488   2.576  54.127  1.00  0.00    -0.356 OA
HETATM   25  C17 UNL     1      29.781   2.174  54.546  1.00  0.00     0.210 C 
ENDBRANCH  20  24
ENDBRANCH  14  16
ENDBRANCH   1  14
TORSDOF 4
ENDMDL
MODEL 6
REMARK VINA RESULT:      -8.1      2.801      4.923
REMARK  4 active torsions:
REMARK  status: ('A' for Active; 'I' for Inactive)
REMARK    1  A    between atoms: O1_2  and  C2_3 
REMARK    2  A    between atoms: C4_5  and  N1_6 
REMARK    3  A    between atoms: N1_6  and  C5_7 
REMARK    4  A    between atoms: C16_21  and  O3_22 
ROOT
HETATM    1  C5  UNL     1      25.157   1.911  51.340  1.00  0.00     0.141 A 
HETATM    2  N2  UNL     1      26.372   1.429  51.648  1.00  0.00    -0.224 NA
HETATM    3  C6  UNL     1      26.580   0.454  52.536  1.00  0.00     0.236 A 
HETATM    4  N3  UNL     1      25.510  -0.071  53.152  1.00  0.00    -0.241 NA
HETATM    5  C7  UNL     1      24.245   0.326  52.928  1.00  0.00     0.072 A 
HETATM    6  C8  UNL     1      24.095   1.337  52.000  1.00  0.00     0.037 A 
HETATM    7  C9  UNL     1      22.993   1.922  51.562  1.00  0.00     0.017 C 
HETATM    8  C10 UNL     1      21.517   1.973  51.673  1.00  0.00     0.203 C 
HETATM    9  O2  UNL     1      21.072   1.527  52.935  1.00  0.00    -0.359 OA
HETATM   10  C11 UNL     1      21.029   0.315  53.647  1.00  0.00     0.141 C 
HETATM   11  C12 UNL     1      22.067  -0.474  53.958  1.00  0.00    -0.038 C 
HETATM   12  C13 UNL     1      21.728  -1.705  54.724  1.00  0.00     0.050 C 
HETATM   13  C14 UNL     1      23.514  -0.425  53.731  1.00  0.00     0.041 C 
ENDROOT
BRANCH   1  14
HETATM   14  N1  UNL     1      24.990   2.962  50.402  1.00  0.00    -0.340 N 
HETATM   15  H5  UNL     1      24.019   2.686  50.070  1.00  0.00     0.167 HD
BRANCH  14  16
HETATM   16  C4  UNL     1      25.652   4.100  49.879  1.00  0.00     0.038 A 
HETATM   17  C3  UNL     1      26.886   3.898  49.310  1.00  0.00     0.066 A 
HETATM   18  C2  UNL     1      27.521   4.977  48.784  1.00  0.00     0.073 A 
HETATM   19  C18 UNL     1      26.916   6.224  48.835  1.00  0.00     0.073 A 
HETATM   20  C16 UNL     1      25.677   6.463  49.398  1.00  0.00     0.073 A 
HETATM   21  C15 UNL     1      25.053   5.336  49.930  1.00  0.00     0.066 A 
BRANCH  18  22
HETATM   22  O1  UNL     1      28.772   4.856  48.193  1.00  0.00    -0.356 OA
HETATM   23  C1  UNL     1      29.593   6.001  48.159  1.00  0.00     0.210 C 
ENDBRANCH  18  22
BRANCH  20  24
HETATM   24  O3  UNL     1      25.161   7.751  49.396  1.00  0.00    -0.356 OA
HETATM   25  C17 UNL     1      24.206   8.128  50.373  1.00  0.00     0.210 C 
ENDBRANCH  20  24
ENDBRANCH  14  16
ENDBRANCH   1  14
TORSDOF 4
ENDMDL
MODEL 7
REMARK VINA RESULT:      -8.0      2.781      4.673
REMARK  4 active torsions:
REMARK  status: ('A' for Active; 'I' for Inactive)
REMARK    1  A    between atoms: O1_2  and  C2_3 
REMARK    2  A    between atoms: C4_5  and  N1_6 
REMARK    3  A    between atoms: N1_6  and  C5_7 
REMARK    4  A    between atoms: C16_21  and  O3_22 
ROOT
HETATM    1  C5  UNL     1      25.015   1.969  51.359  1.00  0.00     0.141 A 
HETATM    2  N2  UNL     1      26.212   1.437  51.651  1.00  0.00    -0.224 NA
HETATM    3  C6  UNL     1      26.386   0.430  52.512  1.00  0.00     0.236 A 
HETATM    4  N3  UNL     1      25.299  -0.073  53.115  1.00  0.00    -0.241 NA
HETATM    5  C7  UNL     1      24.049   0.375  52.905  1.00  0.00     0.072 A 
HETATM    6  C8  UNL     1      23.934   1.416  52.005  1.00  0.00     0.037 A 
HETATM    7  C9  UNL     1      22.853   2.051  51.585  1.00  0.00     0.017 C 
HETATM    8  C10 UNL     1      21.380   2.152  51.701  1.00  0.00     0.203 C 
HETATM    9  O2  UNL     1      20.920   1.688  52.950  1.00  0.00    -0.359 OA
HETATM   10  C11 UNL     1      20.835   0.459  53.629  1.00  0.00     0.141 C 
HETATM   11  C12 UNL     1      21.844  -0.375  53.916  1.00  0.00    -0.038 C 
HETATM   12  C13 UNL     1      21.462  -1.613  54.649  1.00  0.00     0.050 C 
HETATM   13  C14 UNL     1      23.292  -0.372  53.689  1.00  0.00     0.041 C 
ENDROOT
BRANCH   1  14
HETATM   14  N1  UNL     1      24.885   3.051  50.450  1.00  0.00    -0.340 N 
HETATM   15  H5  UNL     1      23.871   2.876  50.185  1.00  0.00     0.167 HD
BRANCH  14  16
HETATM   16  C4  UNL     1      25.615   4.132  49.898  1.00  0.00     0.038 A 
HETATM   17  C3  UNL     1      25.058   5.383  50.008  1.00  0.00     0.066 A 
HETATM   18  C2  UNL     1      25.758   6.431  49.503  1.00  0.00     0.073 A 
HETATM   19  C18 UNL     1      26.991   6.211  48.905  1.00  0.00     0.073 A 
HETATM   20  C16 UNL     1      27.581   4.968  48.779  1.00  0.00     0.073 A 
HETATM   21  C15 UNL     1      26.836   3.915  49.306  1.00  0.00     0.066 A 
BRANCH  18  22
HETATM   22  O1  UNL     1      25.262   7.726  49.574  1.00  0.00    -0.356 OA
HETATM   23  C1  UNL     1      24.021   7.917  50.215  1.00  0.00     0.210 C 
ENDBRANCH  18  22
BRANCH  20  24
HETATM   24  O3  UNL     1      28.820   4.858  48.164  1.00  0.00    -0.356 OA
HETATM   25  C17 UNL     1      29.683   5.981  48.116  1.00  0.00     0.210 C 
ENDBRANCH  20  24
ENDBRANCH  14  16
ENDBRANCH   1  14
TORSDOF 4
ENDMDL
MODEL 8
REMARK VINA RESULT:      -7.8      0.856      2.598
REMARK  4 active torsions:
REMARK  status: ('A' for Active; 'I' for Inactive)
REMARK    1  A    between atoms: O1_2  and  C2_3 
REMARK    2  A    between atoms: C4_5  and  N1_6 
REMARK    3  A    between atoms: N1_6  and  C5_7 
REMARK    4  A    between atoms: C16_21  and  O3_22 
ROOT
HETATM    1  C5  UNL     1      22.473   0.401  53.474  1.00  0.00     0.141 A 
HETATM    2  N2  UNL     1      22.994  -0.426  54.394  1.00  0.00    -0.224 NA
HETATM    3  C6  UNL     1      22.317  -1.429  54.959  1.00  0.00     0.236 A 
HETATM    4  N3  UNL     1      21.044  -1.617  54.582  1.00  0.00    -0.241 NA
HETATM    5  C7  UNL     1      20.412  -0.856  53.670  1.00  0.00     0.072 A 
HETATM    6  C8  UNL     1      21.164   0.164  53.122  1.00  0.00     0.037 A 
HETATM    7  C9  UNL     1      20.832   1.057  52.206  1.00  0.00     0.017 C 
HETATM    8  C10 UNL     1      19.750   1.547  51.321  1.00  0.00     0.203 C 
HETATM    9  O2  UNL     1      18.473   1.241  51.837  1.00  0.00    -0.359 OA
HETATM   10  C11 UNL     1      17.696   0.089  52.059  1.00  0.00     0.141 C 
HETATM   11  C12 UNL     1      18.031  -0.978  52.798  1.00  0.00    -0.038 C 
HETATM   12  C13 UNL     1      17.009  -2.059  52.859  1.00  0.00     0.050 C 
HETATM   13  C14 UNL     1      19.194  -1.363  53.603  1.00  0.00     0.041 C 
ENDROOT
BRANCH   1  14
HETATM   14  N1  UNL     1      23.229   1.464  52.916  1.00  0.00    -0.340 N 
HETATM   15  H5  UNL     1      22.417   2.130  52.756  1.00  0.00     0.167 HD
BRANCH  14  16
HETATM   16  C4  UNL     1      24.556   1.826  52.580  1.00  0.00     0.038 A 
HETATM   17  C3  UNL     1      25.483   1.815  53.595  1.00  0.00     0.066 A 
HETATM   18  C2  UNL     1      26.764   2.137  53.281  1.00  0.00     0.073 A 
HETATM   19  C18 UNL     1      27.092   2.459  51.972  1.00  0.00     0.073 A 
HETATM   20  C16 UNL     1      26.187   2.479  50.928  1.00  0.00     0.073 A 
HETATM   21  C15 UNL     1      24.882   2.145  51.284  1.00  0.00     0.066 A 
BRANCH  18  22
HETATM   22  O1  UNL     1      27.758   2.151  54.251  1.00  0.00    -0.356 OA
HETATM   23  C1  UNL     1      28.993   1.551  53.931  1.00  0.00     0.210 C 
ENDBRANCH  18  22
BRANCH  20  24
HETATM   24  O3  UNL     1      26.621   2.815  49.654  1.00  0.00    -0.356 OA
HETATM   25  C17 UNL     1      26.774   4.179  49.300  1.00  0.00     0.210 C 
ENDBRANCH  20  24
ENDBRANCH  14  16
ENDBRANCH   1  14
TORSDOF 4
ENDMDL
MODEL 9
REMARK VINA RESULT:      -7.6      2.173      7.826
REMARK  4 active torsions:
REMARK  status: ('A' for Active; 'I' for Inactive)
REMARK    1  A    between atoms: O1_2  and  C2_3 
REMARK    2  A    between atoms: C4_5  and  N1_6 
REMARK    3  A    between atoms: N1_6  and  C5_7 
REMARK    4  A    between atoms: C16_21  and  O3_22 
ROOT
HETATM    1  C5  UNL     1      24.316   1.661  51.717  1.00  0.00     0.141 A 
HETATM    2  N2  UNL     1      24.632   2.570  50.780  1.00  0.00    -0.224 NA
HETATM    3  C6  UNL     1      25.877   2.989  50.543  1.00  0.00     0.236 A 
HETATM    4  N3  UNL     1      26.866   2.468  51.286  1.00  0.00    -0.241 NA
HETATM    5  C7  UNL     1      26.676   1.552  52.251  1.00  0.00     0.072 A 
HETATM    6  C8  UNL     1      25.367   1.159  52.449  1.00  0.00     0.037 A 
HETATM    7  C9  UNL     1      24.872   0.278  53.301  1.00  0.00     0.017 C 
HETATM    8  C10 UNL     1      25.192  -0.678  54.386  1.00  0.00     0.203 C 
HETATM    9  O2  UNL     1      26.376  -0.321  55.065  1.00  0.00    -0.359 OA
HETATM   10  C11 UNL     1      27.753  -0.263  54.783  1.00  0.00     0.141 C 
HETATM   11  C12 UNL     1      28.345   0.429  53.800  1.00  0.00    -0.038 C 
HETATM   12  C13 UNL     1      29.827   0.307  53.735  1.00  0.00     0.050 C 
HETATM   13  C14 UNL     1      27.884   1.322  52.733  1.00  0.00     0.041 C 
ENDROOT
BRANCH   1  14
HETATM   14  N1  UNL     1      22.973   1.262  51.942  1.00  0.00    -0.340 N 
HETATM   15  H5  UNL     1      23.092   0.979  52.960  1.00  0.00     0.167 HD
BRANCH  14  16
HETATM   16  C4  UNL     1      21.720   1.164  51.291  1.00  0.00     0.038 A 
HETATM   17  C3  UNL     1      20.762   0.384  51.895  1.00  0.00     0.066 A 
HETATM   18  C2  UNL     1      19.548   0.301  51.294  1.00  0.00     0.073 A 
HETATM   19  C18 UNL     1      19.315   0.992  50.113  1.00  0.00     0.073 A 
HETATM   20  C16 UNL     1      20.253   1.785  49.481  1.00  0.00     0.073 A 
HETATM   21  C15 UNL     1      21.488   1.848  50.123  1.00  0.00     0.066 A 
BRANCH  18  22
HETATM   22  O1  UNL     1      18.528  -0.468  51.840  1.00  0.00    -0.356 OA
HETATM   23  C1  UNL     1      18.673  -0.892  53.176  1.00  0.00     0.210 C 
ENDBRANCH  18  22
BRANCH  20  24
HETATM   24  O3  UNL     1      19.916   2.435  48.302  1.00  0.00    -0.356 OA
HETATM   25  C17 UNL     1      20.939   2.943  47.462  1.00  0.00     0.210 C 
ENDBRANCH  20  24
ENDBRANCH  14  16
ENDBRANCH   1  14
TORSDOF 4
ENDMDL
