MODEL 1
REMARK VINA RESULT:      -8.3      0.000      0.000
REMARK  3 active torsions:
REMARK  status: ('A' for Active; 'I' for Inactive)
REMARK    1  A    between atoms: C3_3  and  C4_4 
REMARK    2  A    between atoms: C4_4  and  C5_5 
REMARK    3  A    between atoms: C6_7  and  C7_8 
ROOT
HETATM    1  C5  UNL     1      24.956   1.310  52.137  1.00  0.00     0.079 A 
HETATM    2  N1  UNL     1      25.688   2.245  51.483  1.00  0.00    -0.245 NA
HETATM    3  C6  UNL     1      24.992   3.028  50.692  1.00  0.00     0.074 A 
HETATM    4  C13 UNL     1      23.566   2.957  50.489  1.00  0.00     0.084 A 
HETATM    5  S1  UNL     1      23.228   1.526  51.636  1.00  0.00    -0.084 SA
ENDROOT
BRANCH   1   6
HETATM    6  C4  UNL     1      25.359   0.272  53.089  1.00  0.00     0.101 C 
BRANCH   6   7
HETATM    7  C3  UNL     1      26.833   0.180  53.290  1.00  0.00    -0.068 C 
HETATM    8  C2  UNL     1      27.458  -0.898  52.895  1.00  0.00    -0.073 C 
HETATM    9  C1  UNL     1      26.680  -2.000  52.256  1.00  0.00     0.044 C 
HETATM   10  C17 UNL     1      28.920  -0.955  53.111  1.00  0.00     0.032 C 
HETATM   11  C16 UNL     1      29.393  -0.180  54.265  1.00  0.00    -0.022 C 
HETATM   12  C18 UNL     1      29.261  -2.426  53.301  1.00  0.00     0.019 C 
HETATM   13  C15 UNL     1      28.749   0.900  54.675  1.00  0.00    -0.026 C 
HETATM   14  C14 UNL     1      27.522   1.313  53.929  1.00  0.00     0.061 C 
ENDBRANCH   6   7
ENDBRANCH   1   6
BRANCH   3  15
HETATM   15  C7  UNL     1      25.735   4.058  49.959  1.00  0.00    -0.007 A 
HETATM   16  C8  UNL     1      25.288   5.358  49.831  1.00  0.00     0.014 A 
HETATM   17  C9  UNL     1      25.952   6.355  49.153  1.00  0.00     0.001 A 
HETATM   18  C10 UNL     1      27.154   6.061  48.546  1.00  0.00     0.000 A 
HETATM   19  C11 UNL     1      27.684   4.792  48.617  1.00  0.00     0.001 A 
HETATM   20  C12 UNL     1      26.941   3.870  49.318  1.00  0.00     0.014 A 
ENDBRANCH   3  15
TORSDOF 3
ENDMDL
MODEL 2
REMARK VINA RESULT:      -8.2      3.176      6.909
REMARK  3 active torsions:
REMARK  status: ('A' for Active; 'I' for Inactive)
REMARK    1  A    between atoms: C3_3  and  C4_4 
REMARK    2  A    between atoms: C4_4  and  C5_5 
REMARK    3  A    between atoms: C6_7  and  C7_8 
ROOT
HETATM    1  C5  UNL     1      24.366   1.323  52.146  1.00  0.00     0.079 A 
HETATM    2  N1  UNL     1      25.349   0.392  52.211  1.00  0.00    -0.245 NA
HETATM    3  C6  UNL     1      26.336   0.694  53.021  1.00  0.00     0.074 A 
HETATM    4  C13 UNL     1      26.433   1.899  53.808  1.00  0.00     0.084 A 
HETATM    5  S1  UNL     1      24.830   2.678  53.258  1.00  0.00    -0.084 SA
ENDROOT
BRANCH   1   6
HETATM    6  C4  UNL     1      23.123   1.352  51.373  1.00  0.00     0.101 C 
BRANCH   6   7
HETATM    7  C3  UNL     1      22.002   0.601  52.008  1.00  0.00    -0.068 C 
HETATM    8  C2  UNL     1      20.890   0.445  51.342  1.00  0.00    -0.073 C 
HETATM    9  C1  UNL     1      20.774   1.019  49.969  1.00  0.00     0.044 C 
HETATM   10  C17 UNL     1      19.800  -0.304  52.003  1.00  0.00     0.032 C 
HETATM   11  C16 UNL     1      19.803  -0.212  53.468  1.00  0.00    -0.022 C 
HETATM   12  C18 UNL     1      18.500   0.266  51.451  1.00  0.00     0.019 C 
HETATM   13  C15 UNL     1      20.927  -0.035  54.140  1.00  0.00    -0.026 C 
HETATM   14  C14 UNL     1      22.201   0.069  53.366  1.00  0.00     0.061 C 
ENDBRANCH   6   7
ENDBRANCH   1   6
BRANCH   3  15
HETATM   15  C7  UNL     1      27.427  -0.280  53.129  1.00  0.00    -0.007 A 
HETATM   16  C8  UNL     1      28.689   0.053  53.579  1.00  0.00     0.014 A 
HETATM   17  C9  UNL     1      29.740  -0.828  53.695  1.00  0.00     0.001 A 
HETATM   18  C10 UNL     1      29.546  -2.146  53.343  1.00  0.00     0.000 A 
HETATM   19  C11 UNL     1      28.322  -2.577  52.883  1.00  0.00     0.001 A 
HETATM   20  C12 UNL     1      27.339  -1.617  52.804  1.00  0.00     0.014 A 
ENDBRANCH   3  15
TORSDOF 3
ENDMDL
MODEL 3
REMARK VINA RESULT:      -8.0      1.219      7.006
REMARK  3 active torsions:
REMARK  status: ('A' for Active; 'I' for Inactive)
REMARK    1  A    between atoms: C3_3  and  C4_4 
REMARK    2  A    between atoms: C4_4  and  C5_5 
REMARK    3  A    between atoms: C6_7  and  C7_8 
ROOT
HETATM    1  C5  UNL     1      25.450   3.022  50.614  1.00  0.00     0.079 A 
HETATM    2  N1  UNL     1      26.428   2.176  51.021  1.00  0.00    -0.245 NA
HETATM    3  C6  UNL     1      26.323   1.780  52.267  1.00  0.00     0.074 A 
HETATM    4  C13 UNL     1      25.282   2.171  53.185  1.00  0.00     0.084 A 
HETATM    5  S1  UNL     1      24.336   3.280  52.021  1.00  0.00    -0.084 SA
ENDROOT
BRANCH   1   6
HETATM    6  C4  UNL     1      25.222   3.671  49.321  1.00  0.00     0.101 C 
BRANCH   6   7
HETATM    7  C3  UNL     1      26.099   4.852  49.078  1.00  0.00    -0.068 C 
HETATM    8  C2  UNL     1      25.546   6.018  48.877  1.00  0.00    -0.073 C 
HETATM    9  C1  UNL     1      24.057   6.133  48.896  1.00  0.00     0.044 C 
HETATM   10  C17 UNL     1      26.446   7.167  48.639  1.00  0.00     0.032 C 
HETATM   11  C16 UNL     1      27.727   6.814  48.015  1.00  0.00    -0.022 C 
HETATM   12  C18 UNL     1      25.678   8.125  47.739  1.00  0.00     0.019 C 
HETATM   13  C15 UNL     1      28.277   5.627  48.205  1.00  0.00    -0.026 C 
HETATM   14  C14 UNL     1      27.557   4.649  49.076  1.00  0.00     0.061 C 
ENDBRANCH   6   7
ENDBRANCH   1   6
BRANCH   3  15
HETATM   15  C7  UNL     1      27.356   0.862  52.761  1.00  0.00    -0.007 A 
HETATM   16  C8  UNL     1      28.522   1.295  53.360  1.00  0.00     0.014 A 
HETATM   17  C9  UNL     1      29.515   0.469  53.835  1.00  0.00     0.001 A 
HETATM   18  C10 UNL     1      29.360  -0.895  53.717  1.00  0.00     0.000 A 
HETATM   19  C11 UNL     1      28.231  -1.425  53.134  1.00  0.00     0.001 A 
HETATM   20  C12 UNL     1      27.300  -0.514  52.692  1.00  0.00     0.014 A 
ENDBRANCH   3  15
TORSDOF 3
ENDMDL
MODEL 4
REMARK VINA RESULT:      -7.9      2.719      4.068
REMARK  3 active torsions:
REMARK  status: ('A' for Active; 'I' for Inactive)
REMARK    1  A    between atoms: C3_3  and  C4_4 
REMARK    2  A    between atoms: C4_4  and  C5_5 
REMARK    3  A    between atoms: C6_7  and  C7_8 
ROOT
HETATM    1  C5  UNL     1      23.002   3.254  50.982  1.00  0.00     0.079 A 
HETATM    2  N1  UNL     1      24.086   3.623  50.256  1.00  0.00    -0.245 NA
HETATM    3  C6  UNL     1      24.503   4.846  50.482  1.00  0.00     0.074 A 
HETATM    4  C13 UNL     1      23.908   5.775  51.411  1.00  0.00     0.084 A 
HETATM    5  S1  UNL     1      22.542   4.664  52.024  1.00  0.00    -0.084 SA
ENDROOT
BRANCH   1   6
HETATM    6  C4  UNL     1      22.253   1.996  51.015  1.00  0.00     0.101 C 
BRANCH   6   7
HETATM    7  C3  UNL     1      22.855   0.960  51.903  1.00  0.00    -0.068 C 
HETATM    8  C2  UNL     1      22.072   0.082  52.469  1.00  0.00    -0.073 C 
HETATM    9  C1  UNL     1      20.603   0.139  52.209  1.00  0.00     0.044 C 
HETATM   10  C17 UNL     1      22.703  -0.930  53.344  1.00  0.00     0.032 C 
HETATM   11  C16 UNL     1      23.939  -0.480  53.995  1.00  0.00    -0.022 C 
HETATM   12  C18 UNL     1      21.662  -1.285  54.397  1.00  0.00     0.019 C 
HETATM   13  C15 UNL     1      24.722   0.423  53.430  1.00  0.00    -0.026 C 
HETATM   14  C14 UNL     1      24.313   0.977  52.104  1.00  0.00     0.061 C 
ENDBRANCH   6   7
ENDBRANCH   1   6
BRANCH   3  15
HETATM   15  C7  UNL     1      25.674   5.297  49.723  1.00  0.00    -0.007 A 
HETATM   16  C8  UNL     1      26.662   4.439  49.284  1.00  0.00     0.014 A 
HETATM   17  C9  UNL     1      27.775   4.819  48.570  1.00  0.00     0.001 A 
HETATM   18  C10 UNL     1      27.942   6.151  48.257  1.00  0.00     0.000 A 
HETATM   19  C11 UNL     1      27.011   7.086  48.650  1.00  0.00     0.001 A 
HETATM   20  C12 UNL     1      25.936   6.601  49.358  1.00  0.00     0.014 A 
ENDBRANCH   3  15
TORSDOF 3
ENDMDL
MODEL 5
REMARK VINA RESULT:      -7.9      3.020      5.391
REMARK  3 active torsions:
REMARK  status: ('A' for Active; 'I' for Inactive)
REMARK    1  A    between atoms: C3_3  and  C4_4 
REMARK    2  A    between atoms: C4_4  and  C5_5 
REMARK    3  A    between atoms: C6_7  and  C7_8 
ROOT
HETATM    1  C5  UNL     1      24.615   1.863  52.527  1.00  0.00     0.079 A 
HETATM    2  N1  UNL     1      23.423   1.279  52.802  1.00  0.00    -0.245 NA
HETATM    3  C6  UNL     1      22.552   1.328  51.822  1.00  0.00     0.074 A 
HETATM    4  C13 UNL     1      22.776   1.937  50.533  1.00  0.00     0.084 A 
HETATM    5  S1  UNL     1      24.525   2.510  50.836  1.00  0.00    -0.084 SA
ENDROOT
BRANCH   1   6
HETATM    6  C4  UNL     1      25.821   2.011  53.345  1.00  0.00     0.101 C 
BRANCH   6   7
HETATM    7  C3  UNL     1      26.624   0.761  53.464  1.00  0.00    -0.068 C 
HETATM    8  C2  UNL     1      27.901   0.854  53.727  1.00  0.00    -0.073 C 
HETATM    9  C1  UNL     1      28.514   2.204  53.901  1.00  0.00     0.044 C 
HETATM   10  C17 UNL     1      28.666  -0.406  53.837  1.00  0.00     0.032 C 
HETATM   11  C16 UNL     1      28.133  -1.512  53.031  1.00  0.00    -0.022 C 
HETATM   12  C18 UNL     1      30.085  -0.079  53.392  1.00  0.00     0.019 C 
HETATM   13  C15 UNL     1      26.844  -1.595  52.750  1.00  0.00    -0.026 C 
HETATM   14  C14 UNL     1      25.939  -0.528  53.277  1.00  0.00     0.061 C 
ENDBRANCH   6   7
ENDBRANCH   1   6
BRANCH   3  15
HETATM   15  C7  UNL     1      21.245   0.710  52.065  1.00  0.00    -0.007 A 
HETATM   16  C8  UNL     1      20.936   0.039  53.231  1.00  0.00     0.014 A 
HETATM   17  C9  UNL     1      19.724  -0.554  53.501  1.00  0.00     0.001 A 
HETATM   18  C10 UNL     1      18.726  -0.490  52.552  1.00  0.00     0.000 A 
HETATM   19  C11 UNL     1      18.936   0.158  51.356  1.00  0.00     0.001 A 
HETATM   20  C12 UNL     1      20.181   0.717  51.187  1.00  0.00     0.014 A 
ENDBRANCH   3  15
TORSDOF 3
ENDMDL
MODEL 6
REMARK VINA RESULT:      -7.4      2.472      7.188
REMARK  3 active torsions:
REMARK  status: ('A' for Active; 'I' for Inactive)
REMARK    1  A    between atoms: C3_3  and  C4_4 
REMARK    2  A    between atoms: C4_4  and  C5_5 
REMARK    3  A    between atoms: C6_7  and  C7_8 
ROOT
HETATM    1  C5  UNL     1      24.288   4.686  50.113  1.00  0.00     0.079 A 
HETATM    2  N1  UNL     1      24.393   3.424  50.597  1.00  0.00    -0.245 NA
HETATM    3  C6  UNL     1      23.988   3.279  51.837  1.00  0.00     0.074 A 
HETATM    4  C13 UNL     1      23.463   4.330  52.674  1.00  0.00     0.084 A 
HETATM    5  S1  UNL     1      23.597   5.717  51.434  1.00  0.00    -0.084 SA
ENDROOT
BRANCH   1   6
HETATM    6  C4  UNL     1      24.629   5.240  48.801  1.00  0.00     0.101 C 
BRANCH   6   7
HETATM    7  C3  UNL     1      26.035   5.727  48.701  1.00  0.00    -0.068 C 
HETATM    8  C2  UNL     1      26.255   6.930  48.241  1.00  0.00    -0.073 C 
HETATM    9  C1  UNL     1      25.097   7.779  47.833  1.00  0.00     0.044 C 
HETATM   10  C17 UNL     1      27.661   7.379  48.155  1.00  0.00     0.032 C 
HETATM   11  C16 UNL     1      28.632   6.296  47.951  1.00  0.00    -0.022 C 
HETATM   12  C18 UNL     1      27.722   8.355  46.989  1.00  0.00     0.019 C 
HETATM   13  C15 UNL     1      28.399   5.074  48.401  1.00  0.00    -0.026 C 
HETATM   14  C14 UNL     1      27.117   4.823  49.125  1.00  0.00     0.061 C 
ENDBRANCH   6   7
ENDBRANCH   1   6
BRANCH   3  15
HETATM   15  C7  UNL     1      24.079   1.933  52.411  1.00  0.00    -0.007 A 
HETATM   16  C8  UNL     1      23.010   1.296  53.008  1.00  0.00     0.014 A 
HETATM   17  C9  UNL     1      23.052   0.036  53.558  1.00  0.00     0.001 A 
HETATM   18  C10 UNL     1      24.238  -0.666  53.526  1.00  0.00     0.000 A 
HETATM   19  C11 UNL     1      25.363  -0.116  52.951  1.00  0.00     0.001 A 
HETATM   20  C12 UNL     1      25.213   1.148  52.430  1.00  0.00     0.014 A 
ENDBRANCH   3  15
TORSDOF 3
ENDMDL
MODEL 7
REMARK VINA RESULT:      -7.3      3.289      7.327
REMARK  3 active torsions:
REMARK  status: ('A' for Active; 'I' for Inactive)
REMARK    1  A    between atoms: C3_3  and  C4_4 
REMARK    2  A    between atoms: C4_4  and  C5_5 
REMARK    3  A    between atoms: C6_7  and  C7_8 
ROOT
HETATM    1  C5  UNL     1      22.435   2.405  49.820  1.00  0.00     0.079 A 
HETATM    2  N1  UNL     1      22.785   1.591  50.846  1.00  0.00    -0.245 NA
HETATM    3  C6  UNL     1      21.844   1.406  51.742  1.00  0.00     0.074 A 
HETATM    4  C13 UNL     1      20.524   1.986  51.701  1.00  0.00     0.084 A 
HETATM    5  S1  UNL     1      20.725   2.935  50.108  1.00  0.00    -0.084 SA
ENDROOT
BRANCH   1   6
HETATM    6  C4  UNL     1      23.192   2.848  48.647  1.00  0.00     0.101 C 
BRANCH   6   7
HETATM    7  C3  UNL     1      24.248   3.854  48.958  1.00  0.00    -0.068 C 
HETATM    8  C2  UNL     1      24.037   5.106  48.652  1.00  0.00    -0.073 C 
HETATM    9  C1  UNL     1      22.749   5.491  48.003  1.00  0.00     0.044 C 
HETATM   10  C17 UNL     1      25.106   6.075  48.974  1.00  0.00     0.032 C 
HETATM   11  C16 UNL     1      26.460   5.508  48.969  1.00  0.00    -0.022 C 
HETATM   12  C18 UNL     1      25.003   7.179  47.931  1.00  0.00     0.019 C 
HETATM   13  C15 UNL     1      26.670   4.236  49.261  1.00  0.00    -0.026 C 
HETATM   14  C14 UNL     1      25.488   3.386  49.599  1.00  0.00     0.061 C 
ENDBRANCH   6   7
ENDBRANCH   1   6
BRANCH   3  15
HETATM   15  C7  UNL     1      22.170   0.533  52.875  1.00  0.00    -0.007 A 
HETATM   16  C8  UNL     1      21.226   0.097  53.783  1.00  0.00     0.014 A 
HETATM   17  C9  UNL     1      21.488  -0.720  54.858  1.00  0.00     0.001 A 
HETATM   18  C10 UNL     1      22.781  -1.151  55.068  1.00  0.00     0.000 A 
HETATM   19  C11 UNL     1      23.794  -0.771  54.216  1.00  0.00     0.001 A 
HETATM   20  C12 UNL     1      23.425   0.047  53.174  1.00  0.00     0.014 A 
ENDBRANCH   3  15
TORSDOF 3
ENDMDL
MODEL 8
REMARK VINA RESULT:      -7.2      2.921      4.257
REMARK  3 active torsions:
REMARK  status: ('A' for Active; 'I' for Inactive)
REMARK    1  A    between atoms: C3_3  and  C4_4 
REMARK    2  A    between atoms: C4_4  and  C5_5 
REMARK    3  A    between atoms: C6_7  and  C7_8 
ROOT
HETATM    1  C5  UNL     1      24.715   4.360  49.718  1.00  0.00     0.079 A 
HETATM    2  N1  UNL     1      25.864   4.639  49.055  1.00  0.00    -0.245 NA
HETATM    3  C6  UNL     1      26.275   5.879  49.173  1.00  0.00     0.074 A 
HETATM    4  C13 UNL     1      25.611   6.912  49.929  1.00  0.00     0.084 A 
HETATM    5  S1  UNL     1      24.181   5.884  50.542  1.00  0.00    -0.084 SA
ENDROOT
BRANCH   1   6
HETATM    6  C4  UNL     1      23.951   3.115  49.829  1.00  0.00     0.101 C 
BRANCH   6   7
HETATM    7  C3  UNL     1      24.328   2.281  51.005  1.00  0.00    -0.068 C 
HETATM    8  C2  UNL     1      23.465   1.417  51.470  1.00  0.00    -0.073 C 
HETATM    9  C1  UNL     1      22.132   1.292  50.810  1.00  0.00     0.044 C 
HETATM   10  C17 UNL     1      23.873   0.607  52.637  1.00  0.00     0.032 C 
HETATM   11  C16 UNL     1      24.844   1.265  53.521  1.00  0.00    -0.022 C 
HETATM   12  C18 UNL     1      22.596   0.302  53.407  1.00  0.00     0.019 C 
HETATM   13  C15 UNL     1      25.705   2.152  53.054  1.00  0.00    -0.026 C 
HETATM   14  C14 UNL     1      25.664   2.470  51.594  1.00  0.00     0.061 C 
ENDBRANCH   6   7
ENDBRANCH   1   6
BRANCH   3  15
HETATM   15  C7  UNL     1      27.515   6.236  48.475  1.00  0.00    -0.007 A 
HETATM   16  C8  UNL     1      27.662   7.403  47.754  1.00  0.00     0.014 A 
HETATM   17  C9  UNL     1      28.805   7.776  47.085  1.00  0.00     0.001 A 
HETATM   18  C10 UNL     1      29.900   6.940  47.121  1.00  0.00     0.000 A 
HETATM   19  C11 UNL     1      29.853   5.751  47.814  1.00  0.00     0.001 A 
HETATM   20  C12 UNL     1      28.664   5.473  48.448  1.00  0.00     0.014 A 
ENDBRANCH   3  15
TORSDOF 3
ENDMDL
MODEL 9
REMARK VINA RESULT:      -7.1      4.030      5.810
REMARK  3 active torsions:
REMARK  status: ('A' for Active; 'I' for Inactive)
REMARK    1  A    between atoms: C3_3  and  C4_4 
REMARK    2  A    between atoms: C4_4  and  C5_5 
REMARK    3  A    between atoms: C6_7  and  C7_8 
ROOT
HETATM    1  C5  UNL     1      23.274   2.401  51.219  1.00  0.00     0.079 A 
HETATM    2  N1  UNL     1      24.277   2.922  50.470  1.00  0.00    -0.245 NA
HETATM    3  C6  UNL     1      24.461   4.211  50.626  1.00  0.00     0.074 A 
HETATM    4  C13 UNL     1      23.699   5.066  51.502  1.00  0.00     0.084 A 
HETATM    5  S1  UNL     1      22.555   3.759  52.181  1.00  0.00    -0.084 SA
ENDROOT
BRANCH   1   6
HETATM    6  C4  UNL     1      22.769   1.030  51.325  1.00  0.00     0.101 C 
BRANCH   6   7
HETATM    7  C3  UNL     1      21.282   0.940  51.375  1.00  0.00    -0.068 C 
HETATM    8  C2  UNL     1      20.718   0.390  52.417  1.00  0.00    -0.073 C 
HETATM    9  C1  UNL     1      21.576  -0.128  53.523  1.00  0.00     0.044 C 
HETATM   10  C17 UNL     1      19.241   0.317  52.433  1.00  0.00     0.032 C 
HETATM   11  C16 UNL     1      18.624   0.238  51.103  1.00  0.00    -0.022 C 
HETATM   12  C18 UNL     1      18.889  -0.924  53.241  1.00  0.00     0.019 C 
HETATM   13  C15 UNL     1      19.205   0.779  50.046  1.00  0.00    -0.026 C 
HETATM   14  C14 UNL     1      20.512   1.476  50.241  1.00  0.00     0.061 C 
ENDBRANCH   6   7
ENDBRANCH   1   6
BRANCH   3  15
HETATM   15  C7  UNL     1      25.535   4.827  49.839  1.00  0.00    -0.007 A 
HETATM   16  C8  UNL     1      26.649   4.131  49.414  1.00  0.00     0.014 A 
HETATM   17  C9  UNL     1      27.678   4.669  48.675  1.00  0.00     0.001 A 
HETATM   18  C10 UNL     1      27.618   5.999  48.319  1.00  0.00     0.000 A 
HETATM   19  C11 UNL     1      26.546   6.778  48.695  1.00  0.00     0.001 A 
HETATM   20  C12 UNL     1      25.572   6.144  49.431  1.00  0.00     0.014 A 
ENDBRANCH   3  15
TORSDOF 3
ENDMDL
