MODEL 1
REMARK VINA RESULT:      -9.1      0.000      0.000
REMARK  4 active torsions:
REMARK  status: ('A' for Active; 'I' for Inactive)
REMARK       I    between atoms: C2_2  and  N1_4 
REMARK    1  A    between atoms: N1_4  and  O2_5 
REMARK    2  A    between atoms: O2_5  and  C3_6 
REMARK    3  A    between atoms: C8_13  and  C9_14 
REMARK    4  A    between atoms: C15_20  and  N4_21 
ROOT
HETATM    1  C3  UNL     1      26.324   3.337  49.820  1.00  0.00     0.100 A 
HETATM    2  C4  UNL     1      25.015   3.617  49.404  1.00  0.00     0.041 A 
HETATM    3  C5  UNL     1      23.988   3.000  50.130  1.00  0.00     0.035 A 
HETATM    4  C6  UNL     1      24.275   2.167  51.189  1.00  0.00     0.070 A 
HETATM    5  N2  UNL     1      23.283   1.596  51.861  1.00  0.00    -0.241 NA
HETATM    6  C7  UNL     1      23.584   0.800  52.875  1.00  0.00     0.234 A 
HETATM    7  N3  UNL     1      24.838   0.580  53.211  1.00  0.00    -0.240 NA
HETATM    8  C8  UNL     1      25.933   1.084  52.631  1.00  0.00     0.083 A 
HETATM    9  C16 UNL     1      25.547   1.884  51.606  1.00  0.00     0.025 A 
HETATM   10  C17 UNL     1      26.516   2.502  50.878  1.00  0.00     0.055 A 
ENDROOT
BRANCH   8  11
HETATM   11  C9  UNL     1      27.214   0.746  53.117  1.00  0.00     0.020 A 
HETATM   12  C10 UNL     1      28.276   1.320  53.707  1.00  0.00     0.016 A 
HETATM   13  C11 UNL     1      29.469   0.811  54.117  1.00  0.00     0.002 A 
HETATM   14  C12 UNL     1      29.665  -0.525  53.908  1.00  0.00     0.009 A 
HETATM   15  C13 UNL     1      28.669  -1.249  53.313  1.00  0.00    -0.035 A 
HETATM   16  C14 UNL     1      28.927  -2.679  53.109  1.00  0.00     0.050 C 
HETATM   17  C15 UNL     1      27.509  -0.609  52.947  1.00  0.00     0.044 A 
BRANCH  17  18
HETATM   18  N4  UNL     1      26.599  -1.560  52.339  1.00  0.00    -0.398 N 
HETATM   19  H14 UNL     1      26.078  -2.431  52.498  1.00  0.00     0.156 HD
HETATM   20  H15 UNL     1      26.111  -1.690  51.423  1.00  0.00     0.156 HD
ENDBRANCH  17  18
ENDBRANCH   8  11
BRANCH   1  21
HETATM   21  O2  UNL     1      27.305   3.967  49.075  1.00  0.00    -0.235 OA
BRANCH  21  22
HETATM   22  N1  UNL     1      27.297   5.343  48.867  1.00  0.00    -0.229 N 
HETATM   23  C2  UNL     1      28.532   5.801  48.311  1.00  0.00     0.237 C 
HETATM   24  C1  UNL     1      28.766   7.253  47.998  1.00  0.00     0.119 C 
HETATM   25  O1  UNL     1      29.437   4.954  48.087  1.00  0.00    -0.272 OA
HETATM   26  H4  UNL     1      26.567   6.084  49.041  1.00  0.00     0.198 HD
ENDBRANCH  21  22
ENDBRANCH   1  21
TORSDOF 4
ENDMDL
MODEL 2
REMARK VINA RESULT:      -8.6      1.531      1.883
REMARK  4 active torsions:
REMARK  status: ('A' for Active; 'I' for Inactive)
REMARK       I    between atoms: C2_2  and  N1_4 
REMARK    1  A    between atoms: N1_4  and  O2_5 
REMARK    2  A    between atoms: O2_5  and  C3_6 
REMARK    3  A    between atoms: C8_13  and  C9_14 
REMARK    4  A    between atoms: C15_20  and  N4_21 
ROOT
HETATM    1  C3  UNL     1      24.374   2.520  50.634  1.00  0.00     0.100 A 
HETATM    2  C4  UNL     1      22.995   2.306  50.504  1.00  0.00     0.041 A 
HETATM    3  C5  UNL     1      22.420   1.394  51.398  1.00  0.00     0.035 A 
HETATM    4  C6  UNL     1      23.191   0.754  52.344  1.00  0.00     0.070 A 
HETATM    5  N2  UNL     1      22.621  -0.105  53.181  1.00  0.00    -0.241 NA
HETATM    6  C7  UNL     1      23.383  -0.708  54.081  1.00  0.00     0.234 A 
HETATM    7  N3  UNL     1      24.674  -0.460  54.147  1.00  0.00    -0.240 NA
HETATM    8  C8  UNL     1      25.380   0.376  53.377  1.00  0.00     0.083 A 
HETATM    9  C16 UNL     1      24.538   0.952  52.484  1.00  0.00     0.025 A 
HETATM   10  C17 UNL     1      25.058   1.844  51.599  1.00  0.00     0.055 A 
ENDROOT
BRANCH   8  11
HETATM   11  C9  UNL     1      26.768   0.528  53.580  1.00  0.00     0.020 A 
HETATM   12  C10 UNL     1      27.661   1.470  53.930  1.00  0.00     0.016 A 
HETATM   13  C11 UNL     1      29.012   1.425  54.077  1.00  0.00     0.002 A 
HETATM   14  C12 UNL     1      29.613   0.222  53.834  1.00  0.00     0.009 A 
HETATM   15  C13 UNL     1      28.831  -0.838  53.466  1.00  0.00    -0.035 A 
HETATM   16  C14 UNL     1      29.522  -2.108  53.215  1.00  0.00     0.050 C 
HETATM   17  C15 UNL     1      27.473  -0.657  53.354  1.00  0.00     0.044 A 
BRANCH  17  18
HETATM   18  N4  UNL     1      26.847  -1.902  52.956  1.00  0.00    -0.398 N 
HETATM   19  H14 UNL     1      25.960  -2.331  52.665  1.00  0.00     0.156 HD
HETATM   20  H15 UNL     1      27.126  -2.900  52.813  1.00  0.00     0.156 HD
ENDBRANCH  17  18
ENDBRANCH   8  11
BRANCH   1  21
HETATM   21  O2  UNL     1      24.897   3.428  49.731  1.00  0.00    -0.235 OA
BRANCH  21  22
HETATM   22  N1  UNL     1      26.252   3.455  49.418  1.00  0.00    -0.229 N 
HETATM   23  C2  UNL     1      26.665   4.748  48.968  1.00  0.00     0.237 C 
HETATM   24  C1  UNL     1      28.088   5.027  48.570  1.00  0.00     0.119 C 
HETATM   25  O1  UNL     1      25.803   5.663  48.908  1.00  0.00    -0.272 OA
HETATM   26  H4  UNL     1      27.005   2.717  49.453  1.00  0.00     0.198 HD
ENDBRANCH  21  22
ENDBRANCH   1  21
TORSDOF 4
ENDMDL
MODEL 3
REMARK VINA RESULT:      -8.6      2.588      6.170
REMARK  4 active torsions:
REMARK  status: ('A' for Active; 'I' for Inactive)
REMARK       I    between atoms: C2_2  and  N1_4 
REMARK    1  A    between atoms: N1_4  and  O2_5 
REMARK    2  A    between atoms: O2_5  and  C3_6 
REMARK    3  A    between atoms: C8_13  and  C9_14 
REMARK    4  A    between atoms: C15_20  and  N4_21 
ROOT
HETATM    1  C3  UNL     1      25.719   0.685  53.891  1.00  0.00     0.100 A 
HETATM    2  C4  UNL     1      24.796  -0.242  54.397  1.00  0.00     0.041 A 
HETATM    3  C5  UNL     1      23.583  -0.351  53.706  1.00  0.00     0.035 A 
HETATM    4  C6  UNL     1      23.334   0.422  52.593  1.00  0.00     0.070 A 
HETATM    5  N2  UNL     1      22.176   0.299  51.956  1.00  0.00    -0.241 NA
HETATM    6  C7  UNL     1      21.959   1.053  50.890  1.00  0.00     0.234 A 
HETATM    7  N3  UNL     1      22.871   1.904  50.469  1.00  0.00    -0.240 NA
HETATM    8  C8  UNL     1      24.074   2.134  51.005  1.00  0.00     0.083 A 
HETATM    9  C16 UNL     1      24.223   1.331  52.088  1.00  0.00     0.025 A 
HETATM   10  C17 UNL     1      25.389   1.407  52.785  1.00  0.00     0.055 A 
ENDROOT
BRANCH   8  11
HETATM   11  C9  UNL     1      24.940   3.087  50.428  1.00  0.00     0.020 A 
HETATM   12  C10 UNL     1      26.077   3.148  49.714  1.00  0.00     0.016 A 
HETATM   13  C11 UNL     1      26.786   4.203  49.230  1.00  0.00     0.002 A 
HETATM   14  C12 UNL     1      26.288   5.447  49.497  1.00  0.00     0.009 A 
HETATM   15  C13 UNL     1      25.131   5.548  50.218  1.00  0.00    -0.035 A 
HETATM   16  C14 UNL     1      24.636   6.905  50.480  1.00  0.00     0.050 C 
HETATM   17  C15 UNL     1      24.511   4.399  50.648  1.00  0.00     0.044 A 
BRANCH  17  18
HETATM   18  N4  UNL     1      23.312   4.740  51.388  1.00  0.00    -0.398 N 
HETATM   19  H14 UNL     1      22.556   4.356  51.969  1.00  0.00     0.156 HD
HETATM   20  H15 UNL     1      22.749   5.595  51.603  1.00  0.00     0.156 HD
ENDBRANCH  17  18
ENDBRANCH   8  11
BRANCH   1  21
HETATM   21  O2  UNL     1      26.901   0.758  54.605  1.00  0.00    -0.235 OA
BRANCH  21  22
HETATM   22  N1  UNL     1      27.808  -0.297  54.633  1.00  0.00    -0.229 N 
HETATM   23  C2  UNL     1      28.977  -0.010  53.862  1.00  0.00     0.237 C 
HETATM   24  C1  UNL     1      30.103  -0.999  53.738  1.00  0.00     0.119 C 
HETATM   25  O1  UNL     1      29.048   1.102  53.276  1.00  0.00    -0.272 OA
HETATM   26  H4  UNL     1      27.787  -1.240  55.106  1.00  0.00     0.198 HD
ENDBRANCH  21  22
ENDBRANCH   1  21
TORSDOF 4
ENDMDL
MODEL 4
REMARK VINA RESULT:      -8.2      3.713      6.554
REMARK  4 active torsions:
REMARK  status: ('A' for Active; 'I' for Inactive)
REMARK       I    between atoms: C2_2  and  N1_4 
REMARK    1  A    between atoms: N1_4  and  O2_5 
REMARK    2  A    between atoms: O2_5  and  C3_6 
REMARK    3  A    between atoms: C8_13  and  C9_14 
REMARK    4  A    between atoms: C15_20  and  N4_21 
ROOT
HETATM    1  C3  UNL     1      24.776  -0.558  54.443  1.00  0.00     0.100 A 
HETATM    2  C4  UNL     1      24.053  -1.369  55.328  1.00  0.00     0.041 A 
HETATM    3  C5  UNL     1      22.658  -1.318  55.219  1.00  0.00     0.035 A 
HETATM    4  C6  UNL     1      22.054  -0.506  54.283  1.00  0.00     0.070 A 
HETATM    5  N2  UNL     1      20.729  -0.477  54.199  1.00  0.00    -0.241 NA
HETATM    6  C7  UNL     1      20.172   0.311  53.293  1.00  0.00     0.234 A 
HETATM    7  N3  UNL     1      20.913   1.047  52.491  1.00  0.00    -0.240 NA
HETATM    8  C8  UNL     1      22.248   1.119  52.460  1.00  0.00     0.083 A 
HETATM    9  C16 UNL     1      22.746   0.290  53.412  1.00  0.00     0.025 A 
HETATM   10  C17 UNL     1      24.097   0.212  53.549  1.00  0.00     0.055 A 
ENDROOT
BRANCH   8  11
HETATM   11  C9  UNL     1      22.894   1.964  51.533  1.00  0.00     0.020 A 
HETATM   12  C10 UNL     1      23.796   2.959  51.500  1.00  0.00     0.016 A 
HETATM   13  C11 UNL     1      24.313   3.679  50.469  1.00  0.00     0.002 A 
HETATM   14  C12 UNL     1      23.859   3.365  49.219  1.00  0.00     0.009 A 
HETATM   15  C13 UNL     1      22.934   2.367  49.089  1.00  0.00    -0.035 A 
HETATM   16  C14 UNL     1      22.477   2.067  47.727  1.00  0.00     0.050 C 
HETATM   17  C15 UNL     1      22.493   1.717  50.217  1.00  0.00     0.044 A 
BRANCH  17  18
HETATM   18  N4  UNL     1      21.522   0.705  49.849  1.00  0.00    -0.398 N 
HETATM   19  H14 UNL     1      21.382  -0.304  49.715  1.00  0.00     0.156 HD
HETATM   20  H15 UNL     1      20.517   0.663  49.562  1.00  0.00     0.156 HD
ENDBRANCH  17  18
ENDBRANCH   8  11
BRANCH   1  21
HETATM   21  O2  UNL     1      26.150  -0.642  54.588  1.00  0.00    -0.235 OA
BRANCH  21  22
HETATM   22  N1  UNL     1      26.946   0.493  54.701  1.00  0.00    -0.229 N 
HETATM   23  C2  UNL     1      28.316   0.209  54.407  1.00  0.00     0.237 C 
HETATM   24  C1  UNL     1      29.373   1.278  54.462  1.00  0.00     0.119 C 
HETATM   25  O1  UNL     1      28.629  -0.971  54.098  1.00  0.00    -0.272 OA
HETATM   26  H4  UNL     1      26.727   1.493  54.955  1.00  0.00     0.198 HD
ENDBRANCH  21  22
ENDBRANCH   1  21
TORSDOF 4
ENDMDL
MODEL 5
REMARK VINA RESULT:      -8.2      3.540      4.187
REMARK  4 active torsions:
REMARK  status: ('A' for Active; 'I' for Inactive)
REMARK       I    between atoms: C2_2  and  N1_4 
REMARK    1  A    between atoms: N1_4  and  O2_5 
REMARK    2  A    between atoms: O2_5  and  C3_6 
REMARK    3  A    between atoms: C8_13  and  C9_14 
REMARK    4  A    between atoms: C15_20  and  N4_21 
ROOT
HETATM    1  C3  UNL     1      22.897   1.258  51.149  1.00  0.00     0.100 A 
HETATM    2  C4  UNL     1      21.651   0.646  51.345  1.00  0.00     0.041 A 
HETATM    3  C5  UNL     1      21.537  -0.186  52.466  1.00  0.00     0.035 A 
HETATM    4  C6  UNL     1      22.607  -0.377  53.313  1.00  0.00     0.070 A 
HETATM    5  N2  UNL     1      22.473  -1.170  54.369  1.00  0.00    -0.241 NA
HETATM    6  C7  UNL     1      23.515  -1.338  55.168  1.00  0.00     0.234 A 
HETATM    7  N3  UNL     1      24.658  -0.732  54.924  1.00  0.00    -0.240 NA
HETATM    8  C8  UNL     1      24.938   0.091  53.907  1.00  0.00     0.083 A 
HETATM    9  C16 UNL     1      23.829   0.213  53.135  1.00  0.00     0.025 A 
HETATM   10  C17 UNL     1      23.899   1.014  52.037  1.00  0.00     0.055 A 
ENDROOT
BRANCH   8  11
HETATM   11  C9  UNL     1      26.222   0.662  53.787  1.00  0.00     0.020 A 
HETATM   12  C10 UNL     1      26.820   1.866  53.806  1.00  0.00     0.016 A 
HETATM   13  C11 UNL     1      28.122   2.232  53.668  1.00  0.00     0.002 A 
HETATM   14  C12 UNL     1      29.022   1.222  53.472  1.00  0.00     0.009 A 
HETATM   15  C13 UNL     1      28.563  -0.065  53.429  1.00  0.00    -0.035 A 
HETATM   16  C14 UNL     1      29.566  -1.115  53.215  1.00  0.00     0.050 C 
HETATM   17  C15 UNL     1      27.216  -0.298  53.583  1.00  0.00     0.044 A 
BRANCH  17  18
HETATM   18  N4  UNL     1      26.955  -1.721  53.503  1.00  0.00    -0.398 N 
HETATM   19  H14 UNL     1      26.246  -2.447  53.662  1.00  0.00     0.156 HD
HETATM   20  H15 UNL     1      27.467  -2.589  53.220  1.00  0.00     0.156 HD
ENDBRANCH  17  18
ENDBRANCH   8  11
BRANCH   1  21
HETATM   21  O2  UNL     1      22.961   2.071  50.031  1.00  0.00    -0.235 OA
BRANCH  21  22
HETATM   22  N1  UNL     1      21.837   2.718  49.528  1.00  0.00    -0.229 N 
HETATM   23  C2  UNL     1      21.732   2.573  48.110  1.00  0.00     0.237 C 
HETATM   24  C1  UNL     1      20.599   3.187  47.336  1.00  0.00     0.119 C 
HETATM   25  O1  UNL     1      22.621   1.912  47.510  1.00  0.00    -0.272 OA
HETATM   26  H4  UNL     1      21.074   3.279  49.992  1.00  0.00     0.198 HD
ENDBRANCH  21  22
ENDBRANCH   1  21
TORSDOF 4
ENDMDL
MODEL 6
REMARK VINA RESULT:      -7.9      4.385      8.230
REMARK  4 active torsions:
REMARK  status: ('A' for Active; 'I' for Inactive)
REMARK       I    between atoms: C2_2  and  N1_4 
REMARK    1  A    between atoms: N1_4  and  O2_5 
REMARK    2  A    between atoms: O2_5  and  C3_6 
REMARK    3  A    between atoms: C8_13  and  C9_14 
REMARK    4  A    between atoms: C15_20  and  N4_21 
ROOT
HETATM    1  C3  UNL     1      21.535  -0.371  53.874  1.00  0.00     0.100 A 
HETATM    2  C4  UNL     1      22.152  -1.216  54.807  1.00  0.00     0.041 A 
HETATM    3  C5  UNL     1      23.552  -1.203  54.827  1.00  0.00     0.035 A 
HETATM    4  C6  UNL     1      24.261  -0.395  53.965  1.00  0.00     0.070 A 
HETATM    5  N2  UNL     1      25.589  -0.401  54.005  1.00  0.00    -0.241 NA
HETATM    6  C7  UNL     1      26.248   0.384  53.167  1.00  0.00     0.234 A 
HETATM    7  N3  UNL     1      25.604   1.154  52.315  1.00  0.00    -0.240 NA
HETATM    8  C8  UNL     1      24.280   1.264  52.163  1.00  0.00     0.083 A 
HETATM    9  C16 UNL     1      23.675   0.434  53.049  1.00  0.00     0.025 A 
HETATM   10  C17 UNL     1      22.315   0.394  53.061  1.00  0.00     0.055 A 
ENDROOT
BRANCH   8  11
HETATM   11  C9  UNL     1      23.746   2.142  51.196  1.00  0.00     0.020 A 
HETATM   12  C10 UNL     1      23.164   2.110  49.985  1.00  0.00     0.016 A 
HETATM   13  C11 UNL     1      22.698   3.101  49.178  1.00  0.00     0.002 A 
HETATM   14  C12 UNL     1      22.825   4.378  49.646  1.00  0.00     0.009 A 
HETATM   15  C13 UNL     1      23.400   4.573  50.872  1.00  0.00    -0.035 A 
HETATM   16  C14 UNL     1      23.514   5.962  51.331  1.00  0.00     0.050 C 
HETATM   17  C15 UNL     1      23.829   3.481  51.587  1.00  0.00     0.044 A 
BRANCH  17  18
HETATM   18  N4  UNL     1      24.403   3.917  52.845  1.00  0.00    -0.398 N 
HETATM   19  H14 UNL     1      24.274   3.908  53.864  1.00  0.00     0.156 HD
HETATM   20  H15 UNL     1      25.241   4.450  53.172  1.00  0.00     0.156 HD
ENDBRANCH  17  18
ENDBRANCH   8  11
BRANCH   1  21
HETATM   21  O2  UNL     1      20.153  -0.418  53.892  1.00  0.00    -0.235 OA
BRANCH  21  22
HETATM   22  N1  UNL     1      19.461  -1.598  54.144  1.00  0.00    -0.229 N 
HETATM   23  C2  UNL     1      18.265  -1.688  53.366  1.00  0.00     0.237 C 
HETATM   24  C1  UNL     1      17.347  -2.874  53.465  1.00  0.00     0.119 C 
HETATM   25  O1  UNL     1      17.989  -0.739  52.585  1.00  0.00    -0.272 OA
HETATM   26  H4  UNL     1      19.656  -2.412  54.787  1.00  0.00     0.198 HD
ENDBRANCH  21  22
ENDBRANCH   1  21
TORSDOF 4
ENDMDL
MODEL 7
REMARK VINA RESULT:      -7.8      2.894      3.592
REMARK  4 active torsions:
REMARK  status: ('A' for Active; 'I' for Inactive)
REMARK       I    between atoms: C2_2  and  N1_4 
REMARK    1  A    between atoms: N1_4  and  O2_5 
REMARK    2  A    between atoms: O2_5  and  C3_6 
REMARK    3  A    between atoms: C8_13  and  C9_14 
REMARK    4  A    between atoms: C15_20  and  N4_21 
ROOT
HETATM    1  C3  UNL     1      23.524   1.860  51.230  1.00  0.00     0.100 A 
HETATM    2  C4  UNL     1      22.183   2.114  51.551  1.00  0.00     0.041 A 
HETATM    3  C5  UNL     1      21.666   1.423  52.653  1.00  0.00     0.035 A 
HETATM    4  C6  UNL     1      22.453   0.546  53.367  1.00  0.00     0.070 A 
HETATM    5  N2  UNL     1      21.938  -0.097  54.409  1.00  0.00    -0.241 NA
HETATM    6  C7  UNL     1      22.714  -0.935  55.078  1.00  0.00     0.234 A 
HETATM    7  N3  UNL     1      23.967  -1.127  54.722  1.00  0.00    -0.240 NA
HETATM    8  C8  UNL     1      24.616  -0.553  53.703  1.00  0.00     0.083 A 
HETATM    9  C16 UNL     1      23.762   0.287  53.067  1.00  0.00     0.025 A 
HETATM   10  C17 UNL     1      24.228   0.978  51.991  1.00  0.00     0.055 A 
ENDROOT
BRANCH   8  11
HETATM   11  C9  UNL     1      25.968  -0.869  53.454  1.00  0.00     0.020 A 
HETATM   12  C10 UNL     1      26.710  -1.770  52.787  1.00  0.00     0.016 A 
HETATM   13  C11 UNL     1      28.056  -1.918  52.660  1.00  0.00     0.002 A 
HETATM   14  C12 UNL     1      28.835  -1.005  53.314  1.00  0.00     0.009 A 
HETATM   15  C13 UNL     1      28.222  -0.021  54.039  1.00  0.00    -0.035 A 
HETATM   16  C14 UNL     1      29.100   0.934  54.724  1.00  0.00     0.050 C 
HETATM   17  C15 UNL     1      26.848   0.015  54.085  1.00  0.00     0.044 A 
BRANCH  17  18
HETATM   18  N4  UNL     1      26.417   1.130  54.904  1.00  0.00    -0.398 N 
HETATM   19  H14 UNL     1      26.244   2.143  54.905  1.00  0.00     0.156 HD
HETATM   20  H15 UNL     1      26.099   1.294  55.887  1.00  0.00     0.156 HD
ENDBRANCH  17  18
ENDBRANCH   8  11
BRANCH   1  21
HETATM   21  O2  UNL     1      23.990   2.566  50.135  1.00  0.00    -0.235 OA
BRANCH  21  22
HETATM   22  N1  UNL     1      23.132   3.043  49.150  1.00  0.00    -0.229 N 
HETATM   23  C2  UNL     1      23.460   4.381  48.766  1.00  0.00     0.237 C 
HETATM   24  C1  UNL     1      22.674   5.115  47.715  1.00  0.00     0.119 C 
HETATM   25  O1  UNL     1      24.434   4.943  49.333  1.00  0.00    -0.272 OA
HETATM   26  H4  UNL     1      22.310   2.609  48.652  1.00  0.00     0.198 HD
ENDBRANCH  21  22
ENDBRANCH   1  21
TORSDOF 4
ENDMDL
MODEL 8
REMARK VINA RESULT:      -7.7      4.071      7.189
REMARK  4 active torsions:
REMARK  status: ('A' for Active; 'I' for Inactive)
REMARK       I    between atoms: C2_2  and  N1_4 
REMARK    1  A    between atoms: N1_4  and  O2_5 
REMARK    2  A    between atoms: O2_5  and  C3_6 
REMARK    3  A    between atoms: C8_13  and  C9_14 
REMARK    4  A    between atoms: C15_20  and  N4_21 
ROOT
HETATM    1  C3  UNL     1      23.553  -0.428  53.786  1.00  0.00     0.100 A 
HETATM    2  C4  UNL     1      22.916  -1.217  54.754  1.00  0.00     0.041 A 
HETATM    3  C5  UNL     1      21.526  -1.343  54.637  1.00  0.00     0.035 A 
HETATM    4  C6  UNL     1      20.846  -0.714  53.617  1.00  0.00     0.070 A 
HETATM    5  N2  UNL     1      19.528  -0.850  53.528  1.00  0.00    -0.241 NA
HETATM    6  C7  UNL     1      18.896  -0.236  52.539  1.00  0.00     0.234 A 
HETATM    7  N3  UNL     1      19.558   0.491  51.664  1.00  0.00    -0.240 NA
HETATM    8  C8  UNL     1      20.876   0.715  51.628  1.00  0.00     0.083 A 
HETATM    9  C16 UNL     1      21.452   0.059  52.665  1.00  0.00     0.025 A 
HETATM   10  C17 UNL     1      22.801   0.156  52.812  1.00  0.00     0.055 A 
ENDROOT
BRANCH   8  11
HETATM   11  C9  UNL     1      21.432   1.525  50.615  1.00  0.00     0.020 A 
HETATM   12  C10 UNL     1      22.068   1.410  49.436  1.00  0.00     0.016 A 
HETATM   13  C11 UNL     1      22.545   2.343  48.570  1.00  0.00     0.002 A 
HETATM   14  C12 UNL     1      22.367   3.651  48.924  1.00  0.00     0.009 A 
HETATM   15  C13 UNL     1      21.732   3.930  50.103  1.00  0.00    -0.035 A 
HETATM   16  C14 UNL     1      21.565   5.349  50.439  1.00  0.00     0.050 C 
HETATM   17  C15 UNL     1      21.297   2.889  50.888  1.00  0.00     0.044 A 
BRANCH  17  18
HETATM   18  N4  UNL     1      20.658   3.411  52.080  1.00  0.00    -0.398 N 
HETATM   19  H14 UNL     1      20.338   3.169  53.025  1.00  0.00     0.156 HD
HETATM   20  H15 UNL     1      20.264   4.321  52.413  1.00  0.00     0.156 HD
ENDBRANCH  17  18
ENDBRANCH   8  11
BRANCH   1  21
HETATM   21  O2  UNL     1      24.924  -0.334  53.942  1.00  0.00    -0.235 OA
BRANCH  21  22
HETATM   22  N1  UNL     1      25.696   0.512  53.151  1.00  0.00    -0.229 N 
HETATM   23  C2  UNL     1      26.688   1.196  53.921  1.00  0.00     0.237 C 
HETATM   24  C1  UNL     1      27.646   2.167  53.288  1.00  0.00     0.119 C 
HETATM   25  O1  UNL     1      26.746   0.969  55.159  1.00  0.00    -0.272 OA
HETATM   26  H4  UNL     1      25.681   0.731  52.119  1.00  0.00     0.198 HD
ENDBRANCH  21  22
ENDBRANCH   1  21
TORSDOF 4
ENDMDL
MODEL 9
REMARK VINA RESULT:      -7.5      3.739      8.189
REMARK  4 active torsions:
REMARK  status: ('A' for Active; 'I' for Inactive)
REMARK       I    between atoms: C2_2  and  N1_4 
REMARK    1  A    between atoms: N1_4  and  O2_5 
REMARK    2  A    between atoms: O2_5  and  C3_6 
REMARK    3  A    between atoms: C8_13  and  C9_14 
REMARK    4  A    between atoms: C15_20  and  N4_21 
ROOT
HETATM    1  C3  UNL     1      28.038   5.168  48.540  1.00  0.00     0.100 A 
HETATM    2  C4  UNL     1      27.114   6.221  48.498  1.00  0.00     0.041 A 
HETATM    3  C5  UNL     1      27.577   7.433  47.972  1.00  0.00     0.035 A 
HETATM    4  C6  UNL     1      28.876   7.559  47.529  1.00  0.00     0.070 A 
HETATM    5  N2  UNL     1      29.289   8.719  47.034  1.00  0.00    -0.241 NA
HETATM    6  C7  UNL     1      30.541   8.815  46.614  1.00  0.00     0.234 A 
HETATM    7  N3  UNL     1      31.358   7.785  46.684  1.00  0.00    -0.240 NA
HETATM    8  C8  UNL     1      31.082   6.563  47.153  1.00  0.00     0.083 A 
HETATM    9  C16 UNL     1      29.789   6.541  47.563  1.00  0.00     0.025 A 
HETATM   10  C17 UNL     1      29.302   5.380  48.079  1.00  0.00     0.055 A 
ENDROOT
BRANCH   8  11
HETATM   11  C9  UNL     1      32.076   5.562  47.157  1.00  0.00     0.020 A 
HETATM   12  C10 UNL     1      32.345   4.374  46.590  1.00  0.00     0.016 A 
HETATM   13  C11 UNL     1      33.398   3.524  46.724  1.00  0.00     0.002 A 
HETATM   14  C12 UNL     1      34.387   3.910  47.585  1.00  0.00     0.009 A 
HETATM   15  C13 UNL     1      34.256   5.102  48.241  1.00  0.00    -0.035 A 
HETATM   16  C14 UNL     1      35.343   5.472  49.154  1.00  0.00     0.050 C 
HETATM   17  C15 UNL     1      33.138   5.868  48.013  1.00  0.00     0.044 A 
BRANCH  17  18
HETATM   18  N4  UNL     1      33.207   7.079  48.808  1.00  0.00    -0.398 N 
HETATM   19  H14 UNL     1      32.879   7.526  49.672  1.00  0.00     0.156 HD
HETATM   20  H15 UNL     1      33.672   8.015  48.757  1.00  0.00     0.156 HD
ENDBRANCH  17  18
ENDBRANCH   8  11
BRANCH   1  21
HETATM   21  O2  UNL     1      27.536   3.991  49.066  1.00  0.00    -0.235 OA
BRANCH  21  22
HETATM   22  N1  UNL     1      26.212   3.876  49.475  1.00  0.00    -0.229 N 
HETATM   23  C2  UNL     1      26.101   3.183  50.720  1.00  0.00     0.237 C 
HETATM   24  C1  UNL     1      24.767   2.933  51.368  1.00  0.00     0.119 C 
HETATM   25  O1  UNL     1      27.157   2.775  51.273  1.00  0.00    -0.272 OA
HETATM   26  H4  UNL     1      25.304   4.200  49.045  1.00  0.00     0.198 HD
ENDBRANCH  21  22
ENDBRANCH   1  21
TORSDOF 4
ENDMDL
