MODEL 1
REMARK VINA RESULT:      -7.5      0.000      0.000
REMARK  7 active torsions:
REMARK  status: ('A' for Active; 'I' for Inactive)
REMARK    1  A    between atoms: C1_2  and  C2_3 
REMARK    2  A    between atoms: C1_2  and  C10_12 
REMARK    3  A    between atoms: C2_3  and  C3_4 
REMARK    4  A    between atoms: C3_4  and  C4_5 
REMARK    5  A    between atoms: C7_8  and  O2_9 
REMARK    6  A    between atoms: C11_13  and  O3_14 
REMARK    7  A    between atoms: O3_14  and  O4_15 
ROOT
HETATM    1  O1  UNL     1      25.610  -0.872  55.103  1.00  0.00    -0.293 OA
HETATM    2  C1  UNL     1      25.928  -0.184  54.075  1.00  0.00     0.160 C 
ENDROOT
BRANCH   2   3
HETATM    3  C2  UNL     1      24.725   0.647  53.894  1.00  0.00     0.088 C 
BRANCH   3   4
HETATM    4  C3  UNL     1      23.971   0.143  52.686  1.00  0.00     0.046 C 
BRANCH   4   5
HETATM    5  C4  UNL     1      22.575  -0.232  53.021  1.00  0.00    -0.058 A 
HETATM    6  C5  UNL     1      21.520   0.357  52.333  1.00  0.00     0.010 A 
HETATM    7  C6  UNL     1      20.201   0.058  52.589  1.00  0.00     0.037 A 
HETATM    8  C7  UNL     1      19.946  -0.875  53.583  1.00  0.00     0.065 A 
HETATM    9  C8  UNL     1      20.943  -1.501  54.308  1.00  0.00     0.037 A 
HETATM   10  C9  UNL     1      22.256  -1.143  53.988  1.00  0.00     0.010 A 
BRANCH   8  11
HETATM   11  O2  UNL     1      18.622  -1.206  53.874  1.00  0.00    -0.361 OA
HETATM   12  H7  UNL     1      17.896  -1.091  53.179  1.00  0.00     0.217 HD
ENDBRANCH   8  11
ENDBRANCH   4   5
ENDBRANCH   3   4
ENDBRANCH   2   3
BRANCH   2  13
HETATM   13  C10 UNL     1      27.239  -0.447  53.511  1.00  0.00     0.050 C 
HETATM   14  C11 UNL     1      28.119   0.475  53.858  1.00  0.00     0.119 C 
HETATM   15  C12 UNL     1      29.583   0.738  53.597  1.00  0.00     0.238 C 
HETATM   16  O5  UNL     1      30.119  -0.441  53.059  1.00  0.00    -0.356 OA
HETATM   17  C13 UNL     1      29.746  -1.452  53.944  1.00  0.00     0.438 C 
HETATM   18  N1  UNL     1      28.721  -2.306  53.396  1.00  0.00     0.110 N 
HETATM   19  C14 UNL     1      27.736  -1.522  52.655  1.00  0.00     0.317 C 
HETATM   20  H15 UNL     1      28.194  -2.725  54.214  1.00  0.00     0.319 HD
BRANCH  14  21
HETATM   21  O3  UNL     1      27.768   1.543  54.669  1.00  0.00    -0.202 OA
BRANCH  21  22
HETATM   22  O4  UNL     1      27.940   2.773  54.162  1.00  0.00    -0.245 OA
HETATM   23  H10 UNL     1      28.189   2.756  53.208  1.00  0.00     0.254 HD
ENDBRANCH  21  22
ENDBRANCH  14  21
ENDBRANCH   2  13
TORSDOF 7
ENDMDL
MODEL 2
REMARK VINA RESULT:      -7.4      2.392      3.292
REMARK  7 active torsions:
REMARK  status: ('A' for Active; 'I' for Inactive)
REMARK    1  A    between atoms: C1_2  and  C2_3 
REMARK    2  A    between atoms: C1_2  and  C10_12 
REMARK    3  A    between atoms: C2_3  and  C3_4 
REMARK    4  A    between atoms: C3_4  and  C4_5 
REMARK    5  A    between atoms: C7_8  and  O2_9 
REMARK    6  A    between atoms: C11_13  and  O3_14 
REMARK    7  A    between atoms: O3_14  and  O4_15 
ROOT
HETATM    1  O1  UNL     1      25.456  -1.026  55.151  1.00  0.00    -0.293 OA
HETATM    2  C1  UNL     1      25.650  -0.429  54.039  1.00  0.00     0.160 C 
ENDROOT
BRANCH   2   3
HETATM    3  C2  UNL     1      24.315   0.130  53.769  1.00  0.00     0.088 C 
BRANCH   3   4
HETATM    4  C3  UNL     1      24.273   0.602  52.334  1.00  0.00     0.046 C 
BRANCH   4   5
HETATM    5  C4  UNL     1      23.717   1.973  52.218  1.00  0.00    -0.058 A 
HETATM    6  C5  UNL     1      24.193   2.981  53.051  1.00  0.00     0.010 A 
HETATM    7  C6  UNL     1      23.725   4.275  53.000  1.00  0.00     0.037 A 
HETATM    8  C7  UNL     1      22.736   4.553  52.068  1.00  0.00     0.065 A 
HETATM    9  C8  UNL     1      22.216   3.604  51.209  1.00  0.00     0.037 A 
HETATM   10  C9  UNL     1      22.743   2.314  51.323  1.00  0.00     0.010 A 
BRANCH   8  11
HETATM   11  O2  UNL     1      22.235   5.853  51.985  1.00  0.00    -0.361 OA
HETATM   12  H7  UNL     1      21.347   6.092  52.405  1.00  0.00     0.217 HD
ENDBRANCH   8  11
ENDBRANCH   4   5
ENDBRANCH   3   4
ENDBRANCH   2   3
BRANCH   2  13
HETATM   13  C10 UNL     1      26.993  -0.512  53.495  1.00  0.00     0.050 C 
HETATM   14  C11 UNL     1      27.717   0.549  53.806  1.00  0.00     0.119 C 
HETATM   15  C12 UNL     1      29.127   1.022  53.543  1.00  0.00     0.238 C 
HETATM   16  O5  UNL     1      29.844  -0.083  53.062  1.00  0.00    -0.356 OA
HETATM   17  C13 UNL     1      29.619  -1.100  53.989  1.00  0.00     0.438 C 
HETATM   18  N1  UNL     1      28.745  -2.125  53.474  1.00  0.00     0.110 N 
HETATM   19  C14 UNL     1      27.661  -1.534  52.691  1.00  0.00     0.317 C 
HETATM   20  H15 UNL     1      28.277  -2.583  54.306  1.00  0.00     0.319 HD
BRANCH  14  21
HETATM   21  O3  UNL     1      27.195   1.584  54.566  1.00  0.00    -0.202 OA
BRANCH  21  22
HETATM   22  O4  UNL     1      27.518   2.832  54.196  1.00  0.00    -0.245 OA
HETATM   23  H10 UNL     1      26.726   3.411  54.089  1.00  0.00     0.254 HD
ENDBRANCH  21  22
ENDBRANCH  14  21
ENDBRANCH   2  13
TORSDOF 7
ENDMDL
MODEL 3
REMARK VINA RESULT:      -7.3      1.874      2.507
REMARK  7 active torsions:
REMARK  status: ('A' for Active; 'I' for Inactive)
REMARK    1  A    between atoms: C1_2  and  C2_3 
REMARK    2  A    between atoms: C1_2  and  C10_12 
REMARK    3  A    between atoms: C2_3  and  C3_4 
REMARK    4  A    between atoms: C3_4  and  C4_5 
REMARK    5  A    between atoms: C7_8  and  O2_9 
REMARK    6  A    between atoms: C11_13  and  O3_14 
REMARK    7  A    between atoms: O3_14  and  O4_15 
ROOT
HETATM    1  O1  UNL     1      25.500  -0.884  55.245  1.00  0.00    -0.293 OA
HETATM    2  C1  UNL     1      25.620  -0.508  54.030  1.00  0.00     0.160 C 
ENDROOT
BRANCH   2   3
HETATM    3  C2  UNL     1      24.228  -0.174  53.687  1.00  0.00     0.088 C 
BRANCH   3   4
HETATM    4  C3  UNL     1      24.213   1.170  52.996  1.00  0.00     0.046 C 
BRANCH   4   5
HETATM    5  C4  UNL     1      23.242   1.204  51.874  1.00  0.00    -0.058 A 
HETATM    6  C5  UNL     1      22.099   0.413  51.928  1.00  0.00     0.010 A 
HETATM    7  C6  UNL     1      21.156   0.393  50.926  1.00  0.00     0.037 A 
HETATM    8  C7  UNL     1      21.383   1.209  49.828  1.00  0.00     0.065 A 
HETATM    9  C8  UNL     1      22.495   2.021  49.705  1.00  0.00     0.037 A 
HETATM   10  C9  UNL     1      23.406   1.984  50.764  1.00  0.00     0.010 A 
BRANCH   8  11
HETATM   11  O2  UNL     1      20.450   1.217  48.790  1.00  0.00    -0.361 OA
HETATM   12  H7  UNL     1      19.835   2.008  48.655  1.00  0.00     0.217 HD
ENDBRANCH   8  11
ENDBRANCH   4   5
ENDBRANCH   3   4
ENDBRANCH   2   3
BRANCH   2  13
HETATM   13  C10 UNL     1      26.963  -0.544  53.480  1.00  0.00     0.050 C 
HETATM   14  C11 UNL     1      27.646   0.548  53.775  1.00  0.00     0.119 C 
HETATM   15  C12 UNL     1      29.034   1.074  53.498  1.00  0.00     0.238 C 
HETATM   16  O5  UNL     1      29.792  -0.007  53.026  1.00  0.00    -0.356 OA
HETATM   17  C13 UNL     1      29.612  -1.021  53.966  1.00  0.00     0.438 C 
HETATM   18  N1  UNL     1      28.777  -2.086  53.469  1.00  0.00     0.110 N 
HETATM   19  C14 UNL     1      27.666  -1.549  52.685  1.00  0.00     0.317 C 
HETATM   20  H15 UNL     1      28.332  -2.553  54.309  1.00  0.00     0.319 HD
BRANCH  14  21
HETATM   21  O3  UNL     1      27.087   1.572  54.524  1.00  0.00    -0.202 OA
BRANCH  21  22
HETATM   22  O4  UNL     1      27.439   2.825  54.201  1.00  0.00    -0.245 OA
HETATM   23  H10 UNL     1      28.403   2.908  54.010  1.00  0.00     0.254 HD
ENDBRANCH  21  22
ENDBRANCH  14  21
ENDBRANCH   2  13
TORSDOF 7
ENDMDL
MODEL 4
REMARK VINA RESULT:      -7.3      5.100      7.089
REMARK  7 active torsions:
REMARK  status: ('A' for Active; 'I' for Inactive)
REMARK    1  A    between atoms: C1_2  and  C2_3 
REMARK    2  A    between atoms: C1_2  and  C10_12 
REMARK    3  A    between atoms: C2_3  and  C3_4 
REMARK    4  A    between atoms: C3_4  and  C4_5 
REMARK    5  A    between atoms: C7_8  and  O2_9 
REMARK    6  A    between atoms: C11_13  and  O3_14 
REMARK    7  A    between atoms: O3_14  and  O4_15 
ROOT
HETATM    1  O1  UNL     1      25.275   2.908  51.751  1.00  0.00    -0.293 OA
HETATM    2  C1  UNL     1      26.177   2.095  51.356  1.00  0.00     0.160 C 
ENDROOT
BRANCH   2   3
HETATM    3  C2  UNL     1      26.480   2.621  50.014  1.00  0.00     0.088 C 
BRANCH   3   4
HETATM    4  C3  UNL     1      25.601   3.822  49.759  1.00  0.00     0.046 C 
BRANCH   4   5
HETATM    5  C4  UNL     1      26.349   4.928  49.111  1.00  0.00    -0.058 A 
HETATM    6  C5  UNL     1      27.692   4.757  48.794  1.00  0.00     0.010 A 
HETATM    7  C6  UNL     1      28.448   5.737  48.192  1.00  0.00     0.037 A 
HETATM    8  C7  UNL     1      27.814   6.936  47.902  1.00  0.00     0.065 A 
HETATM    9  C8  UNL     1      26.484   7.178  48.189  1.00  0.00     0.037 A 
HETATM   10  C9  UNL     1      25.784   6.133  48.800  1.00  0.00     0.010 A 
BRANCH   8  11
HETATM   11  O2  UNL     1      28.546   7.956  47.293  1.00  0.00    -0.361 OA
HETATM   12  H7  UNL     1      29.273   7.740  46.623  1.00  0.00     0.217 HD
ENDBRANCH   8  11
ENDBRANCH   4   5
ENDBRANCH   3   4
ENDBRANCH   2   3
BRANCH   2  13
HETATM   13  C10 UNL     1      26.542   1.044  52.288  1.00  0.00     0.050 C 
HETATM   14  C11 UNL     1      27.681   1.304  52.904  1.00  0.00     0.119 C 
HETATM   15  C12 UNL     1      28.542   0.621  53.940  1.00  0.00     0.238 C 
HETATM   16  O5  UNL     1      27.763  -0.396  54.510  1.00  0.00    -0.356 OA
HETATM   17  C13 UNL     1      26.575   0.223  54.897  1.00  0.00     0.438 C 
HETATM   18  N1  UNL     1      25.467  -0.142  54.051  1.00  0.00     0.110 N 
HETATM   19  C14 UNL     1      25.885  -0.211  52.652  1.00  0.00     0.317 C 
HETATM   20  H15 UNL     1      24.763   0.648  54.098  1.00  0.00     0.319 HD
BRANCH  14  21
HETATM   21  O3  UNL     1      28.396   2.463  52.644  1.00  0.00    -0.202 OA
BRANCH  21  22
HETATM   22  O4  UNL     1      29.402   2.758  53.481  1.00  0.00    -0.245 OA
HETATM   23  H10 UNL     1      29.082   3.018  54.378  1.00  0.00     0.254 HD
ENDBRANCH  21  22
ENDBRANCH  14  21
ENDBRANCH   2  13
TORSDOF 7
ENDMDL
MODEL 5
REMARK VINA RESULT:      -7.2      1.826      2.602
REMARK  7 active torsions:
REMARK  status: ('A' for Active; 'I' for Inactive)
REMARK    1  A    between atoms: C1_2  and  C2_3 
REMARK    2  A    between atoms: C1_2  and  C10_12 
REMARK    3  A    between atoms: C2_3  and  C3_4 
REMARK    4  A    between atoms: C3_4  and  C4_5 
REMARK    5  A    between atoms: C7_8  and  O2_9 
REMARK    6  A    between atoms: C11_13  and  O3_14 
REMARK    7  A    between atoms: O3_14  and  O4_15 
ROOT
HETATM    1  O1  UNL     1      24.664   2.953  53.448  1.00  0.00    -0.293 OA
HETATM    2  C1  UNL     1      24.385   1.796  52.985  1.00  0.00     0.160 C 
ENDROOT
BRANCH   2   3
HETATM    3  C2  UNL     1      23.152   2.072  52.228  1.00  0.00     0.088 C 
BRANCH   3   4
HETATM    4  C3  UNL     1      22.700   0.793  51.564  1.00  0.00     0.046 C 
BRANCH   4   5
HETATM    5  C4  UNL     1      21.450   0.268  52.169  1.00  0.00    -0.058 A 
HETATM    6  C5  UNL     1      21.513  -0.478  53.341  1.00  0.00     0.010 A 
HETATM    7  C6  UNL     1      20.396  -0.997  53.957  1.00  0.00     0.037 A 
HETATM    8  C7  UNL     1      19.170  -0.747  53.359  1.00  0.00     0.065 A 
HETATM    9  C8  UNL     1      19.031  -0.015  52.195  1.00  0.00     0.037 A 
HETATM   10  C9  UNL     1      20.212   0.477  51.630  1.00  0.00     0.010 A 
BRANCH   8  11
HETATM   11  O2  UNL     1      18.015  -1.255  53.953  1.00  0.00    -0.361 OA
HETATM   12  H7  UNL     1      17.104  -1.071  53.552  1.00  0.00     0.217 HD
ENDBRANCH   8  11
ENDBRANCH   4   5
ENDBRANCH   3   4
ENDBRANCH   2   3
BRANCH   2  13
HETATM   13  C10 UNL     1      25.300   0.728  53.341  1.00  0.00     0.050 C 
HETATM   14  C11 UNL     1      26.435   0.806  52.668  1.00  0.00     0.119 C 
HETATM   15  C12 UNL     1      27.720   0.017  52.604  1.00  0.00     0.238 C 
HETATM   16  O5  UNL     1      27.735  -0.831  53.721  1.00  0.00    -0.356 OA
HETATM   17  C13 UNL     1      27.486  -0.003  54.814  1.00  0.00     0.438 C 
HETATM   18  N1  UNL     1      26.165  -0.197  55.358  1.00  0.00     0.110 N 
HETATM   19  C14 UNL     1      25.187  -0.381  54.287  1.00  0.00     0.317 C 
HETATM   20  H15 UNL     1      25.890   0.705  55.841  1.00  0.00     0.319 HD
BRANCH  14  21
HETATM   21  O3  UNL     1      26.661   1.814  51.744  1.00  0.00    -0.202 OA
BRANCH  21  22
HETATM   22  O4  UNL     1      27.539   2.768  52.087  1.00  0.00    -0.245 OA
HETATM   23  H10 UNL     1      27.596   3.488  51.415  1.00  0.00     0.254 HD
ENDBRANCH  21  22
ENDBRANCH  14  21
ENDBRANCH   2  13
TORSDOF 7
ENDMDL
MODEL 6
REMARK VINA RESULT:      -7.1      2.210      3.072
REMARK  7 active torsions:
REMARK  status: ('A' for Active; 'I' for Inactive)
REMARK    1  A    between atoms: C1_2  and  C2_3 
REMARK    2  A    between atoms: C1_2  and  C10_12 
REMARK    3  A    between atoms: C2_3  and  C3_4 
REMARK    4  A    between atoms: C3_4  and  C4_5 
REMARK    5  A    between atoms: C7_8  and  O2_9 
REMARK    6  A    between atoms: C11_13  and  O3_14 
REMARK    7  A    between atoms: O3_14  and  O4_15 
ROOT
HETATM    1  O1  UNL     1      26.816   2.277  50.712  1.00  0.00    -0.293 OA
HETATM    2  C1  UNL     1      26.249   1.776  51.742  1.00  0.00     0.160 C 
ENDROOT
BRANCH   2   3
HETATM    3  C2  UNL     1      24.836   1.773  51.327  1.00  0.00     0.088 C 
BRANCH   3   4
HETATM    4  C3  UNL     1      24.001   2.314  52.464  1.00  0.00     0.046 C 
BRANCH   4   5
HETATM    5  C4  UNL     1      23.125   1.270  53.053  1.00  0.00    -0.058 A 
HETATM    6  C5  UNL     1      23.695   0.159  53.665  1.00  0.00     0.010 A 
HETATM    7  C6  UNL     1      22.947  -0.848  54.232  1.00  0.00     0.037 A 
HETATM    8  C7  UNL     1      21.567  -0.719  54.174  1.00  0.00     0.065 A 
HETATM    9  C8  UNL     1      20.931   0.356  53.582  1.00  0.00     0.037 A 
HETATM   10  C9  UNL     1      21.761   1.336  53.029  1.00  0.00     0.010 A 
BRANCH   8  11
HETATM   11  O2  UNL     1      20.772  -1.719  54.737  1.00  0.00    -0.361 OA
HETATM   12  H7  UNL     1      20.297  -1.567  55.616  1.00  0.00     0.217 HD
ENDBRANCH   8  11
ENDBRANCH   4   5
ENDBRANCH   3   4
ENDBRANCH   2   3
BRANCH   2  13
HETATM   13  C10 UNL     1      27.124   1.425  52.845  1.00  0.00     0.050 C 
HETATM   14  C11 UNL     1      27.309   0.120  52.931  1.00  0.00     0.119 C 
HETATM   15  C12 UNL     1      28.082  -0.815  53.831  1.00  0.00     0.238 C 
HETATM   16  O5  UNL     1      28.981  -0.025  54.564  1.00  0.00    -0.356 OA
HETATM   17  C13 UNL     1      29.658   0.738  53.614  1.00  0.00     0.438 C 
HETATM   18  N1  UNL     1      29.258   2.123  53.638  1.00  0.00     0.110 N 
HETATM   19  C14 UNL     1      27.815   2.241  53.842  1.00  0.00     0.317 C 
HETATM   20  H15 UNL     1      29.442   2.519  52.673  1.00  0.00     0.319 HD
BRANCH  14  21
HETATM   21  O3  UNL     1      26.708  -0.757  52.042  1.00  0.00    -0.202 OA
BRANCH  21  22
HETATM   22  O4  UNL     1      26.830  -2.067  52.303  1.00  0.00    -0.245 OA
HETATM   23  H10 UNL     1      25.956  -2.523  52.363  1.00  0.00     0.254 HD
ENDBRANCH  21  22
ENDBRANCH  14  21
ENDBRANCH   2  13
TORSDOF 7
ENDMDL
MODEL 7
REMARK VINA RESULT:      -7.0      1.904      2.493
REMARK  7 active torsions:
REMARK  status: ('A' for Active; 'I' for Inactive)
REMARK    1  A    between atoms: C1_2  and  C2_3 
REMARK    2  A    between atoms: C1_2  and  C10_12 
REMARK    3  A    between atoms: C2_3  and  C3_4 
REMARK    4  A    between atoms: C3_4  and  C4_5 
REMARK    5  A    between atoms: C7_8  and  O2_9 
REMARK    6  A    between atoms: C11_13  and  O3_14 
REMARK    7  A    between atoms: O3_14  and  O4_15 
ROOT
HETATM    1  O1  UNL     1      26.384   1.894  50.596  1.00  0.00    -0.293 OA
HETATM    2  C1  UNL     1      25.925   1.648  51.762  1.00  0.00     0.160 C 
ENDROOT
BRANCH   2   3
HETATM    3  C2  UNL     1      24.721   2.497  51.789  1.00  0.00     0.088 C 
BRANCH   3   4
HETATM    4  C3  UNL     1      23.670   1.868  50.905  1.00  0.00     0.046 C 
BRANCH   4   5
HETATM    5  C4  UNL     1      22.617   1.184  51.696  1.00  0.00    -0.058 A 
HETATM    6  C5  UNL     1      22.851   0.878  53.033  1.00  0.00     0.010 A 
HETATM    7  C6  UNL     1      21.922   0.246  53.828  1.00  0.00     0.037 A 
HETATM    8  C7  UNL     1      20.710  -0.087  53.241  1.00  0.00     0.065 A 
HETATM    9  C8  UNL     1      20.408   0.185  51.920  1.00  0.00     0.037 A 
HETATM   10  C9  UNL     1      21.404   0.829  51.179  1.00  0.00     0.010 A 
BRANCH   8  11
HETATM   11  O2  UNL     1      19.741  -0.730  54.013  1.00  0.00    -0.361 OA
HETATM   12  H7  UNL     1      19.130  -1.423  53.603  1.00  0.00     0.217 HD
ENDBRANCH   8  11
ENDBRANCH   4   5
ENDBRANCH   3   4
ENDBRANCH   2   3
BRANCH   2  13
HETATM   13  C10 UNL     1      26.687   0.709  52.564  1.00  0.00     0.050 C 
HETATM   14  C11 UNL     1      27.809   1.241  53.014  1.00  0.00     0.119 C 
HETATM   15  C12 UNL     1      28.969   0.782  53.864  1.00  0.00     0.238 C 
HETATM   16  O5  UNL     1      28.573  -0.412  54.485  1.00  0.00    -0.356 OA
HETATM   17  C13 UNL     1      27.347  -0.125  55.084  1.00  0.00     0.438 C 
HETATM   18  N1  UNL     1      26.242  -0.746  54.396  1.00  0.00     0.110 N 
HETATM   19  C14 UNL     1      26.432  -0.679  52.948  1.00  0.00     0.317 C 
HETATM   20  H15 UNL     1      25.381  -0.163  54.597  1.00  0.00     0.319 HD
BRANCH  14  21
HETATM   21  O3  UNL     1      28.160   2.549  52.718  1.00  0.00    -0.202 OA
BRANCH  21  22
HETATM   22  O4  UNL     1      29.383   2.950  53.092  1.00  0.00    -0.245 OA
HETATM   23  H10 UNL     1      30.073   2.735  52.420  1.00  0.00     0.254 HD
ENDBRANCH  21  22
ENDBRANCH  14  21
ENDBRANCH   2  13
TORSDOF 7
ENDMDL
MODEL 8
REMARK VINA RESULT:      -6.8      4.439      7.080
REMARK  7 active torsions:
REMARK  status: ('A' for Active; 'I' for Inactive)
REMARK    1  A    between atoms: C1_2  and  C2_3 
REMARK    2  A    between atoms: C1_2  and  C10_12 
REMARK    3  A    between atoms: C2_3  and  C3_4 
REMARK    4  A    between atoms: C3_4  and  C4_5 
REMARK    5  A    between atoms: C7_8  and  O2_9 
REMARK    6  A    between atoms: C11_13  and  O3_14 
REMARK    7  A    between atoms: O3_14  and  O4_15 
ROOT
HETATM    1  O1  UNL     1      23.888   1.558  51.336  1.00  0.00    -0.293 OA
HETATM    2  C1  UNL     1      24.654   2.534  51.639  1.00  0.00     0.160 C 
ENDROOT
BRANCH   2   3
HETATM    3  C2  UNL     1      25.438   1.960  52.746  1.00  0.00     0.088 C 
BRANCH   3   4
HETATM    4  C3  UNL     1      26.866   1.786  52.284  1.00  0.00     0.046 C 
BRANCH   4   5
HETATM    5  C4  UNL     1      27.388   0.433  52.597  1.00  0.00    -0.058 A 
HETATM    6  C5  UNL     1      26.656  -0.690  52.226  1.00  0.00     0.010 A 
HETATM    7  C6  UNL     1      27.077  -1.975  52.483  1.00  0.00     0.037 A 
HETATM    8  C7  UNL     1      28.289  -2.123  53.142  1.00  0.00     0.065 A 
HETATM    9  C8  UNL     1      29.069  -1.055  53.541  1.00  0.00     0.037 A 
HETATM   10  C9  UNL     1      28.572   0.218  53.243  1.00  0.00     0.010 A 
BRANCH   8  11
HETATM   11  O2  UNL     1      28.751  -3.410  53.422  1.00  0.00    -0.361 OA
HETATM   12  H7  UNL     1      29.676  -3.700  53.135  1.00  0.00     0.217 HD
ENDBRANCH   8  11
ENDBRANCH   4   5
ENDBRANCH   3   4
ENDBRANCH   2   3
BRANCH   2  13
HETATM   13  C10 UNL     1      24.489   3.744  50.854  1.00  0.00     0.050 C 
HETATM   14  C11 UNL     1      23.491   4.487  51.298  1.00  0.00     0.119 C 
HETATM   15  C12 UNL     1      22.856   5.802  50.914  1.00  0.00     0.238 C 
HETATM   16  O5  UNL     1      23.741   6.439  50.032  1.00  0.00    -0.356 OA
HETATM   17  C13 UNL     1      24.976   6.430  50.678  1.00  0.00     0.438 C 
HETATM   18  N1  UNL     1      25.900   5.499  50.080  1.00  0.00     0.110 N 
HETATM   19  C14 UNL     1      25.216   4.265  49.698  1.00  0.00     0.317 C 
HETATM   20  H15 UNL     1      26.592   5.218  50.831  1.00  0.00     0.319 HD
BRANCH  14  21
HETATM   21  O3  UNL     1      22.728   4.099  52.389  1.00  0.00    -0.202 OA
BRANCH  21  22
HETATM   22  O4  UNL     1      21.512   3.596  52.133  1.00  0.00    -0.245 OA
HETATM   23  H10 UNL     1      21.294   3.606  51.170  1.00  0.00     0.254 HD
ENDBRANCH  21  22
ENDBRANCH  14  21
ENDBRANCH   2  13
TORSDOF 7
ENDMDL
MODEL 9
REMARK VINA RESULT:      -6.7      3.666      4.844
REMARK  7 active torsions:
REMARK  status: ('A' for Active; 'I' for Inactive)
REMARK    1  A    between atoms: C1_2  and  C2_3 
REMARK    2  A    between atoms: C1_2  and  C10_12 
REMARK    3  A    between atoms: C2_3  and  C3_4 
REMARK    4  A    between atoms: C3_4  and  C4_5 
REMARK    5  A    between atoms: C7_8  and  O2_9 
REMARK    6  A    between atoms: C11_13  and  O3_14 
REMARK    7  A    between atoms: O3_14  and  O4_15 
ROOT
HETATM    1  O1  UNL     1      28.018   2.472  52.475  1.00  0.00    -0.293 OA
HETATM    2  C1  UNL     1      26.793   2.176  52.267  1.00  0.00     0.160 C 
ENDROOT
BRANCH   2   3
HETATM    3  C2  UNL     1      26.530   1.226  53.361  1.00  0.00     0.088 C 
BRANCH   3   4
HETATM    4  C3  UNL     1      25.924  -0.027  52.773  1.00  0.00     0.046 C 
BRANCH   4   5
HETATM    5  C4  UNL     1      24.587  -0.318  53.348  1.00  0.00    -0.058 A 
HETATM    6  C5  UNL     1      24.493  -0.940  54.589  1.00  0.00     0.010 A 
HETATM    7  C6  UNL     1      23.288  -1.240  55.184  1.00  0.00     0.037 A 
HETATM    8  C7  UNL     1      22.137  -0.895  54.491  1.00  0.00     0.065 A 
HETATM    9  C8  UNL     1      22.154  -0.276  53.255  1.00  0.00     0.037 A 
HETATM   10  C9  UNL     1      23.416  -0.004  52.718  1.00  0.00     0.010 A 
BRANCH   8  11
HETATM   11  O2  UNL     1      20.896  -1.183  55.060  1.00  0.00    -0.361 OA
HETATM   12  H7  UNL     1      20.054  -0.746  54.710  1.00  0.00     0.217 HD
ENDBRANCH   8  11
ENDBRANCH   4   5
ENDBRANCH   3   4
ENDBRANCH   2   3
BRANCH   2  13
HETATM   13  C10 UNL     1      26.164   2.825  51.131  1.00  0.00     0.050 C 
HETATM   14  C11 UNL     1      25.001   3.364  51.454  1.00  0.00     0.119 C 
HETATM   15  C12 UNL     1      23.924   4.141  50.736  1.00  0.00     0.238 C 
HETATM   16  O5  UNL     1      24.468   4.560  49.514  1.00  0.00    -0.356 OA
HETATM   17  C13 UNL     1      25.670   5.187  49.842  1.00  0.00     0.438 C 
HETATM   18  N1  UNL     1      26.818   4.398  49.468  1.00  0.00     0.110 N 
HETATM   19  C14 UNL     1      26.583   2.981  49.740  1.00  0.00     0.317 C 
HETATM   20  H15 UNL     1      27.613   4.681  50.107  1.00  0.00     0.319 HD
BRANCH  14  21
HETATM   21  O3  UNL     1      24.498   3.283  52.743  1.00  0.00    -0.202 OA
BRANCH  21  22
HETATM   22  O4  UNL     1      24.107   4.430  53.316  1.00  0.00    -0.245 OA
HETATM   23  H10 UNL     1      23.172   4.660  53.101  1.00  0.00     0.254 HD
ENDBRANCH  21  22
ENDBRANCH  14  21
ENDBRANCH   2  13
TORSDOF 7
ENDMDL
