MODEL 1
REMARK VINA RESULT:      -8.3      0.000      0.000
REMARK  6 active torsions:
REMARK  status: ('A' for Active; 'I' for Inactive)
REMARK    1  A    between atoms: C7_7  and  N1_8 
REMARK    2  A    between atoms: N1_8  and  C8_9 
REMARK    3  A    between atoms: C8_9  and  C9_10 
REMARK    4  A    between atoms: C9_10  and  C10_11 
REMARK    5  A    between atoms: N4_17  and  C14_18 
REMARK    6  A    between atoms: C14_18  and  C15_19 
ROOT
HETATM    1  C10 UNL     1      25.905   0.974  51.928  1.00  0.00     0.139 C 
HETATM    2  C11 UNL     1      26.759  -0.270  52.006  1.00  0.00     0.117 C 
HETATM    3  N2  UNL     1      27.539  -0.472  53.009  1.00  0.00    -0.256 NA
HETATM    4  C12 UNL     1      27.777   0.328  54.172  1.00  0.00     0.228 C 
HETATM    5  N3  UNL     1      27.084   1.313  54.656  1.00  0.00    -0.264 NA
HETATM    6  C13 UNL     1      25.836   1.919  54.168  1.00  0.00     0.270 C 
HETATM    7  N4  UNL     1      25.234   1.121  53.169  1.00  0.00    -0.381 N 
ENDROOT
BRANCH   1   8
HETATM    8  C9  UNL     1      26.820   2.051  51.580  1.00  0.00     0.123 C 
BRANCH   8   9
HETATM    9  C8  UNL     1      26.439   2.742  50.520  1.00  0.00    -0.035 C 
BRANCH   9  10
HETATM   10  N1  UNL     1      25.812   3.494  49.673  1.00  0.00    -0.210 NA
BRANCH  10  11
HETATM   11  C7  UNL     1      26.463   4.701  49.278  1.00  0.00     0.072 A 
HETATM   12  C2  UNL     1      25.860   5.928  49.519  1.00  0.00    -0.033 A 
HETATM   13  C1  UNL     1      24.538   6.035  50.188  1.00  0.00     0.050 C 
HETATM   14  C3  UNL     1      26.456   7.139  49.149  1.00  0.00     0.009 A 
HETATM   15  C4  UNL     1      27.695   7.058  48.520  1.00  0.00     0.001 A 
HETATM   16  C5  UNL     1      28.335   5.846  48.260  1.00  0.00     0.002 A 
HETATM   17  C6  UNL     1      27.704   4.687  48.646  1.00  0.00     0.033 A 
ENDBRANCH  10  11
ENDBRANCH   9  10
ENDBRANCH   8   9
ENDBRANCH   1   8
BRANCH   7  18
HETATM   18  C14 UNL     1      24.675  -0.069  53.744  1.00  0.00     0.159 C 
BRANCH  18  19
HETATM   19  C15 UNL     1      23.257  -0.334  53.476  1.00  0.00    -0.028 C 
HETATM   20  C16 UNL     1      22.585  -1.014  54.415  1.00  0.00    -0.016 C 
HETATM   21  C17 UNL     1      21.428  -0.441  54.697  1.00  0.00     0.032 C 
HETATM   22  C18 UNL     1      20.966  -0.245  53.305  1.00  0.00     0.012 C 
HETATM   23 BR1  UNL     1      19.256  -0.097  52.471  1.00  0.00    -0.051 Br
HETATM   24  C19 UNL     1      22.107  -0.184  52.594  1.00  0.00     0.028 C 
ENDBRANCH  18  19
ENDBRANCH   7  18
TORSDOF 6
ENDMDL
MODEL 2
REMARK VINA RESULT:      -8.0      2.111      3.003
REMARK  6 active torsions:
REMARK  status: ('A' for Active; 'I' for Inactive)
REMARK    1  A    between atoms: C7_7  and  N1_8 
REMARK    2  A    between atoms: N1_8  and  C8_9 
REMARK    3  A    between atoms: C8_9  and  C9_10 
REMARK    4  A    between atoms: C9_10  and  C10_11 
REMARK    5  A    between atoms: N4_17  and  C14_18 
REMARK    6  A    between atoms: C14_18  and  C15_19 
ROOT
HETATM    1  C10 UNL     1      25.891   0.763  51.966  1.00  0.00     0.139 C 
HETATM    2  C11 UNL     1      26.729  -0.488  52.090  1.00  0.00     0.117 C 
HETATM    3  N2  UNL     1      27.487  -0.675  53.113  1.00  0.00    -0.256 NA
HETATM    4  C12 UNL     1      27.710   0.150  54.261  1.00  0.00     0.228 C 
HETATM    5  N3  UNL     1      27.019   1.153  54.708  1.00  0.00    -0.264 NA
HETATM    6  C13 UNL     1      25.788   1.761  54.182  1.00  0.00     0.270 C 
HETATM    7  N4  UNL     1      25.197   0.947  53.189  1.00  0.00    -0.381 N 
ENDROOT
BRANCH   1   8
HETATM    8  C9  UNL     1      26.824   1.822  51.612  1.00  0.00     0.123 C 
BRANCH   8   9
HETATM    9  C8  UNL     1      26.246   2.861  51.034  1.00  0.00    -0.035 C 
BRANCH   9  10
HETATM   10  N1  UNL     1      25.410   3.747  50.598  1.00  0.00    -0.210 NA
BRANCH  10  11
HETATM   11  C7  UNL     1      24.039   3.358  50.522  1.00  0.00     0.072 A 
HETATM   12  C2  UNL     1      23.173   3.651  51.565  1.00  0.00    -0.033 A 
HETATM   13  C1  UNL     1      23.627   4.372  52.783  1.00  0.00     0.050 C 
HETATM   14  C3  UNL     1      21.822   3.289  51.540  1.00  0.00     0.009 A 
HETATM   15  C4  UNL     1      21.379   2.613  50.407  1.00  0.00     0.001 A 
HETATM   16  C5  UNL     1      22.216   2.299  49.336  1.00  0.00     0.002 A 
HETATM   17  C6  UNL     1      23.535   2.679  49.415  1.00  0.00     0.033 A 
ENDBRANCH  10  11
ENDBRANCH   9  10
ENDBRANCH   8   9
ENDBRANCH   1   8
BRANCH   7  18
HETATM   18  C14 UNL     1      24.613  -0.223  53.781  1.00  0.00     0.159 C 
BRANCH  18  19
HETATM   19  C15 UNL     1      23.185  -0.449  53.537  1.00  0.00    -0.028 C 
HETATM   20  C16 UNL     1      22.477  -0.968  54.549  1.00  0.00    -0.016 C 
HETATM   21  C17 UNL     1      21.349  -0.307  54.744  1.00  0.00     0.032 C 
HETATM   22  C18 UNL     1      20.902  -0.270  53.334  1.00  0.00     0.012 C 
HETATM   23 BR1  UNL     1      19.203  -0.145  52.473  1.00  0.00    -0.051 Br
HETATM   24  C19 UNL     1      22.046  -0.358  52.632  1.00  0.00     0.028 C 
ENDBRANCH  18  19
ENDBRANCH   7  18
TORSDOF 6
ENDMDL
MODEL 3
REMARK VINA RESULT:      -8.0      3.299      7.400
REMARK  6 active torsions:
REMARK  status: ('A' for Active; 'I' for Inactive)
REMARK    1  A    between atoms: C7_7  and  N1_8 
REMARK    2  A    between atoms: N1_8  and  C8_9 
REMARK    3  A    between atoms: C8_9  and  C9_10 
REMARK    4  A    between atoms: C9_10  and  C10_11 
REMARK    5  A    between atoms: N4_17  and  C14_18 
REMARK    6  A    between atoms: C14_18  and  C15_19 
ROOT
HETATM    1  C10 UNL     1      24.359   2.329  51.576  1.00  0.00     0.139 C 
HETATM    2  C11 UNL     1      23.206   1.817  50.745  1.00  0.00     0.117 C 
HETATM    3  N2  UNL     1      22.035   2.339  50.849  1.00  0.00    -0.256 NA
HETATM    4  C12 UNL     1      21.571   3.410  51.678  1.00  0.00     0.228 C 
HETATM    5  N3  UNL     1      22.246   4.307  52.329  1.00  0.00    -0.264 NA
HETATM    6  C13 UNL     1      23.699   4.512  52.421  1.00  0.00     0.270 C 
HETATM    7  N4  UNL     1      24.389   3.742  51.458  1.00  0.00    -0.381 N 
ENDROOT
BRANCH   1   8
HETATM    8  C9  UNL     1      24.125   1.819  52.919  1.00  0.00     0.123 C 
BRANCH   8   9
HETATM    9  C8  UNL     1      24.691   0.645  53.141  1.00  0.00    -0.035 C 
BRANCH   9  10
HETATM   10  N1  UNL     1      25.229  -0.407  53.670  1.00  0.00    -0.210 NA
BRANCH  10  11
HETATM   11  C7  UNL     1      26.650  -0.409  53.796  1.00  0.00     0.072 A 
HETATM   12  C2  UNL     1      27.412  -1.316  53.072  1.00  0.00    -0.033 A 
HETATM   13  C1  UNL     1      26.791  -2.302  52.150  1.00  0.00     0.050 C 
HETATM   14  C3  UNL     1      28.807  -1.361  53.164  1.00  0.00     0.009 A 
HETATM   15  C4  UNL     1      29.405  -0.444  54.023  1.00  0.00     0.001 A 
HETATM   16  C5  UNL     1      28.677   0.483  54.769  1.00  0.00     0.002 A 
HETATM   17  C6  UNL     1      27.308   0.482  54.639  1.00  0.00     0.033 A 
ENDBRANCH  10  11
ENDBRANCH   9  10
ENDBRANCH   8   9
ENDBRANCH   1   8
BRANCH   7  18
HETATM   18  C14 UNL     1      24.188   4.282  50.144  1.00  0.00     0.159 C 
BRANCH  18  19
HETATM   19  C15 UNL     1      25.386   4.690  49.402  1.00  0.00    -0.028 C 
HETATM   20  C16 UNL     1      25.287   5.807  48.669  1.00  0.00    -0.016 C 
HETATM   21  C17 UNL     1      26.318   6.611  48.868  1.00  0.00     0.032 C 
HETATM   22  C18 UNL     1      27.385   5.598  48.721  1.00  0.00     0.012 C 
HETATM   23 BR1  UNL     1      29.220   5.653  48.198  1.00  0.00    -0.051 Br
HETATM   24  C19 UNL     1      26.779   4.443  49.055  1.00  0.00     0.028 C 
ENDBRANCH  18  19
ENDBRANCH   7  18
TORSDOF 6
ENDMDL
MODEL 4
REMARK VINA RESULT:      -7.6      3.265      6.982
REMARK  6 active torsions:
REMARK  status: ('A' for Active; 'I' for Inactive)
REMARK    1  A    between atoms: C7_7  and  N1_8 
REMARK    2  A    between atoms: N1_8  and  C8_9 
REMARK    3  A    between atoms: C8_9  and  C9_10 
REMARK    4  A    between atoms: C9_10  and  C10_11 
REMARK    5  A    between atoms: N4_17  and  C14_18 
REMARK    6  A    between atoms: C14_18  and  C15_19 
ROOT
HETATM    1  C10 UNL     1      23.918   2.447  50.368  1.00  0.00     0.139 C 
HETATM    2  C11 UNL     1      24.516   3.576  49.561  1.00  0.00     0.117 C 
HETATM    3  N2  UNL     1      24.513   4.782  50.010  1.00  0.00    -0.256 NA
HETATM    4  C12 UNL     1      24.004   5.308  51.240  1.00  0.00     0.228 C 
HETATM    5  N3  UNL     1      23.668   4.690  52.331  1.00  0.00    -0.264 NA
HETATM    6  C13 UNL     1      23.703   3.256  52.652  1.00  0.00     0.270 C 
HETATM    7  N4  UNL     1      24.436   2.531  51.686  1.00  0.00    -0.381 N 
ENDROOT
BRANCH   1   8
HETATM    8  C9  UNL     1      22.476   2.609  50.252  1.00  0.00     0.123 C 
BRANCH   8   9
HETATM    9  C8  UNL     1      21.816   1.464  50.271  1.00  0.00    -0.035 C 
BRANCH   9  10
HETATM   10  N1  UNL     1      21.232   0.360  50.611  1.00  0.00    -0.210 NA
BRANCH  10  11
HETATM   11  C7  UNL     1      21.293  -0.005  51.989  1.00  0.00     0.072 A 
HETATM   12  C2  UNL     1      20.125  -0.126  52.729  1.00  0.00    -0.033 A 
HETATM   13  C1  UNL     1      18.787   0.111  52.128  1.00  0.00     0.050 C 
HETATM   14  C3  UNL     1      20.132  -0.479  54.083  1.00  0.00     0.009 A 
HETATM   15  C4  UNL     1      21.377  -0.704  54.662  1.00  0.00     0.001 A 
HETATM   16  C5  UNL     1      22.574  -0.593  53.954  1.00  0.00     0.002 A 
HETATM   17  C6  UNL     1      22.508  -0.244  52.626  1.00  0.00     0.033 A 
ENDBRANCH  10  11
ENDBRANCH   9  10
ENDBRANCH   8   9
ENDBRANCH   1   8
BRANCH   7  18
HETATM   18  C14 UNL     1      25.839   2.805  51.810  1.00  0.00     0.159 C 
BRANCH  18  19
HETATM   19  C15 UNL     1      26.658   1.788  52.478  1.00  0.00    -0.028 C 
HETATM   20  C16 UNL     1      26.088   0.592  52.678  1.00  0.00    -0.016 C 
HETATM   21  C17 UNL     1      26.887  -0.396  52.313  1.00  0.00     0.032 C 
HETATM   22  C18 UNL     1      28.107   0.081  52.999  1.00  0.00     0.012 C 
HETATM   23 BR1  UNL     1      29.667  -0.769  53.697  1.00  0.00    -0.051 Br
HETATM   24  C19 UNL     1      27.931   1.412  53.080  1.00  0.00     0.028 C 
ENDBRANCH  18  19
ENDBRANCH   7  18
TORSDOF 6
ENDMDL
MODEL 5
REMARK VINA RESULT:      -7.3      2.485      5.481
REMARK  6 active torsions:
REMARK  status: ('A' for Active; 'I' for Inactive)
REMARK    1  A    between atoms: C7_7  and  N1_8 
REMARK    2  A    between atoms: N1_8  and  C8_9 
REMARK    3  A    between atoms: C8_9  and  C9_10 
REMARK    4  A    between atoms: C9_10  and  C10_11 
REMARK    5  A    between atoms: N4_17  and  C14_18 
REMARK    6  A    between atoms: C14_18  and  C15_19 
ROOT
HETATM    1  C10 UNL     1      23.871   3.586  51.592  1.00  0.00     0.139 C 
HETATM    2  C11 UNL     1      23.286   4.943  51.910  1.00  0.00     0.117 C 
HETATM    3  N2  UNL     1      22.513   5.539  51.073  1.00  0.00    -0.256 NA
HETATM    4  C12 UNL     1      22.056   5.128  49.780  1.00  0.00     0.228 C 
HETATM    5  N3  UNL     1      22.073   3.953  49.230  1.00  0.00    -0.264 NA
HETATM    6  C13 UNL     1      22.561   2.670  49.758  1.00  0.00     0.270 C 
HETATM    7  N4  UNL     1      22.815   2.749  51.146  1.00  0.00    -0.381 N 
ENDROOT
BRANCH   1   8
HETATM    8  C9  UNL     1      24.924   3.835  50.619  1.00  0.00     0.123 C 
BRANCH   8   9
HETATM    9  C8  UNL     1      26.010   3.109  50.823  1.00  0.00    -0.035 C 
BRANCH   9  10
HETATM   10  N1  UNL     1      27.097   2.584  51.290  1.00  0.00    -0.210 NA
BRANCH  10  11
HETATM   11  C7  UNL     1      26.948   1.519  52.228  1.00  0.00     0.072 A 
HETATM   12  C2  UNL     1      27.740   1.479  53.366  1.00  0.00    -0.033 A 
HETATM   13  C1  UNL     1      28.756   2.524  53.653  1.00  0.00     0.050 C 
HETATM   14  C3  UNL     1      27.634   0.455  54.314  1.00  0.00     0.009 A 
HETATM   15  C4  UNL     1      26.688  -0.533  54.061  1.00  0.00     0.001 A 
HETATM   16  C5  UNL     1      25.872  -0.530  52.930  1.00  0.00     0.002 A 
HETATM   17  C6  UNL     1      26.018   0.501  52.032  1.00  0.00     0.033 A 
ENDBRANCH  10  11
ENDBRANCH   9  10
ENDBRANCH   8   9
ENDBRANCH   1   8
BRANCH   7  18
HETATM   18  C14 UNL     1      21.584   2.820  51.880  1.00  0.00     0.159 C 
BRANCH  18  19
HETATM   19  C15 UNL     1      20.929   1.548  52.203  1.00  0.00    -0.028 C 
HETATM   20  C16 UNL     1      21.619   0.696  52.973  1.00  0.00    -0.016 C 
HETATM   21  C17 UNL     1      20.875   0.216  53.955  1.00  0.00     0.032 C 
HETATM   22  C18 UNL     1      19.694  -0.148  53.142  1.00  0.00     0.012 C 
HETATM   23 BR1  UNL     1      18.294  -1.434  53.318  1.00  0.00    -0.051 Br
HETATM   24  C19 UNL     1      19.762   0.684  52.087  1.00  0.00     0.028 C 
ENDBRANCH  18  19
ENDBRANCH   7  18
TORSDOF 6
ENDMDL
MODEL 6
REMARK VINA RESULT:      -7.2      3.736      7.953
REMARK  6 active torsions:
REMARK  status: ('A' for Active; 'I' for Inactive)
REMARK    1  A    between atoms: C7_7  and  N1_8 
REMARK    2  A    between atoms: N1_8  and  C8_9 
REMARK    3  A    between atoms: C8_9  and  C9_10 
REMARK    4  A    between atoms: C9_10  and  C10_11 
REMARK    5  A    between atoms: N4_17  and  C14_18 
REMARK    6  A    between atoms: C14_18  and  C15_19 
ROOT
HETATM    1  C10 UNL     1      22.592   1.463  51.924  1.00  0.00     0.139 C 
HETATM    2  C11 UNL     1      22.613   1.734  50.437  1.00  0.00     0.117 C 
HETATM    3  N2  UNL     1      23.060   2.849  49.976  1.00  0.00    -0.256 NA
HETATM    4  C12 UNL     1      23.589   3.988  50.663  1.00  0.00     0.228 C 
HETATM    5  N3  UNL     1      24.011   4.096  51.886  1.00  0.00    -0.264 NA
HETATM    6  C13 UNL     1      24.082   3.087  52.953  1.00  0.00     0.270 C 
HETATM    7  N4  UNL     1      23.871   1.785  52.444  1.00  0.00    -0.381 N 
ENDROOT
BRANCH   1   8
HETATM    8  C9  UNL     1      21.487   2.254  52.446  1.00  0.00     0.123 C 
BRANCH   8   9
HETATM    9  C8  UNL     1      20.302   1.714  52.222  1.00  0.00    -0.035 C 
BRANCH   9  10
HETATM   10  N1  UNL     1      19.239   1.202  51.692  1.00  0.00    -0.210 NA
BRANCH  10  11
HETATM   11  C7  UNL     1      18.726   0.014  52.293  1.00  0.00     0.072 A 
HETATM   12  C2  UNL     1      17.480  -0.472  51.922  1.00  0.00    -0.033 A 
HETATM   13  C1  UNL     1      16.644   0.209  50.900  1.00  0.00     0.050 C 
HETATM   14  C3  UNL     1      16.932  -1.631  52.484  1.00  0.00     0.009 A 
HETATM   15  C4  UNL     1      17.701  -2.282  53.443  1.00  0.00     0.001 A 
HETATM   16  C5  UNL     1      18.958  -1.827  53.844  1.00  0.00     0.002 A 
HETATM   17  C6  UNL     1      19.447  -0.684  53.259  1.00  0.00     0.033 A 
ENDBRANCH  10  11
ENDBRANCH   9  10
ENDBRANCH   8   9
ENDBRANCH   1   8
BRANCH   7  18
HETATM   18  C14 UNL     1      25.005   1.356  51.677  1.00  0.00     0.159 C 
BRANCH  18  19
HETATM   19  C15 UNL     1      26.086   0.684  52.407  1.00  0.00    -0.028 C 
HETATM   20  C16 UNL     1      25.804  -0.519  52.925  1.00  0.00    -0.016 C 
HETATM   21  C17 UNL     1      26.750  -1.401  52.651  1.00  0.00     0.032 C 
HETATM   22  C18 UNL     1      27.909  -0.566  53.039  1.00  0.00     0.012 C 
HETATM   23 BR1  UNL     1      29.677  -0.936  53.654  1.00  0.00    -0.051 Br
HETATM   24  C19 UNL     1      27.465   0.694  52.876  1.00  0.00     0.028 C 
ENDBRANCH  18  19
ENDBRANCH   7  18
TORSDOF 6
ENDMDL
MODEL 7
REMARK VINA RESULT:      -7.1      3.552      7.648
REMARK  6 active torsions:
REMARK  status: ('A' for Active; 'I' for Inactive)
REMARK    1  A    between atoms: C7_7  and  N1_8 
REMARK    2  A    between atoms: N1_8  and  C8_9 
REMARK    3  A    between atoms: C8_9  and  C9_10 
REMARK    4  A    between atoms: C9_10  and  C10_11 
REMARK    5  A    between atoms: N4_17  and  C14_18 
REMARK    6  A    between atoms: C14_18  and  C15_19 
ROOT
HETATM    1  C10 UNL     1      23.192   3.400  49.785  1.00  0.00     0.139 C 
HETATM    2  C11 UNL     1      22.633   3.160  48.401  1.00  0.00     0.117 C 
HETATM    3  N2  UNL     1      21.671   3.882  47.945  1.00  0.00    -0.256 NA
HETATM    4  C12 UNL     1      20.962   4.969  48.551  1.00  0.00     0.228 C 
HETATM    5  N3  UNL     1      21.272   5.685  49.587  1.00  0.00    -0.264 NA
HETATM    6  C13 UNL     1      22.448   5.613  50.468  1.00  0.00     0.270 C 
HETATM    7  N4  UNL     1      23.454   4.788  49.915  1.00  0.00    -0.381 N 
ENDROOT
BRANCH   1   8
HETATM    8  C9  UNL     1      22.200   2.862  50.703  1.00  0.00     0.123 C 
BRANCH   8   9
HETATM    9  C8  UNL     1      22.674   2.638  51.917  1.00  0.00    -0.035 C 
BRANCH   9  10
HETATM   10  N1  UNL     1      23.366   2.253  52.940  1.00  0.00    -0.210 NA
BRANCH  10  11
HETATM   11  C7  UNL     1      24.500   1.427  52.677  1.00  0.00     0.072 A 
HETATM   12  C2  UNL     1      24.516   0.109  53.111  1.00  0.00    -0.033 A 
HETATM   13  C1  UNL     1      23.374  -0.488  53.850  1.00  0.00     0.050 C 
HETATM   14  C3  UNL     1      25.604  -0.740  52.881  1.00  0.00     0.009 A 
HETATM   15  C4  UNL     1      26.683  -0.198  52.190  1.00  0.00     0.001 A 
HETATM   16  C5  UNL     1      26.707   1.121  51.737  1.00  0.00     0.002 A 
HETATM   17  C6  UNL     1      25.610   1.911  51.990  1.00  0.00     0.033 A 
ENDBRANCH  10  11
ENDBRANCH   9  10
ENDBRANCH   8   9
ENDBRANCH   1   8
BRANCH   7  18
HETATM   18  C14 UNL     1      24.074   5.434  48.794  1.00  0.00     0.159 C 
BRANCH  18  19
HETATM   19  C15 UNL     1      25.528   5.621  48.855  1.00  0.00    -0.028 C 
HETATM   20  C16 UNL     1      26.218   4.731  49.582  1.00  0.00    -0.016 C 
HETATM   21  C17 UNL     1      27.276   4.284  48.928  1.00  0.00     0.032 C 
HETATM   22  C18 UNL     1      27.796   5.596  48.485  1.00  0.00     0.012 C 
HETATM   23 BR1  UNL     1      29.525   6.263  48.026  1.00  0.00    -0.051 Br
HETATM   24  C19 UNL     1      26.704   6.380  48.452  1.00  0.00     0.028 C 
ENDBRANCH  18  19
ENDBRANCH   7  18
TORSDOF 6
ENDMDL
MODEL 8
REMARK VINA RESULT:      -7.0      3.148      4.771
REMARK  6 active torsions:
REMARK  status: ('A' for Active; 'I' for Inactive)
REMARK    1  A    between atoms: C7_7  and  N1_8 
REMARK    2  A    between atoms: N1_8  and  C8_9 
REMARK    3  A    between atoms: C8_9  and  C9_10 
REMARK    4  A    between atoms: C9_10  and  C10_11 
REMARK    5  A    between atoms: N4_17  and  C14_18 
REMARK    6  A    between atoms: C14_18  and  C15_19 
ROOT
HETATM    1  C10 UNL     1      22.542   3.317  51.254  1.00  0.00     0.139 C 
HETATM    2  C11 UNL     1      21.603   3.786  52.342  1.00  0.00     0.117 C 
HETATM    3  N2  UNL     1      20.415   3.302  52.441  1.00  0.00    -0.256 NA
HETATM    4  C12 UNL     1      19.749   2.315  51.647  1.00  0.00     0.228 C 
HETATM    5  N3  UNL     1      20.241   1.459  50.805  1.00  0.00    -0.264 NA
HETATM    6  C13 UNL     1      21.636   1.228  50.400  1.00  0.00     0.270 C 
HETATM    7  N4  UNL     1      22.538   1.899  51.256  1.00  0.00    -0.381 N 
ENDROOT
BRANCH   1   8
HETATM    8  C9  UNL     1      22.061   3.942  50.031  1.00  0.00     0.123 C 
BRANCH   8   9
HETATM    9  C8  UNL     1      22.820   4.943  49.619  1.00  0.00    -0.035 C 
BRANCH   9  10
HETATM   10  N1  UNL     1      23.685   5.899  49.518  1.00  0.00    -0.210 NA
BRANCH  10  11
HETATM   11  C7  UNL     1      25.034   5.522  49.243  1.00  0.00     0.072 A 
HETATM   12  C2  UNL     1      25.895   6.418  48.625  1.00  0.00    -0.033 A 
HETATM   13  C1  UNL     1      25.459   7.783  48.234  1.00  0.00     0.050 C 
HETATM   14  C3  UNL     1      27.225   6.095  48.332  1.00  0.00     0.009 A 
HETATM   15  C4  UNL     1      27.650   4.820  48.692  1.00  0.00     0.001 A 
HETATM   16  C5  UNL     1      26.817   3.890  49.314  1.00  0.00     0.002 A 
HETATM   17  C6  UNL     1      25.521   4.261  49.579  1.00  0.00     0.033 A 
ENDBRANCH  10  11
ENDBRANCH   9  10
ENDBRANCH   8   9
ENDBRANCH   1   8
BRANCH   7  18
HETATM   18  C14 UNL     1      22.586   1.256  52.539  1.00  0.00     0.159 C 
BRANCH  18  19
HETATM   19  C15 UNL     1      23.913   1.046  53.128  1.00  0.00    -0.028 C 
HETATM   20  C16 UNL     1      24.145  -0.157  53.669  1.00  0.00    -0.016 C 
HETATM   21  C17 UNL     1      25.307  -0.651  53.277  1.00  0.00     0.032 C 
HETATM   22  C18 UNL     1      26.123   0.558  53.525  1.00  0.00     0.012 C 
HETATM   23 BR1  UNL     1      27.965   0.871  53.917  1.00  0.00    -0.051 Br
HETATM   24  C19 UNL     1      25.240   1.568  53.424  1.00  0.00     0.028 C 
ENDBRANCH  18  19
ENDBRANCH   7  18
TORSDOF 6
ENDMDL
MODEL 9
REMARK VINA RESULT:      -7.0      3.212      4.741
REMARK  6 active torsions:
REMARK  status: ('A' for Active; 'I' for Inactive)
REMARK    1  A    between atoms: C7_7  and  N1_8 
REMARK    2  A    between atoms: N1_8  and  C8_9 
REMARK    3  A    between atoms: C8_9  and  C9_10 
REMARK    4  A    between atoms: C9_10  and  C10_11 
REMARK    5  A    between atoms: N4_17  and  C14_18 
REMARK    6  A    between atoms: C14_18  and  C15_19 
ROOT
HETATM    1  C10 UNL     1      24.325   3.458  50.517  1.00  0.00     0.139 C 
HETATM    2  C11 UNL     1      23.952   4.299  51.716  1.00  0.00     0.117 C 
HETATM    3  N2  UNL     1      22.811   4.156  52.292  1.00  0.00    -0.256 NA
HETATM    4  C12 UNL     1      21.725   3.274  51.988  1.00  0.00     0.228 C 
HETATM    5  N3  UNL     1      21.704   2.212  51.242  1.00  0.00    -0.264 NA
HETATM    6  C13 UNL     1      22.786   1.575  50.476  1.00  0.00     0.270 C 
HETATM    7  N4  UNL     1      24.048   2.103  50.831  1.00  0.00    -0.381 N 
ENDROOT
BRANCH   1   8
HETATM    8  C9  UNL     1      23.566   4.010  49.405  1.00  0.00     0.123 C 
BRANCH   8   9
HETATM    9  C8  UNL     1      23.932   5.236  49.076  1.00  0.00    -0.035 C 
BRANCH   9  10
HETATM   10  N1  UNL     1      24.571   6.347  48.896  1.00  0.00    -0.210 NA
BRANCH  10  11
HETATM   11  C7  UNL     1      25.960   6.249  48.585  1.00  0.00     0.072 A 
HETATM   12  C2  UNL     1      26.603   7.292  47.934  1.00  0.00    -0.033 A 
HETATM   13  C1  UNL     1      25.886   8.533  47.542  1.00  0.00     0.050 C 
HETATM   14  C3  UNL     1      27.962   7.244  47.605  1.00  0.00     0.009 A 
HETATM   15  C4  UNL     1      28.650   6.088  47.965  1.00  0.00     0.001 A 
HETATM   16  C5  UNL     1      28.042   5.018  48.620  1.00  0.00     0.002 A 
HETATM   17  C6  UNL     1      26.704   5.120  48.919  1.00  0.00     0.033 A 
ENDBRANCH  10  11
ENDBRANCH   9  10
ENDBRANCH   8   9
ENDBRANCH   1   8
BRANCH   7  18
HETATM   18  C14 UNL     1      24.429   1.654  52.140  1.00  0.00     0.159 C 
BRANCH  18  19
HETATM   19  C15 UNL     1      25.766   1.064  52.276  1.00  0.00    -0.028 C 
HETATM   20  C16 UNL     1      26.803   1.911  52.241  1.00  0.00    -0.016 C 
HETATM   21  C17 UNL     1      27.658   1.676  53.221  1.00  0.00     0.032 C 
HETATM   22  C18 UNL     1      27.759   0.211  53.041  1.00  0.00     0.012 C 
HETATM   23 BR1  UNL     1      29.095  -1.095  53.430  1.00  0.00    -0.051 Br
HETATM   24  C19 UNL     1      26.589  -0.123  52.465  1.00  0.00     0.028 C 
ENDBRANCH  18  19
ENDBRANCH   7  18
TORSDOF 6
ENDMDL
