MODEL 1
REMARK VINA RESULT:      -8.1      0.000      0.000
REMARK  0 active torsions:
REMARK  status: ('A' for Active; 'I' for Inactive)
ROOT
HETATM    1  O1  UNL     1      23.803   5.084  52.437  1.00  0.00    -0.293 OA
HETATM    2  C1  UNL     1      23.118   4.394  51.661  1.00  0.00     0.179 C 
HETATM    3  C2  UNL     1      21.679   4.289  52.198  1.00  0.00     0.249 C 
HETATM    4  O2  UNL     1      21.021   3.471  51.543  1.00  0.00    -0.377 OA
HETATM    5  C3  UNL     1      20.355   2.643  50.880  1.00  0.00     0.232 C 
HETATM    6  C4  UNL     1      21.242   1.557  50.323  1.00  0.00     0.066 C 
HETATM    7  C5  UNL     1      21.519   1.232  49.093  1.00  0.00     0.008 C 
HETATM    8  C6  UNL     1      20.882   2.063  48.040  1.00  0.00     0.035 C 
HETATM    9  C7  UNL     1      21.998   2.894  47.371  1.00  0.00     0.050 C 
HETATM   10  C8  UNL     1      22.752   3.684  48.442  1.00  0.00     0.085 C 
HETATM   11  N1  UNL     1      23.298   3.273  49.498  1.00  0.00    -0.288 NA
HETATM   12  C9  UNL     1      24.011   3.962  50.520  1.00  0.00     0.211 C 
HETATM   13  C10 UNL     1      25.004   2.949  51.063  1.00  0.00    -0.026 A 
HETATM   14  C11 UNL     1      26.341   2.631  51.058  1.00  0.00     0.011 A 
HETATM   15  C12 UNL     1      26.733   1.477  51.686  1.00  0.00     0.020 A 
HETATM   16  C13 UNL     1      25.878   0.611  52.322  1.00  0.00     0.017 A 
HETATM   17 BR1  UNL     1      26.480  -0.961  53.163  1.00  0.00    -0.051 Br
HETATM   18  C14 UNL     1      24.527   0.826  52.392  1.00  0.00    -0.038 A 
HETATM   19  C15 UNL     1      24.270   1.998  51.738  1.00  0.00     0.018 A 
HETATM   20  C16 UNL     1      23.417   0.021  52.948  1.00  0.00     0.066 C 
HETATM   21  C17 UNL     1      22.070   0.579  52.448  1.00  0.00     0.180 C 
HETATM   22  O3  UNL     1      21.986   0.629  51.060  1.00  0.00    -0.353 OA
ENDROOT
TORSDOF 0
ENDMDL
MODEL 2
REMARK VINA RESULT:      -8.0      1.517      2.095
REMARK  0 active torsions:
REMARK  status: ('A' for Active; 'I' for Inactive)
ROOT
HETATM    1  O1  UNL     1      23.775   4.449  52.872  1.00  0.00    -0.293 OA
HETATM    2  C1  UNL     1      23.063   4.018  51.947  1.00  0.00     0.179 C 
HETATM    3  C2  UNL     1      21.727   4.783  51.925  1.00  0.00     0.249 C 
HETATM    4  O2  UNL     1      20.933   4.265  51.131  1.00  0.00    -0.377 OA
HETATM    5  C3  UNL     1      20.129   3.739  50.326  1.00  0.00     0.232 C 
HETATM    6  C4  UNL     1      20.376   2.254  50.208  1.00  0.00     0.066 C 
HETATM    7  C5  UNL     1      20.747   1.533  49.189  1.00  0.00     0.008 C 
HETATM    8  C6  UNL     1      20.992   2.269  47.922  1.00  0.00     0.035 C 
HETATM    9  C7  UNL     1      22.512   2.233  47.655  1.00  0.00     0.050 C 
HETATM   10  C8  UNL     1      23.253   2.788  48.873  1.00  0.00     0.085 C 
HETATM   11  N1  UNL     1      23.170   2.446  50.080  1.00  0.00    -0.288 NA
HETATM   12  C9  UNL     1      23.835   2.925  51.244  1.00  0.00     0.211 C 
HETATM   13  C10 UNL     1      23.908   1.731  52.180  1.00  0.00    -0.026 A 
HETATM   14  C11 UNL     1      24.784   0.801  52.687  1.00  0.00     0.011 A 
HETATM   15  C12 UNL     1      24.282  -0.190  53.490  1.00  0.00     0.020 A 
HETATM   16  C13 UNL     1      22.957  -0.321  53.825  1.00  0.00     0.017 A 
HETATM   17 BR1  UNL     1      22.331  -1.709  54.930  1.00  0.00    -0.051 Br
HETATM   18  C14 UNL     1      21.995   0.546  53.380  1.00  0.00    -0.038 A 
HETATM   19  C15 UNL     1      22.619   1.479  52.601  1.00  0.00     0.018 A 
HETATM   20  C16 UNL     1      20.524   0.572  53.543  1.00  0.00     0.066 C 
HETATM   21  C17 UNL     1      19.909   1.575  52.548  1.00  0.00     0.180 C 
HETATM   22  O3  UNL     1      20.247   1.303  51.226  1.00  0.00    -0.353 OA
ENDROOT
TORSDOF 0
ENDMDL
MODEL 3
REMARK VINA RESULT:      -7.3      1.924      4.313
REMARK  0 active torsions:
REMARK  status: ('A' for Active; 'I' for Inactive)
ROOT
HETATM    1  O1  UNL     1      20.985   1.134  48.740  1.00  0.00    -0.293 OA
HETATM    2  C1  UNL     1      21.603   2.100  49.224  1.00  0.00     0.179 C 
HETATM    3  C2  UNL     1      22.955   2.260  48.505  1.00  0.00     0.249 C 
HETATM    4  O2  UNL     1      23.662   3.099  49.076  1.00  0.00    -0.377 OA
HETATM    5  C3  UNL     1      24.379   3.949  49.654  1.00  0.00     0.232 C 
HETATM    6  C4  UNL     1      24.077   3.995  51.132  1.00  0.00     0.066 C 
HETATM    7  C5  UNL     1      23.599   4.954  51.872  1.00  0.00     0.008 C 
HETATM    8  C6  UNL     1      23.271   6.220  51.170  1.00  0.00     0.035 C 
HETATM    9  C7  UNL     1      21.734   6.358  51.163  1.00  0.00     0.050 C 
HETATM   10  C8  UNL     1      21.116   5.103  50.545  1.00  0.00     0.085 C 
HETATM   11  N1  UNL     1      21.290   3.895  50.851  1.00  0.00    -0.288 NA
HETATM   12  C9  UNL     1      20.741   2.697  50.312  1.00  0.00     0.211 C 
HETATM   13  C10 UNL     1      20.711   1.718  51.473  1.00  0.00    -0.026 A 
HETATM   14  C11 UNL     1      19.851   1.108  52.356  1.00  0.00     0.011 A 
HETATM   15  C12 UNL     1      20.389   0.316  53.337  1.00  0.00     0.020 A 
HETATM   16  C13 UNL     1      21.733   0.088  53.502  1.00  0.00     0.017 A 
HETATM   17 BR1  UNL     1      22.407  -1.009  54.874  1.00  0.00    -0.051 Br
HETATM   18  C14 UNL     1      22.680   0.641  52.682  1.00  0.00    -0.038 A 
HETATM   19  C15 UNL     1      22.021   1.398  51.754  1.00  0.00     0.018 A 
HETATM   20  C16 UNL     1      24.160   0.602  52.700  1.00  0.00     0.066 C 
HETATM   21  C17 UNL     1      24.719   1.680  51.751  1.00  0.00     0.180 C 
HETATM   22  O3  UNL     1      24.262   2.959  52.054  1.00  0.00    -0.353 OA
ENDROOT
TORSDOF 0
ENDMDL
MODEL 4
REMARK VINA RESULT:      -7.3      1.629      3.993
REMARK  0 active torsions:
REMARK  status: ('A' for Active; 'I' for Inactive)
ROOT
HETATM    1  O1  UNL     1      21.574   0.898  49.012  1.00  0.00    -0.293 OA
HETATM    2  C1  UNL     1      21.990   2.034  49.304  1.00  0.00     0.179 C 
HETATM    3  C2  UNL     1      22.896   2.557  48.175  1.00  0.00     0.249 C 
HETATM    4  O2  UNL     1      23.461   3.605  48.510  1.00  0.00    -0.377 OA
HETATM    5  C3  UNL     1      24.033   4.667  48.851  1.00  0.00     0.232 C 
HETATM    6  C4  UNL     1      24.257   4.706  50.343  1.00  0.00     0.066 C 
HETATM    7  C5  UNL     1      23.790   5.514  51.251  1.00  0.00     0.008 C 
HETATM    8  C6  UNL     1      22.869   6.575  50.771  1.00  0.00     0.035 C 
HETATM    9  C7  UNL     1      21.459   6.235  51.299  1.00  0.00     0.050 C 
HETATM   10  C8  UNL     1      21.085   4.816  50.866  1.00  0.00     0.085 C 
HETATM   11  N1  UNL     1      21.716   3.741  51.030  1.00  0.00    -0.288 NA
HETATM   12  C9  UNL     1      21.413   2.402  50.652  1.00  0.00     0.211 C 
HETATM   13  C10 UNL     1      22.084   1.531  51.700  1.00  0.00    -0.026 A 
HETATM   14  C11 UNL     1      21.811   0.741  52.790  1.00  0.00     0.011 A 
HETATM   15  C12 UNL     1      22.867   0.211  53.486  1.00  0.00     0.020 A 
HETATM   16  C13 UNL     1      24.187   0.416  53.167  1.00  0.00     0.017 A 
HETATM   17 BR1  UNL     1      25.592  -0.338  54.166  1.00  0.00    -0.051 Br
HETATM   18  C14 UNL     1      24.578   1.184  52.102  1.00  0.00    -0.038 A 
HETATM   19  C15 UNL     1      23.443   1.645  51.497  1.00  0.00     0.018 A 
HETATM   20  C16 UNL     1      25.910   1.601  51.610  1.00  0.00     0.066 C 
HETATM   21  C17 UNL     1      25.751   2.739  50.583  1.00  0.00     0.180 C 
HETATM   22  O3  UNL     1      25.055   3.833  51.090  1.00  0.00    -0.353 OA
ENDROOT
TORSDOF 0
ENDMDL
MODEL 5
REMARK VINA RESULT:      -7.1      7.523      9.737
REMARK  0 active torsions:
REMARK  status: ('A' for Active; 'I' for Inactive)
ROOT
HETATM    1  O1  UNL     1      27.403   8.370  44.627  1.00  0.00    -0.293 OA
HETATM    2  C1  UNL     1      28.186   8.801  45.493  1.00  0.00     0.179 C 
HETATM    3  C2  UNL     1      29.637   8.631  45.008  1.00  0.00     0.249 C 
HETATM    4  O2  UNL     1      30.439   8.889  45.913  1.00  0.00    -0.377 OA
HETATM    5  C3  UNL     1      31.251   9.150  46.830  1.00  0.00     0.232 C 
HETATM    6  C4  UNL     1      30.659   8.837  48.183  1.00  0.00     0.066 C 
HETATM    7  C5  UNL     1      30.381   9.615  49.189  1.00  0.00     0.008 C 
HETATM    8  C6  UNL     1      30.668  11.059  48.998  1.00  0.00     0.035 C 
HETATM    9  C7  UNL     1      29.311  11.791  48.914  1.00  0.00     0.050 C 
HETATM   10  C8  UNL     1      28.461  11.155  47.813  1.00  0.00     0.085 C 
HETATM   11  N1  UNL     1      28.142   9.949  47.649  1.00  0.00    -0.288 NA
HETATM   12  C9  UNL     1      27.356   9.309  46.649  1.00  0.00     0.211 C 
HETATM   13  C10 UNL     1      26.735   8.108  47.341  1.00  0.00    -0.026 A 
HETATM   14  C11 UNL     1      25.545   7.642  47.848  1.00  0.00     0.011 A 
HETATM   15  C12 UNL     1      25.547   6.434  48.495  1.00  0.00     0.020 A 
HETATM   16  C13 UNL     1      26.661   5.651  48.674  1.00  0.00     0.017 A 
HETATM   17 BR1  UNL     1      26.597   4.001  49.576  1.00  0.00    -0.051 Br
HETATM   18  C14 UNL     1      27.898   6.012  48.211  1.00  0.00    -0.038 A 
HETATM   19  C15 UNL     1      27.761   7.222  47.590  1.00  0.00     0.018 A 
HETATM   20  C16 UNL     1      29.233   5.385  48.339  1.00  0.00     0.066 C 
HETATM   21  C17 UNL     1      30.322   6.393  47.924  1.00  0.00     0.180 C 
HETATM   22  O3  UNL     1      30.270   7.578  48.652  1.00  0.00    -0.353 OA
ENDROOT
TORSDOF 0
ENDMDL
MODEL 6
REMARK VINA RESULT:      -7.0      8.680     11.214
REMARK  0 active torsions:
REMARK  status: ('A' for Active; 'I' for Inactive)
ROOT
HETATM    1  O1  UNL     1      31.669   7.667  50.042  1.00  0.00    -0.293 OA
HETATM    2  C1  UNL     1      32.139   7.047  49.072  1.00  0.00     0.179 C 
HETATM    3  C2  UNL     1      33.441   7.724  48.607  1.00  0.00     0.249 C 
HETATM    4  O2  UNL     1      33.838   7.235  47.542  1.00  0.00    -0.377 OA
HETATM    5  C3  UNL     1      34.240   6.740  46.464  1.00  0.00     0.232 C 
HETATM    6  C4  UNL     1      33.083   6.237  45.635  1.00  0.00     0.066 C 
HETATM    7  C5  UNL     1      32.781   5.034  45.240  1.00  0.00     0.008 C 
HETATM    8  C6  UNL     1      33.701   3.953  45.675  1.00  0.00     0.035 C 
HETATM    9  C7  UNL     1      32.942   3.088  46.705  1.00  0.00     0.050 C 
HETATM   10  C8  UNL     1      32.424   3.983  47.832  1.00  0.00     0.085 C 
HETATM   11  N1  UNL     1      31.722   5.025  47.765  1.00  0.00    -0.288 NA
HETATM   12  C9  UNL     1      31.214   5.887  48.778  1.00  0.00     0.211 C 
HETATM   13  C10 UNL     1      29.925   6.453  48.207  1.00  0.00    -0.026 A 
HETATM   14  C11 UNL     1      28.558   6.362  48.318  1.00  0.00     0.011 A 
HETATM   15  C12 UNL     1      27.789   7.083  47.442  1.00  0.00     0.020 A 
HETATM   16  C13 UNL     1      28.292   7.895  46.455  1.00  0.00     0.017 A 
HETATM   17 BR1  UNL     1      27.180   8.857  45.281  1.00  0.00    -0.051 Br
HETATM   18  C14 UNL     1      29.636   8.064  46.252  1.00  0.00    -0.038 A 
HETATM   19  C15 UNL     1      30.284   7.302  47.183  1.00  0.00     0.018 A 
HETATM   20  C16 UNL     1      30.404   8.813  45.233  1.00  0.00     0.066 C 
HETATM   21  C17 UNL     1      31.881   8.377  45.272  1.00  0.00     0.180 C 
HETATM   22  O3  UNL     1      32.047   7.006  45.096  1.00  0.00    -0.353 OA
ENDROOT
TORSDOF 0
ENDMDL
MODEL 7
REMARK VINA RESULT:      -6.9      3.127      4.201
REMARK  0 active torsions:
REMARK  status: ('A' for Active; 'I' for Inactive)
ROOT
HETATM    1  O1  UNL     1      23.206   7.217  51.186  1.00  0.00    -0.293 OA
HETATM    2  C1  UNL     1      22.902   6.156  50.611  1.00  0.00     0.179 C 
HETATM    3  C2  UNL     1      22.616   5.065  51.659  1.00  0.00     0.249 C 
HETATM    4  O2  UNL     1      22.481   3.959  51.121  1.00  0.00    -0.377 OA
HETATM    5  C3  UNL     1      22.344   2.840  50.575  1.00  0.00     0.232 C 
HETATM    6  C4  UNL     1      23.162   2.751  49.310  1.00  0.00     0.066 C 
HETATM    7  C5  UNL     1      22.796   2.595  48.070  1.00  0.00     0.008 C 
HETATM    8  C6  UNL     1      21.334   2.504  47.827  1.00  0.00     0.035 C 
HETATM    9  C7  UNL     1      20.906   3.795  47.097  1.00  0.00     0.050 C 
HETATM   10  C8  UNL     1      21.345   5.009  47.916  1.00  0.00     0.085 C 
HETATM   11  N1  UNL     1      22.485   5.300  48.361  1.00  0.00    -0.288 NA
HETATM   12  C9  UNL     1      22.945   6.412  49.122  1.00  0.00     0.211 C 
HETATM   13  C10 UNL     1      24.400   6.592  48.722  1.00  0.00    -0.026 A 
HETATM   14  C11 UNL     1      25.230   7.406  47.989  1.00  0.00     0.011 A 
HETATM   15  C12 UNL     1      26.549   7.049  47.877  1.00  0.00     0.020 A 
HETATM   16  C13 UNL     1      27.102   5.930  48.449  1.00  0.00     0.017 A 
HETATM   17 BR1  UNL     1      28.923   5.495  48.254  1.00  0.00    -0.051 Br
HETATM   18  C14 UNL     1      26.372   5.050  49.202  1.00  0.00    -0.038 A 
HETATM   19  C15 UNL     1      25.088   5.516  49.238  1.00  0.00     0.018 A 
HETATM   20  C16 UNL     1      26.719   3.765  49.850  1.00  0.00     0.066 C 
HETATM   21  C17 UNL     1      25.432   3.032  50.272  1.00  0.00     0.180 C 
HETATM   22  O3  UNL     1      24.555   2.820  49.211  1.00  0.00    -0.353 OA
ENDROOT
TORSDOF 0
ENDMDL
MODEL 8
REMARK VINA RESULT:      -6.9      2.447      3.298
REMARK  0 active torsions:
REMARK  status: ('A' for Active; 'I' for Inactive)
ROOT
HETATM    1  O1  UNL     1      25.697   7.612  50.315  1.00  0.00    -0.293 OA
HETATM    2  C1  UNL     1      24.586   7.185  49.953  1.00  0.00     0.179 C 
HETATM    3  C2  UNL     1      23.479   7.857  50.784  1.00  0.00     0.249 C 
HETATM    4  O2  UNL     1      22.381   7.330  50.568  1.00  0.00    -0.377 OA
HETATM    5  C3  UNL     1      21.269   6.796  50.349  1.00  0.00     0.232 C 
HETATM    6  C4  UNL     1      21.432   5.341  49.983  1.00  0.00     0.066 C 
HETATM    7  C5  UNL     1      21.145   4.704  48.884  1.00  0.00     0.008 C 
HETATM    8  C6  UNL     1      20.576   5.522  47.783  1.00  0.00     0.035 C 
HETATM    9  C7  UNL     1      21.645   5.605  46.672  1.00  0.00     0.050 C 
HETATM   10  C8  UNL     1      22.949   6.142  47.263  1.00  0.00     0.085 C 
HETATM   11  N1  UNL     1      23.604   5.729  48.255  1.00  0.00    -0.288 NA
HETATM   12  C9  UNL     1      24.818   6.188  48.841  1.00  0.00     0.211 C 
HETATM   13  C10 UNL     1      25.457   4.951  49.450  1.00  0.00    -0.026 A 
HETATM   14  C11 UNL     1      26.484   4.058  49.263  1.00  0.00     0.011 A 
HETATM   15  C12 UNL     1      26.576   2.992  50.120  1.00  0.00     0.020 A 
HETATM   16  C13 UNL     1      25.709   2.752  51.158  1.00  0.00     0.017 A 
HETATM   17 BR1  UNL     1      25.889   1.266  52.298  1.00  0.00    -0.051 Br
HETATM   18  C14 UNL     1      24.651   3.575  51.439  1.00  0.00    -0.038 A 
HETATM   19  C15 UNL     1      24.672   4.590  50.524  1.00  0.00     0.018 A 
HETATM   20  C16 UNL     1      23.561   3.492  52.437  1.00  0.00     0.066 C 
HETATM   21  C17 UNL     1      22.454   4.504  52.083  1.00  0.00     0.180 C 
HETATM   22  O3  UNL     1      21.951   4.329  50.797  1.00  0.00    -0.353 OA
ENDROOT
TORSDOF 0
ENDMDL
MODEL 9
REMARK VINA RESULT:      -6.8      5.838      7.375
REMARK  0 active torsions:
REMARK  status: ('A' for Active; 'I' for Inactive)
ROOT
HETATM    1  O1  UNL     1      28.319   8.925  49.675  1.00  0.00    -0.293 OA
HETATM    2  C1  UNL     1      27.632   9.015  48.642  1.00  0.00     0.179 C 
HETATM    3  C2  UNL     1      26.615  10.159  48.798  1.00  0.00     0.249 C 
HETATM    4  O2  UNL     1      25.806  10.164  47.861  1.00  0.00    -0.377 OA
HETATM    5  C3  UNL     1      24.988  10.167  46.912  1.00  0.00     0.232 C 
HETATM    6  C4  UNL     1      24.775   8.772  46.377  1.00  0.00     0.066 C 
HETATM    7  C5  UNL     1      25.030   8.263  45.206  1.00  0.00     0.008 C 
HETATM    8  C6  UNL     1      25.650   9.179  44.216  1.00  0.00     0.035 C 
HETATM    9  C7  UNL     1      27.105   8.710  44.001  1.00  0.00     0.050 C 
HETATM   10  C8  UNL     1      27.820   8.645  45.351  1.00  0.00     0.085 C 
HETATM   11  N1  UNL     1      27.482   8.046  46.404  1.00  0.00    -0.288 NA
HETATM   12  C9  UNL     1      28.110   7.952  47.679  1.00  0.00     0.211 C 
HETATM   13  C10 UNL     1      27.688   6.601  48.231  1.00  0.00    -0.026 A 
HETATM   14  C11 UNL     1      28.162   5.334  48.476  1.00  0.00     0.011 A 
HETATM   15  C12 UNL     1      27.279   4.394  48.939  1.00  0.00     0.020 A 
HETATM   16  C13 UNL     1      25.947   4.629  49.178  1.00  0.00     0.017 A 
HETATM   17 BR1  UNL     1      24.786   3.291  49.812  1.00  0.00    -0.051 Br
HETATM   18  C14 UNL     1      25.366   5.852  48.971  1.00  0.00    -0.038 A 
HETATM   19  C15 UNL     1      26.343   6.693  48.517  1.00  0.00     0.018 A 
HETATM   20  C16 UNL     1      23.968   6.324  49.085  1.00  0.00     0.066 C 
HETATM   21  C17 UNL     1      23.827   7.699  48.403  1.00  0.00     0.180 C 
HETATM   22  O3  UNL     1      24.229   7.687  47.071  1.00  0.00    -0.353 OA
ENDROOT
TORSDOF 0
ENDMDL
