MODEL 1
REMARK VINA RESULT:      -8.1      0.000      0.000
REMARK  3 active torsions:
REMARK  status: ('A' for Active; 'I' for Inactive)
REMARK    1  A    between atoms: N1_5  and  C4_6 
REMARK    2  A    between atoms: C4_6  and  C5_7 
REMARK    3  A    between atoms: C5_7  and  C6_8 
ROOT
HETATM    1 CL1  UNL     1      27.364  -2.475  52.443  1.00  0.00    -0.088 Cl
HETATM    2  C1  UNL     1      26.846  -1.002  53.265  1.00  0.00     0.025 C 
HETATM    3  C2  UNL     1      25.567  -0.672  53.011  1.00  0.00     0.023 C 
HETATM    4  C3  UNL     1      24.611   0.379  53.379  1.00  0.00     0.303 C 
HETATM    5  N1  UNL     1      25.003   1.707  53.032  1.00  0.00     0.111 N 
HETATM    6  C12 UNL     1      25.866   2.365  53.963  1.00  0.00     0.422 C 
HETATM    7  N2  UNL     1      27.285   2.149  53.659  1.00  0.00    -0.246 NA
HETATM    8  C13 UNL     1      28.036   1.102  53.730  1.00  0.00     0.113 A 
HETATM    9  N3  UNL     1      29.411   1.196  53.361  1.00  0.00    -0.354 N 
HETATM   10  C14 UNL     1      30.042  -0.070  53.514  1.00  0.00     0.086 A 
HETATM   11  C15 UNL     1      29.153  -0.947  53.954  1.00  0.00     0.008 A 
HETATM   12  C16 UNL     1      27.829  -0.294  54.125  1.00  0.00     0.123 A 
HETATM   13  H15 UNL     1      29.888   2.053  53.030  1.00  0.00     0.166 HD
ENDROOT
BRANCH   5  14
HETATM   14  C4  UNL     1      23.842   2.499  52.647  1.00  0.00     0.279 C 
BRANCH  14  15
HETATM   15  C5  UNL     1      22.673   1.646  52.209  1.00  0.00     0.069 C 
BRANCH  15  16
HETATM   16  C6  UNL     1      22.442   1.690  50.737  1.00  0.00    -0.057 A 
HETATM   17  C7  UNL     1      21.546   0.884  50.033  1.00  0.00     0.007 A 
HETATM   18  C8  UNL     1      21.471   1.073  48.669  1.00  0.00     0.001 A 
HETATM   19  C9  UNL     1      22.214   1.992  47.978  1.00  0.00     0.000 A 
HETATM   20  C10 UNL     1      23.082   2.769  48.688  1.00  0.00     0.001 A 
HETATM   21  C11 UNL     1      23.209   2.633  50.055  1.00  0.00     0.007 A 
ENDBRANCH  15  16
ENDBRANCH  14  15
ENDBRANCH   5  14
TORSDOF 3
ENDMDL
MODEL 2
REMARK VINA RESULT:      -8.0      2.091      2.789
REMARK  3 active torsions:
REMARK  status: ('A' for Active; 'I' for Inactive)
REMARK    1  A    between atoms: N1_5  and  C4_6 
REMARK    2  A    between atoms: C4_6  and  C5_7 
REMARK    3  A    between atoms: C5_7  and  C6_8 
ROOT
HETATM    1 CL1  UNL     1      27.305  -2.454  52.330  1.00  0.00    -0.088 Cl
HETATM    2  C1  UNL     1      26.901  -0.919  53.103  1.00  0.00     0.025 C 
HETATM    3  C2  UNL     1      25.695  -0.444  52.746  1.00  0.00     0.023 C 
HETATM    4  C3  UNL     1      24.844   0.716  53.032  1.00  0.00     0.303 C 
HETATM    5  N1  UNL     1      25.415   1.985  52.713  1.00  0.00     0.111 N 
HETATM    6  C12 UNL     1      26.274   2.549  53.709  1.00  0.00     0.422 C 
HETATM    7  N2  UNL     1      27.677   2.163  53.521  1.00  0.00    -0.246 NA
HETATM    8  C13 UNL     1      28.291   1.036  53.655  1.00  0.00     0.113 A 
HETATM    9  N3  UNL     1      29.693   0.963  53.397  1.00  0.00    -0.354 N 
HETATM   10  C14 UNL     1      30.155  -0.366  53.605  1.00  0.00     0.086 A 
HETATM   11  C15 UNL     1      29.136  -1.126  53.974  1.00  0.00     0.008 A 
HETATM   12  C16 UNL     1      27.890  -0.321  54.037  1.00  0.00     0.123 A 
HETATM   13  H15 UNL     1      30.292   1.754  53.102  1.00  0.00     0.166 HD
ENDROOT
BRANCH   5  14
HETATM   14  C4  UNL     1      24.391   2.903  52.234  1.00  0.00     0.279 C 
BRANCH  14  15
HETATM   15  C5  UNL     1      24.236   2.870  50.730  1.00  0.00     0.069 C 
BRANCH  15  16
HETATM   16  C6  UNL     1      25.206   3.758  50.028  1.00  0.00    -0.057 A 
HETATM   17  C7  UNL     1      26.479   3.384  49.594  1.00  0.00     0.007 A 
HETATM   18  C8  UNL     1      27.233   4.349  48.960  1.00  0.00     0.001 A 
HETATM   19  C9  UNL     1      26.811   5.632  48.734  1.00  0.00     0.000 A 
HETATM   20  C10 UNL     1      25.562   5.973  49.166  1.00  0.00     0.001 A 
HETATM   21  C11 UNL     1      24.753   5.058  49.809  1.00  0.00     0.007 A 
ENDBRANCH  15  16
ENDBRANCH  14  15
ENDBRANCH   5  14
TORSDOF 3
ENDMDL
MODEL 3
REMARK VINA RESULT:      -7.8      3.369      7.422
REMARK  3 active torsions:
REMARK  status: ('A' for Active; 'I' for Inactive)
REMARK    1  A    between atoms: N1_5  and  C4_6 
REMARK    2  A    between atoms: C4_6  and  C5_7 
REMARK    3  A    between atoms: C5_7  and  C6_8 
ROOT
HETATM    1 CL1  UNL     1      20.212   0.652  50.336  1.00  0.00    -0.088 Cl
HETATM    2  C1  UNL     1      20.935   0.521  51.941  1.00  0.00     0.025 C 
HETATM    3  C2  UNL     1      22.272   0.660  51.936  1.00  0.00     0.023 C 
HETATM    4  C3  UNL     1      23.380   0.653  52.899  1.00  0.00     0.303 C 
HETATM    5  N1  UNL     1      23.528  -0.552  53.649  1.00  0.00     0.111 N 
HETATM    6  C12 UNL     1      22.704  -0.666  54.813  1.00  0.00     0.422 C 
HETATM    7  N2  UNL     1      21.417  -1.312  54.526  1.00  0.00    -0.246 NA
HETATM    8  C13 UNL     1      20.385  -0.926  53.855  1.00  0.00     0.113 A 
HETATM    9  N3  UNL     1      19.253  -1.788  53.747  1.00  0.00    -0.354 N 
HETATM   10  C14 UNL     1      18.241  -1.163  52.967  1.00  0.00     0.086 A 
HETATM   11  C15 UNL     1      18.666   0.029  52.580  1.00  0.00     0.008 A 
HETATM   12  C16 UNL     1      20.036   0.280  53.098  1.00  0.00     0.123 A 
HETATM   13  H15 UNL     1      19.172  -2.729  54.170  1.00  0.00     0.166 HD
ENDROOT
BRANCH   5  14
HETATM   14  C4  UNL     1      24.936  -0.832  53.897  1.00  0.00     0.279 C 
BRANCH  14  15
HETATM   15  C5  UNL     1      25.844  -0.225  52.851  1.00  0.00     0.069 C 
BRANCH  15  16
HETATM   16  C6  UNL     1      27.283  -0.537  53.082  1.00  0.00    -0.057 A 
HETATM   17  C7  UNL     1      27.856  -1.809  53.025  1.00  0.00     0.007 A 
HETATM   18  C8  UNL     1      29.210  -1.898  53.267  1.00  0.00     0.001 A 
HETATM   19  C9  UNL     1      30.013  -0.826  53.555  1.00  0.00     0.000 A 
HETATM   20  C10 UNL     1      29.430   0.407  53.604  1.00  0.00     0.001 A 
HETATM   21  C11 UNL     1      28.080   0.569  53.373  1.00  0.00     0.007 A 
ENDBRANCH  15  16
ENDBRANCH  14  15
ENDBRANCH   5  14
TORSDOF 3
ENDMDL
MODEL 4
REMARK VINA RESULT:      -7.8      3.131      4.053
REMARK  3 active torsions:
REMARK  status: ('A' for Active; 'I' for Inactive)
REMARK    1  A    between atoms: N1_5  and  C4_6 
REMARK    2  A    between atoms: C4_6  and  C5_7 
REMARK    3  A    between atoms: C5_7  and  C6_8 
ROOT
HETATM    1 CL1  UNL     1      26.936   2.427  51.769  1.00  0.00    -0.088 Cl
HETATM    2  C1  UNL     1      25.780   1.157  52.181  1.00  0.00     0.025 C 
HETATM    3  C2  UNL     1      24.505   1.491  51.913  1.00  0.00     0.023 C 
HETATM    4  C3  UNL     1      23.169   0.896  52.025  1.00  0.00     0.303 C 
HETATM    5  N1  UNL     1      22.774   0.526  53.346  1.00  0.00     0.111 N 
HETATM    6  C12 UNL     1      23.226  -0.755  53.795  1.00  0.00     0.422 C 
HETATM    7  N2  UNL     1      24.519  -0.681  54.484  1.00  0.00    -0.246 NA
HETATM    8  C13 UNL     1      25.712  -0.428  54.063  1.00  0.00     0.113 A 
HETATM    9  N3  UNL     1      26.800  -0.427  54.987  1.00  0.00    -0.354 N 
HETATM   10  C14 UNL     1      28.012  -0.124  54.307  1.00  0.00     0.086 A 
HETATM   11  C15 UNL     1      27.754   0.065  53.023  1.00  0.00     0.008 A 
HETATM   12  C16 UNL     1      26.302  -0.107  52.760  1.00  0.00     0.123 A 
HETATM   13  H15 UNL     1      26.727  -0.617  56.001  1.00  0.00     0.166 HD
ENDROOT
BRANCH   5  14
HETATM   14  C4  UNL     1      21.346   0.744  53.534  1.00  0.00     0.279 C 
BRANCH  14  15
HETATM   15  C5  UNL     1      20.582  -0.545  53.745  1.00  0.00     0.069 C 
BRANCH  15  16
HETATM   16  C6  UNL     1      19.303  -0.592  52.981  1.00  0.00    -0.057 A 
HETATM   17  C7  UNL     1      18.167  -1.315  53.347  1.00  0.00     0.007 A 
HETATM   18  C8  UNL     1      17.075  -1.233  52.510  1.00  0.00     0.001 A 
HETATM   19  C9  UNL     1      17.042  -0.494  51.357  1.00  0.00     0.000 A 
HETATM   20  C10 UNL     1      18.165   0.205  51.020  1.00  0.00     0.001 A 
HETATM   21  C11 UNL     1      19.294   0.168  51.812  1.00  0.00     0.007 A 
ENDBRANCH  15  16
ENDBRANCH  14  15
ENDBRANCH   5  14
TORSDOF 3
ENDMDL
MODEL 5
REMARK VINA RESULT:      -7.6      3.490      6.713
REMARK  3 active torsions:
REMARK  status: ('A' for Active; 'I' for Inactive)
REMARK    1  A    between atoms: N1_5  and  C4_6 
REMARK    2  A    between atoms: C4_6  and  C5_7 
REMARK    3  A    between atoms: C5_7  and  C6_8 
ROOT
HETATM    1 CL1  UNL     1      23.949   6.915  50.829  1.00  0.00    -0.088 Cl
HETATM    2  C1  UNL     1      24.441   5.233  50.624  1.00  0.00     0.025 C 
HETATM    3  C2  UNL     1      24.020   4.429  51.616  1.00  0.00     0.023 C 
HETATM    4  C3  UNL     1      24.103   3.013  51.992  1.00  0.00     0.303 C 
HETATM    5  N1  UNL     1      25.425   2.506  52.169  1.00  0.00     0.111 N 
HETATM    6  C12 UNL     1      26.094   2.082  50.978  1.00  0.00     0.422 C 
HETATM    7  N2  UNL     1      26.873   3.161  50.360  1.00  0.00    -0.246 NA
HETATM    8  C13 UNL     1      26.523   4.245  49.756  1.00  0.00     0.113 A 
HETATM    9  N3  UNL     1      27.526   5.123  49.246  1.00  0.00    -0.354 N 
HETATM   10  C14 UNL     1      26.915   6.248  48.625  1.00  0.00     0.086 A 
HETATM   11  C15 UNL     1      25.600   6.131  48.713  1.00  0.00     0.008 A 
HETATM   12  C16 UNL     1      25.242   4.876  49.424  1.00  0.00     0.123 A 
HETATM   13  H15 UNL     1      28.547   4.972  49.314  1.00  0.00     0.166 HD
ENDROOT
BRANCH   5  14
HETATM   14  C4  UNL     1      25.456   1.521  53.243  1.00  0.00     0.279 C 
BRANCH  14  15
HETATM   15  C5  UNL     1      26.782   1.492  53.969  1.00  0.00     0.069 C 
BRANCH  15  16
HETATM   16  C6  UNL     1      27.580   0.269  53.669  1.00  0.00    -0.057 A 
HETATM   17  C7  UNL     1      27.072  -0.923  53.149  1.00  0.00     0.007 A 
HETATM   18  C8  UNL     1      27.970  -1.948  52.937  1.00  0.00     0.001 A 
HETATM   19  C9  UNL     1      29.311  -1.864  53.203  1.00  0.00     0.000 A 
HETATM   20  C10 UNL     1      29.784  -0.688  53.710  1.00  0.00     0.001 A 
HETATM   21  C11 UNL     1      28.942   0.378  53.948  1.00  0.00     0.007 A 
ENDBRANCH  15  16
ENDBRANCH  14  15
ENDBRANCH   5  14
TORSDOF 3
ENDMDL
MODEL 6
REMARK VINA RESULT:      -7.5      3.391      5.420
REMARK  3 active torsions:
REMARK  status: ('A' for Active; 'I' for Inactive)
REMARK    1  A    between atoms: N1_5  and  C4_6 
REMARK    2  A    between atoms: C4_6  and  C5_7 
REMARK    3  A    between atoms: C5_7  and  C6_8 
ROOT
HETATM    1 CL1  UNL     1      24.866  -0.899  55.077  1.00  0.00    -0.088 Cl
HETATM    2  C1  UNL     1      24.212  -0.163  53.612  1.00  0.00     0.025 C 
HETATM    3  C2  UNL     1      25.066   0.689  53.016  1.00  0.00     0.023 C 
HETATM    4  C3  UNL     1      25.103   1.559  51.836  1.00  0.00     0.303 C 
HETATM    5  N1  UNL     1      24.095   2.570  51.791  1.00  0.00     0.111 N 
HETATM    6  C12 UNL     1      22.826   2.161  51.273  1.00  0.00     0.422 C 
HETATM    7  N2  UNL     1      21.923   1.676  52.324  1.00  0.00    -0.246 NA
HETATM    8  C13 UNL     1      21.943   0.618  53.062  1.00  0.00     0.113 A 
HETATM    9  N3  UNL     1      20.906   0.409  54.020  1.00  0.00    -0.354 N 
HETATM   10  C14 UNL     1      21.129  -0.810  54.717  1.00  0.00     0.086 A 
HETATM   11  C15 UNL     1      22.235  -1.376  54.260  1.00  0.00     0.008 A 
HETATM   12  C16 UNL     1      22.837  -0.536  53.192  1.00  0.00     0.123 A 
HETATM   13  H15 UNL     1      20.107   1.045  54.189  1.00  0.00     0.166 HD
ENDROOT
BRANCH   5  14
HETATM   14  C4  UNL     1      24.615   3.785  51.179  1.00  0.00     0.279 C 
BRANCH  14  15
HETATM   15  C5  UNL     1      24.864   3.630  49.695  1.00  0.00     0.069 C 
BRANCH  15  16
HETATM   16  C6  UNL     1      25.885   4.583  49.176  1.00  0.00    -0.057 A 
HETATM   17  C7  UNL     1      27.240   4.300  48.993  1.00  0.00     0.007 A 
HETATM   18  C8  UNL     1      28.031   5.315  48.499  1.00  0.00     0.001 A 
HETATM   19  C9  UNL     1      27.572   6.565  48.182  1.00  0.00     0.000 A 
HETATM   20  C10 UNL     1      26.244   6.819  48.370  1.00  0.00     0.001 A 
HETATM   21  C11 UNL     1      25.393   5.850  48.861  1.00  0.00     0.007 A 
ENDBRANCH  15  16
ENDBRANCH  14  15
ENDBRANCH   5  14
TORSDOF 3
ENDMDL
MODEL 7
REMARK VINA RESULT:      -7.4      3.856      5.946
REMARK  3 active torsions:
REMARK  status: ('A' for Active; 'I' for Inactive)
REMARK    1  A    between atoms: N1_5  and  C4_6 
REMARK    2  A    between atoms: C4_6  and  C5_7 
REMARK    3  A    between atoms: C5_7  and  C6_8 
ROOT
HETATM    1 CL1  UNL     1      24.254   7.332  50.458  1.00  0.00    -0.088 Cl
HETATM    2  C1  UNL     1      24.570   5.599  50.352  1.00  0.00     0.025 C 
HETATM    3  C2  UNL     1      23.995   4.891  51.341  1.00  0.00     0.023 C 
HETATM    4  C3  UNL     1      23.895   3.493  51.774  1.00  0.00     0.303 C 
HETATM    5  N1  UNL     1      25.138   2.855  52.067  1.00  0.00     0.111 N 
HETATM    6  C12 UNL     1      25.836   2.307  50.945  1.00  0.00     0.422 C 
HETATM    7  N2  UNL     1      26.770   3.267  50.345  1.00  0.00    -0.246 NA
HETATM    8  C13 UNL     1      26.584   4.355  49.677  1.00  0.00     0.113 A 
HETATM    9  N3  UNL     1      27.711   5.095  49.210  1.00  0.00    -0.354 N 
HETATM   10  C14 UNL     1      27.273   6.250  48.504  1.00  0.00     0.086 A 
HETATM   11  C15 UNL     1      25.950   6.280  48.500  1.00  0.00     0.008 A 
HETATM   12  C16 UNL     1      25.407   5.105  49.229  1.00  0.00     0.123 A 
HETATM   13  H15 UNL     1      28.703   4.839  49.358  1.00  0.00     0.166 HD
ENDROOT
BRANCH   5  14
HETATM   14  C4  UNL     1      24.986   1.922  53.176  1.00  0.00     0.279 C 
BRANCH  14  15
HETATM   15  C5  UNL     1      24.699   0.510  52.715  1.00  0.00     0.069 C 
BRANCH  15  16
HETATM   16  C6  UNL     1      23.362   0.018  53.153  1.00  0.00    -0.057 A 
HETATM   17  C7  UNL     1      22.150   0.283  52.512  1.00  0.00     0.007 A 
HETATM   18  C8  UNL     1      21.014  -0.264  53.069  1.00  0.00     0.001 A 
HETATM   19  C9  UNL     1      21.006  -1.040  54.198  1.00  0.00     0.000 A 
HETATM   20  C10 UNL     1      22.202  -1.285  54.807  1.00  0.00     0.001 A 
HETATM   21  C11 UNL     1      23.379  -0.769  54.304  1.00  0.00     0.007 A 
ENDBRANCH  15  16
ENDBRANCH  14  15
ENDBRANCH   5  14
TORSDOF 3
ENDMDL
MODEL 8
REMARK VINA RESULT:      -7.4      2.081      3.003
REMARK  3 active torsions:
REMARK  status: ('A' for Active; 'I' for Inactive)
REMARK    1  A    between atoms: N1_5  and  C4_6 
REMARK    2  A    between atoms: C4_6  and  C5_7 
REMARK    3  A    between atoms: C5_7  and  C6_8 
ROOT
HETATM    1 CL1  UNL     1      27.927  -1.713  53.111  1.00  0.00    -0.088 Cl
HETATM    2  C1  UNL     1      26.670  -0.542  53.517  1.00  0.00     0.025 C 
HETATM    3  C2  UNL     1      25.479  -0.823  52.958  1.00  0.00     0.023 C 
HETATM    4  C3  UNL     1      24.124  -0.262  52.921  1.00  0.00     0.303 C 
HETATM    5  N1  UNL     1      24.028   1.067  52.408  1.00  0.00     0.111 N 
HETATM    6  C12 UNL     1      24.283   2.116  53.347  1.00  0.00     0.422 C 
HETATM    7  N2  UNL     1      25.697   2.510  53.375  1.00  0.00    -0.246 NA
HETATM    8  C13 UNL     1      26.756   1.903  53.792  1.00  0.00     0.113 A 
HETATM    9  N3  UNL     1      28.024   2.550  53.689  1.00  0.00    -0.354 N 
HETATM   10  C14 UNL     1      29.044   1.702  54.204  1.00  0.00     0.086 A 
HETATM   11  C15 UNL     1      28.498   0.571  54.621  1.00  0.00     0.008 A 
HETATM   12  C16 UNL     1      27.029   0.597  54.400  1.00  0.00     0.123 A 
HETATM   13  H15 UNL     1      28.187   3.495  53.299  1.00  0.00     0.166 HD
ENDROOT
BRANCH   5  14
HETATM   14  C4  UNL     1      22.791   1.239  51.658  1.00  0.00     0.279 C 
BRANCH  14  15
HETATM   15  C5  UNL     1      21.644   1.707  52.525  1.00  0.00     0.069 C 
BRANCH  15  16
HETATM   16  C6  UNL     1      20.410   0.890  52.344  1.00  0.00    -0.057 A 
HETATM   17  C7  UNL     1      19.541   0.965  51.254  1.00  0.00     0.007 A 
HETATM   18  C8  UNL     1      18.449   0.124  51.264  1.00  0.00     0.001 A 
HETATM   19  C9  UNL     1      18.172  -0.767  52.267  1.00  0.00     0.000 A 
HETATM   20  C10 UNL     1      19.036  -0.822  53.322  1.00  0.00     0.001 A 
HETATM   21  C11 UNL     1      20.150  -0.009  53.377  1.00  0.00     0.007 A 
ENDBRANCH  15  16
ENDBRANCH  14  15
ENDBRANCH   5  14
TORSDOF 3
ENDMDL
MODEL 9
REMARK VINA RESULT:      -7.1      3.410      7.135
REMARK  3 active torsions:
REMARK  status: ('A' for Active; 'I' for Inactive)
REMARK    1  A    between atoms: N1_5  and  C4_6 
REMARK    2  A    between atoms: C4_6  and  C5_7 
REMARK    3  A    between atoms: C5_7  and  C6_8 
ROOT
HETATM    1 CL1  UNL     1      24.422   5.900  48.370  1.00  0.00    -0.088 Cl
HETATM    2  C1  UNL     1      24.633   5.215  49.983  1.00  0.00     0.025 C 
HETATM    3  C2  UNL     1      25.334   4.067  49.987  1.00  0.00     0.023 C 
HETATM    4  C3  UNL     1      25.814   3.078  50.959  1.00  0.00     0.303 C 
HETATM    5  N1  UNL     1      24.798   2.437  51.730  1.00  0.00     0.111 N 
HETATM    6  C12 UNL     1      24.354   3.149  52.889  1.00  0.00     0.422 C 
HETATM    7  N2  UNL     1      23.215   4.029  52.602  1.00  0.00    -0.246 NA
HETATM    8  C13 UNL     1      23.112   5.116  51.916  1.00  0.00     0.113 A 
HETATM    9  N3  UNL     1      21.845   5.766  51.813  1.00  0.00    -0.354 N 
HETATM   10  C14 UNL     1      21.965   6.937  51.014  1.00  0.00     0.086 A 
HETATM   11  C15 UNL     1      23.220   7.061  50.611  1.00  0.00     0.008 A 
HETATM   12  C16 UNL     1      24.041   5.940  51.137  1.00  0.00     0.123 A 
HETATM   13  H15 UNL     1      20.965   5.441  52.251  1.00  0.00     0.166 HD
ENDROOT
BRANCH   5  14
HETATM   14  C4  UNL     1      25.154   1.049  51.994  1.00  0.00     0.279 C 
BRANCH  14  15
HETATM   15  C5  UNL     1      25.661   0.836  53.403  1.00  0.00     0.069 C 
BRANCH  15  16
HETATM   16  C6  UNL     1      27.041   0.273  53.443  1.00  0.00    -0.057 A 
HETATM   17  C7  UNL     1      27.401  -1.019  53.054  1.00  0.00     0.007 A 
HETATM   18  C8  UNL     1      28.733  -1.358  53.162  1.00  0.00     0.001 A 
HETATM   19  C9  UNL     1      29.707  -0.513  53.622  1.00  0.00     0.000 A 
HETATM   20  C10 UNL     1      29.331   0.745  53.996  1.00  0.00     0.001 A 
HETATM   21  C11 UNL     1      28.015   1.152  53.914  1.00  0.00     0.007 A 
ENDBRANCH  15  16
ENDBRANCH  14  15
ENDBRANCH   5  14
TORSDOF 3
ENDMDL
