MODEL 1
REMARK VINA RESULT:      -8.3      0.000      0.000
REMARK  4 active torsions:
REMARK  status: ('A' for Active; 'I' for Inactive)
REMARK    1  A    between atoms: O1_2  and  C2_3 
REMARK    2  A    between atoms: C5_6  and  C6_7 
REMARK    3  A    between atoms: C8_9  and  C9_10 
REMARK    4  A    between atoms: N2_18  and  C16_19 
ROOT
HETATM    1  C6  UNL     1      23.701   1.573  53.303  1.00  0.00     0.151 C 
HETATM    2  C7  UNL     1      23.412   2.797  52.498  1.00  0.00     0.094 C 
HETATM    3  C8  UNL     1      23.859   2.393  51.133  1.00  0.00     0.067 C 
HETATM    4  N1  UNL     1      24.643   1.369  51.228  1.00  0.00    -0.173 NA
HETATM    5  N2  UNL     1      24.804   0.992  52.558  1.00  0.00    -0.237 N 
ENDROOT
BRANCH   1   6
HETATM    6  C5  UNL     1      22.571   0.645  53.452  1.00  0.00    -0.033 A 
HETATM    7  C4  UNL     1      22.680  -0.566  54.072  1.00  0.00     0.012 A 
HETATM    8  C3  UNL     1      21.578  -1.388  54.177  1.00  0.00     0.037 A 
HETATM    9  C2  UNL     1      20.321  -1.064  53.680  1.00  0.00     0.068 A 
HETATM   10  C20 UNL     1      20.212   0.164  53.051  1.00  0.00     0.037 A 
HETATM   11  C19 UNL     1      21.312   0.983  52.948  1.00  0.00     0.012 A 
BRANCH   9  12
HETATM   12  O1  UNL     1      19.254  -1.932  53.817  1.00  0.00    -0.356 OA
HETATM   13  C1  UNL     1      17.970  -1.512  53.380  1.00  0.00     0.210 C 
ENDBRANCH   9  12
ENDBRANCH   1   6
BRANCH   5  14
HETATM   14  C16 UNL     1      25.913   0.180  52.934  1.00  0.00     0.185 C 
HETATM   15  N3  UNL     1      26.621  -0.614  52.240  1.00  0.00    -0.239 NA
HETATM   16  C17 UNL     1      27.708  -1.321  52.912  1.00  0.00     0.320 C 
HETATM   17  O2  UNL     1      28.655  -0.462  53.416  1.00  0.00    -0.360 OA
HETATM   18  C18 UNL     1      28.272   0.109  54.621  1.00  0.00     0.252 C 
HETATM   19  S1  UNL     1      26.462   0.221  54.634  1.00  0.00    -0.065 SA
ENDBRANCH   5  14
BRANCH   3  20
HETATM   20  C9  UNL     1      23.432   3.097  49.927  1.00  0.00    -0.010 A 
HETATM   21  C10 UNL     1      23.788   4.399  49.644  1.00  0.00     0.014 A 
HETATM   22  C11 UNL     1      23.402   5.079  48.524  1.00  0.00     0.007 A 
HETATM   23  C12 UNL     1      22.609   4.444  47.609  1.00  0.00    -0.062 A 
HETATM   24  C13 UNL     1      22.235   5.268  46.411  1.00  0.00     0.048 C 
HETATM   25  C14 UNL     1      22.220   3.153  47.829  1.00  0.00     0.007 A 
HETATM   26  C15 UNL     1      22.632   2.505  48.972  1.00  0.00     0.014 A 
ENDBRANCH   3  20
TORSDOF 4
ENDMDL
MODEL 2
REMARK VINA RESULT:      -8.1      3.503      6.384
REMARK  4 active torsions:
REMARK  status: ('A' for Active; 'I' for Inactive)
REMARK    1  A    between atoms: O1_2  and  C2_3 
REMARK    2  A    between atoms: C5_6  and  C6_7 
REMARK    3  A    between atoms: C8_9  and  C9_10 
REMARK    4  A    between atoms: N2_18  and  C16_19 
ROOT
HETATM    1  C6  UNL     1      24.653   2.493  50.467  1.00  0.00     0.151 C 
HETATM    2  C7  UNL     1      25.405   3.371  49.521  1.00  0.00     0.094 C 
HETATM    3  C8  UNL     1      25.045   4.738  50.002  1.00  0.00     0.067 C 
HETATM    4  N1  UNL     1      23.983   4.664  50.736  1.00  0.00    -0.173 NA
HETATM    5  N2  UNL     1      23.538   3.349  50.830  1.00  0.00    -0.237 N 
ENDROOT
BRANCH   1   6
HETATM    6  C5  UNL     1      25.419   2.038  51.636  1.00  0.00    -0.033 A 
HETATM    7  C4  UNL     1      24.888   1.242  52.609  1.00  0.00     0.012 A 
HETATM    8  C3  UNL     1      25.663   0.853  53.680  1.00  0.00     0.037 A 
HETATM    9  C2  UNL     1      26.993   1.225  53.849  1.00  0.00     0.068 A 
HETATM   10  C20 UNL     1      27.530   2.032  52.862  1.00  0.00     0.037 A 
HETATM   11  C19 UNL     1      26.754   2.420  51.793  1.00  0.00     0.012 A 
BRANCH   9  12
HETATM   12  O1  UNL     1      27.719   0.801  54.946  1.00  0.00    -0.356 OA
HETATM   13  C1  UNL     1      28.822  -0.069  54.741  1.00  0.00     0.210 C 
ENDBRANCH   9  12
ENDBRANCH   1   6
BRANCH   5  14
HETATM   14  C16 UNL     1      22.195   3.083  51.227  1.00  0.00     0.185 C 
HETATM   15  N3  UNL     1      21.737   2.642  52.328  1.00  0.00    -0.239 NA
HETATM   16  C17 UNL     1      20.292   2.469  52.442  1.00  0.00     0.320 C 
HETATM   17  O2  UNL     1      19.613   3.656  52.307  1.00  0.00    -0.360 OA
HETATM   18  C18 UNL     1      19.467   4.042  50.982  1.00  0.00     0.252 C 
HETATM   19  S1  UNL     1      20.883   3.388  50.054  1.00  0.00    -0.065 SA
ENDBRANCH   5  14
BRANCH   3  20
HETATM   20  C9  UNL     1      25.824   5.922  49.652  1.00  0.00    -0.010 A 
HETATM   21  C10 UNL     1      26.793   5.929  48.671  1.00  0.00     0.014 A 
HETATM   22  C11 UNL     1      27.535   7.024  48.326  1.00  0.00     0.007 A 
HETATM   23  C12 UNL     1      27.317   8.201  48.986  1.00  0.00    -0.062 A 
HETATM   24  C13 UNL     1      28.176   9.348  48.541  1.00  0.00     0.048 C 
HETATM   25  C14 UNL     1      26.370   8.262  49.969  1.00  0.00     0.007 A 
HETATM   26  C15 UNL     1      25.646   7.135  50.285  1.00  0.00     0.014 A 
ENDBRANCH   3  20
TORSDOF 4
ENDMDL
MODEL 3
REMARK VINA RESULT:      -8.0      1.467      1.811
REMARK  4 active torsions:
REMARK  status: ('A' for Active; 'I' for Inactive)
REMARK    1  A    between atoms: O1_2  and  C2_3 
REMARK    2  A    between atoms: C5_6  and  C6_7 
REMARK    3  A    between atoms: C8_9  and  C9_10 
REMARK    4  A    between atoms: N2_18  and  C16_19 
ROOT
HETATM    1  C6  UNL     1      23.994   2.364  53.085  1.00  0.00     0.151 C 
HETATM    2  C7  UNL     1      24.061   3.762  52.565  1.00  0.00     0.094 C 
HETATM    3  C8  UNL     1      24.748   3.581  51.253  1.00  0.00     0.067 C 
HETATM    4  N1  UNL     1      25.345   2.434  51.240  1.00  0.00    -0.173 NA
HETATM    5  N2  UNL     1      25.149   1.762  52.443  1.00  0.00    -0.237 N 
ENDROOT
BRANCH   1   6
HETATM    6  C5  UNL     1      22.745   1.648  52.786  1.00  0.00    -0.033 A 
HETATM    7  C4  UNL     1      22.603   0.300  52.952  1.00  0.00     0.012 A 
HETATM    8  C3  UNL     1      21.403  -0.307  52.650  1.00  0.00     0.037 A 
HETATM    9  C2  UNL     1      20.288   0.374  52.173  1.00  0.00     0.068 A 
HETATM   10  C20 UNL     1      20.435   1.740  52.005  1.00  0.00     0.037 A 
HETATM   11  C19 UNL     1      21.633   2.345  52.306  1.00  0.00     0.012 A 
BRANCH   9  12
HETATM   12  O1  UNL     1      19.111  -0.293  51.890  1.00  0.00    -0.356 OA
HETATM   13  C1  UNL     1      18.383  -0.878  52.959  1.00  0.00     0.210 C 
ENDBRANCH   9  12
ENDBRANCH   1   6
BRANCH   5  14
HETATM   14  C16 UNL     1      26.025   0.700  52.812  1.00  0.00     0.185 C 
HETATM   15  N3  UNL     1      26.566  -0.203  52.098  1.00  0.00    -0.239 NA
HETATM   16  C17 UNL     1      27.430  -1.171  52.767  1.00  0.00     0.320 C 
HETATM   17  O2  UNL     1      28.523  -0.578  53.352  1.00  0.00    -0.360 OA
HETATM   18  C18 UNL     1      28.224   0.008  54.574  1.00  0.00     0.252 C 
HETATM   19  S1  UNL     1      26.488   0.533  54.529  1.00  0.00    -0.065 SA
ENDBRANCH   5  14
BRANCH   3  20
HETATM   20  C9  UNL     1      24.703   4.589  50.198  1.00  0.00    -0.010 A 
HETATM   21  C10 UNL     1      25.822   5.247  49.731  1.00  0.00     0.014 A 
HETATM   22  C11 UNL     1      25.807   6.194  48.747  1.00  0.00     0.007 A 
HETATM   23  C12 UNL     1      24.612   6.526  48.172  1.00  0.00    -0.062 A 
HETATM   24  C13 UNL     1      24.691   7.574  47.100  1.00  0.00     0.048 C 
HETATM   25  C14 UNL     1      23.465   5.912  48.589  1.00  0.00     0.007 A 
HETATM   26  C15 UNL     1      23.526   4.964  49.585  1.00  0.00     0.014 A 
ENDBRANCH   3  20
TORSDOF 4
ENDMDL
MODEL 4
REMARK VINA RESULT:      -7.9      3.004      6.432
REMARK  4 active torsions:
REMARK  status: ('A' for Active; 'I' for Inactive)
REMARK    1  A    between atoms: O1_2  and  C2_3 
REMARK    2  A    between atoms: C5_6  and  C6_7 
REMARK    3  A    between atoms: C8_9  and  C9_10 
REMARK    4  A    between atoms: N2_18  and  C16_19 
ROOT
HETATM    1  C6  UNL     1      24.789   2.824  52.634  1.00  0.00     0.151 C 
HETATM    2  C7  UNL     1      23.475   2.504  53.267  1.00  0.00     0.094 C 
HETATM    3  C8  UNL     1      22.691   1.962  52.119  1.00  0.00     0.067 C 
HETATM    4  N1  UNL     1      23.255   2.323  51.012  1.00  0.00    -0.173 NA
HETATM    5  N2  UNL     1      24.391   3.087  51.262  1.00  0.00    -0.237 N 
ENDROOT
BRANCH   1   6
HETATM    6  C5  UNL     1      25.803   1.764  52.733  1.00  0.00    -0.033 A 
HETATM    7  C4  UNL     1      25.635   0.522  52.193  1.00  0.00     0.012 A 
HETATM    8  C3  UNL     1      26.628  -0.425  52.324  1.00  0.00     0.037 A 
HETATM    9  C2  UNL     1      27.828  -0.202  52.988  1.00  0.00     0.068 A 
HETATM   10  C20 UNL     1      27.997   1.058  53.535  1.00  0.00     0.037 A 
HETATM   11  C19 UNL     1      27.005   2.002  53.404  1.00  0.00     0.012 A 
BRANCH   9  12
HETATM   12  O1  UNL     1      28.786  -1.194  53.085  1.00  0.00    -0.356 OA
HETATM   13  C1  UNL     1      30.010  -0.901  53.742  1.00  0.00     0.210 C 
ENDBRANCH   9  12
ENDBRANCH   1   6
BRANCH   5  14
HETATM   14  C16 UNL     1      24.924   3.920  50.236  1.00  0.00     0.185 C 
HETATM   15  N3  UNL     1      24.521   5.043  49.798  1.00  0.00    -0.239 NA
HETATM   16  C17 UNL     1      25.285   5.668  48.722  1.00  0.00     0.320 C 
HETATM   17  O2  UNL     1      26.575   5.956  49.098  1.00  0.00    -0.360 OA
HETATM   18  C18 UNL     1      27.407   4.846  49.053  1.00  0.00     0.252 C 
HETATM   19  S1  UNL     1      26.391   3.377  49.374  1.00  0.00    -0.065 SA
ENDBRANCH   5  14
BRANCH   3  20
HETATM   20  C9  UNL     1      21.487   1.158  52.300  1.00  0.00    -0.010 A 
HETATM   21  C10 UNL     1      21.197   0.480  53.466  1.00  0.00     0.014 A 
HETATM   22  C11 UNL     1      20.078  -0.279  53.661  1.00  0.00     0.007 A 
HETATM   23  C12 UNL     1      19.171  -0.386  52.644  1.00  0.00    -0.062 A 
HETATM   24  C13 UNL     1      17.973  -1.238  52.947  1.00  0.00     0.048 C 
HETATM   25  C14 UNL     1      19.397   0.261  51.462  1.00  0.00     0.007 A 
HETATM   26  C15 UNL     1      20.539   1.015  51.308  1.00  0.00     0.014 A 
ENDBRANCH   3  20
TORSDOF 4
ENDMDL
MODEL 5
REMARK VINA RESULT:      -7.9      3.820      6.175
REMARK  4 active torsions:
REMARK  status: ('A' for Active; 'I' for Inactive)
REMARK    1  A    between atoms: O1_2  and  C2_3 
REMARK    2  A    between atoms: C5_6  and  C6_7 
REMARK    3  A    between atoms: C8_9  and  C9_10 
REMARK    4  A    between atoms: N2_18  and  C16_19 
ROOT
HETATM    1  C6  UNL     1      20.583   1.054  50.549  1.00  0.00     0.151 C 
HETATM    2  C7  UNL     1      21.720   1.416  49.651  1.00  0.00     0.094 C 
HETATM    3  C8  UNL     1      22.008   2.823  50.054  1.00  0.00     0.067 C 
HETATM    4  N1  UNL     1      20.988   3.301  50.690  1.00  0.00    -0.173 NA
HETATM    5  N2  UNL     1      19.975   2.352  50.781  1.00  0.00    -0.237 N 
ENDROOT
BRANCH   1   6
HETATM    6  C5  UNL     1      20.967   0.379  51.797  1.00  0.00    -0.033 A 
HETATM    7  C4  UNL     1      20.056  -0.096  52.696  1.00  0.00     0.012 A 
HETATM    8  C3  UNL     1      20.487  -0.719  53.848  1.00  0.00     0.037 A 
HETATM    9  C2  UNL     1      21.825  -0.904  54.174  1.00  0.00     0.068 A 
HETATM   10  C20 UNL     1      22.747  -0.421  53.263  1.00  0.00     0.037 A 
HETATM   11  C19 UNL     1      22.317   0.200  52.113  1.00  0.00     0.012 A 
BRANCH   9  12
HETATM   12  O1  UNL     1      22.193  -1.538  55.347  1.00  0.00    -0.356 OA
HETATM   13  C1  UNL     1      23.556  -1.504  55.743  1.00  0.00     0.210 C 
ENDBRANCH   9  12
ENDBRANCH   1   6
BRANCH   5  14
HETATM   14  C16 UNL     1      18.640   2.765  51.060  1.00  0.00     0.185 C 
HETATM   15  N3  UNL     1      18.211   3.763  51.721  1.00  0.00    -0.239 NA
HETATM   16  C17 UNL     1      16.766   3.931  51.838  1.00  0.00     0.320 C 
HETATM   17  O2  UNL     1      16.162   4.117  50.617  1.00  0.00    -0.360 OA
HETATM   18  C18 UNL     1      15.974   2.929  49.926  1.00  0.00     0.252 C 
HETATM   19  S1  UNL     1      17.292   1.784  50.421  1.00  0.00    -0.065 SA
ENDBRANCH   5  14
BRANCH   3  20
HETATM   20  C9  UNL     1      23.271   3.486  49.743  1.00  0.00    -0.010 A 
HETATM   21  C10 UNL     1      23.349   4.720  49.133  1.00  0.00     0.014 A 
HETATM   22  C11 UNL     1      24.518   5.361  48.830  1.00  0.00     0.007 A 
HETATM   23  C12 UNL     1      25.701   4.754  49.147  1.00  0.00    -0.062 A 
HETATM   24  C13 UNL     1      26.932   5.530  48.779  1.00  0.00     0.048 C 
HETATM   25  C14 UNL     1      25.694   3.530  49.753  1.00  0.00     0.007 A 
HETATM   26  C15 UNL     1      24.494   2.920  50.039  1.00  0.00     0.014 A 
ENDBRANCH   3  20
TORSDOF 4
ENDMDL
MODEL 6
REMARK VINA RESULT:      -7.8      4.200      8.499
REMARK  4 active torsions:
REMARK  status: ('A' for Active; 'I' for Inactive)
REMARK    1  A    between atoms: O1_2  and  C2_3 
REMARK    2  A    between atoms: C5_6  and  C6_7 
REMARK    3  A    between atoms: C8_9  and  C9_10 
REMARK    4  A    between atoms: N2_18  and  C16_19 
ROOT
HETATM    1  C6  UNL     1      23.469   5.092  50.069  1.00  0.00     0.151 C 
HETATM    2  C7  UNL     1      23.183   4.476  51.399  1.00  0.00     0.094 C 
HETATM    3  C8  UNL     1      22.724   3.107  51.024  1.00  0.00     0.067 C 
HETATM    4  N1  UNL     1      22.382   3.100  49.777  1.00  0.00    -0.173 NA
HETATM    5  N2  UNL     1      22.555   4.359  49.210  1.00  0.00    -0.237 N 
ENDROOT
BRANCH   1   6
HETATM    6  C5  UNL     1      24.866   4.989  49.623  1.00  0.00    -0.033 A 
HETATM    7  C4  UNL     1      25.627   3.872  49.813  1.00  0.00     0.012 A 
HETATM    8  C3  UNL     1      26.932   3.845  49.369  1.00  0.00     0.037 A 
HETATM    9  C2  UNL     1      27.552   4.907  48.720  1.00  0.00     0.068 A 
HETATM   10  C20 UNL     1      26.779   6.038  48.528  1.00  0.00     0.037 A 
HETATM   11  C19 UNL     1      25.477   6.064  48.972  1.00  0.00     0.012 A 
BRANCH   9  12
HETATM   12  O1  UNL     1      28.865   4.817  48.297  1.00  0.00    -0.356 OA
HETATM   13  C1  UNL     1      29.628   6.008  48.181  1.00  0.00     0.210 C 
ENDBRANCH   9  12
ENDBRANCH   1   6
BRANCH   5  14
HETATM   14  C16 UNL     1      21.877   4.692  48.003  1.00  0.00     0.185 C 
HETATM   15  N3  UNL     1      21.552   5.827  47.530  1.00  0.00    -0.239 NA
HETATM   16  C17 UNL     1      20.852   5.855  46.249  1.00  0.00     0.320 C 
HETATM   17  O2  UNL     1      21.609   5.328  45.230  1.00  0.00    -0.360 OA
HETATM   18  C18 UNL     1      21.595   3.941  45.214  1.00  0.00     0.252 C 
HETATM   19  S1  UNL     1      21.363   3.368  46.920  1.00  0.00    -0.065 SA
ENDBRANCH   5  14
BRANCH   3  20
HETATM   20  C9  UNL     1      22.695   2.001  51.976  1.00  0.00    -0.010 A 
HETATM   21  C10 UNL     1      21.543   1.562  52.594  1.00  0.00     0.014 A 
HETATM   22  C11 UNL     1      21.490   0.530  53.488  1.00  0.00     0.007 A 
HETATM   23  C12 UNL     1      22.646  -0.126  53.804  1.00  0.00    -0.062 A 
HETATM   24  C13 UNL     1      22.493  -1.245  54.793  1.00  0.00     0.048 C 
HETATM   25  C14 UNL     1      23.823   0.259  53.228  1.00  0.00     0.007 A 
HETATM   26  C15 UNL     1      23.832   1.305  52.333  1.00  0.00     0.014 A 
ENDBRANCH   3  20
TORSDOF 4
ENDMDL
MODEL 7
REMARK VINA RESULT:      -7.7      3.391      7.717
REMARK  4 active torsions:
REMARK  status: ('A' for Active; 'I' for Inactive)
REMARK    1  A    between atoms: O1_2  and  C2_3 
REMARK    2  A    between atoms: C5_6  and  C6_7 
REMARK    3  A    between atoms: C8_9  and  C9_10 
REMARK    4  A    between atoms: N2_18  and  C16_19 
ROOT
HETATM    1  C6  UNL     1      23.474   3.190  52.294  1.00  0.00     0.151 C 
HETATM    2  C7  UNL     1      24.557   2.733  53.214  1.00  0.00     0.094 C 
HETATM    3  C8  UNL     1      25.014   1.469  52.566  1.00  0.00     0.067 C 
HETATM    4  N1  UNL     1      24.104   1.061  51.743  1.00  0.00    -0.173 NA
HETATM    5  N2  UNL     1      23.016   1.928  51.740  1.00  0.00    -0.237 N 
ENDROOT
BRANCH   1   6
HETATM    6  C5  UNL     1      23.898   4.141  51.256  1.00  0.00    -0.033 A 
HETATM    7  C4  UNL     1      24.478   3.751  50.084  1.00  0.00     0.012 A 
HETATM    8  C3  UNL     1      24.853   4.697  49.154  1.00  0.00     0.037 A 
HETATM    9  C2  UNL     1      24.677   6.066  49.327  1.00  0.00     0.068 A 
HETATM   10  C20 UNL     1      24.089   6.459  50.516  1.00  0.00     0.037 A 
HETATM   11  C19 UNL     1      23.716   5.513  51.444  1.00  0.00     0.012 A 
BRANCH   9  12
HETATM   12  O1  UNL     1      25.074   6.965  48.355  1.00  0.00    -0.356 OA
HETATM   13  C1  UNL     1      26.457   7.086  48.060  1.00  0.00     0.210 C 
ENDBRANCH   9  12
ENDBRANCH   1   6
BRANCH   5  14
HETATM   14  C16 UNL     1      21.756   1.483  51.244  1.00  0.00     0.185 C 
HETATM   15  N3  UNL     1      20.691   1.176  51.867  1.00  0.00    -0.239 NA
HETATM   16  C17 UNL     1      19.541   0.747  51.076  1.00  0.00     0.320 C 
HETATM   17  O2  UNL     1      19.099   1.729  50.223  1.00  0.00    -0.360 OA
HETATM   18  C18 UNL     1      19.865   1.821  49.070  1.00  0.00     0.252 C 
HETATM   19  S1  UNL     1      21.552   1.295  49.480  1.00  0.00    -0.065 SA
ENDBRANCH   5  14
BRANCH   3  20
HETATM   20  C9  UNL     1      26.303   0.854  52.867  1.00  0.00    -0.010 A 
HETATM   21  C10 UNL     1      26.555  -0.493  52.710  1.00  0.00     0.014 A 
HETATM   22  C11 UNL     1      27.751  -1.092  52.985  1.00  0.00     0.007 A 
HETATM   23  C12 UNL     1      28.782  -0.323  53.449  1.00  0.00    -0.062 A 
HETATM   24  C13 UNL     1      30.057  -1.066  53.724  1.00  0.00     0.048 C 
HETATM   25  C14 UNL     1      28.599   1.019  53.627  1.00  0.00     0.007 A 
HETATM   26  C15 UNL     1      27.376   1.582  53.338  1.00  0.00     0.014 A 
ENDBRANCH   3  20
TORSDOF 4
ENDMDL
MODEL 8
REMARK VINA RESULT:      -7.7      2.777      7.248
REMARK  4 active torsions:
REMARK  status: ('A' for Active; 'I' for Inactive)
REMARK    1  A    between atoms: O1_2  and  C2_3 
REMARK    2  A    between atoms: C5_6  and  C6_7 
REMARK    3  A    between atoms: C8_9  and  C9_10 
REMARK    4  A    between atoms: N2_18  and  C16_19 
ROOT
HETATM    1  C6  UNL     1      23.295   3.212  52.750  1.00  0.00     0.151 C 
HETATM    2  C7  UNL     1      24.572   2.881  53.450  1.00  0.00     0.094 C 
HETATM    3  C8  UNL     1      24.803   1.465  53.038  1.00  0.00     0.067 C 
HETATM    4  N1  UNL     1      23.694   0.964  52.598  1.00  0.00    -0.173 NA
HETATM    5  N2  UNL     1      22.670   1.905  52.657  1.00  0.00    -0.237 N 
ENDROOT
BRANCH   1   6
HETATM    6  C5  UNL     1      23.453   3.856  51.438  1.00  0.00    -0.033 A 
HETATM    7  C4  UNL     1      24.612   3.803  50.718  1.00  0.00     0.012 A 
HETATM    8  C3  UNL     1      24.691   4.431  49.494  1.00  0.00     0.037 A 
HETATM    9  C2  UNL     1      23.642   5.138  48.917  1.00  0.00     0.068 A 
HETATM   10  C20 UNL     1      22.468   5.192  49.648  1.00  0.00     0.037 A 
HETATM   11  C19 UNL     1      22.391   4.565  50.871  1.00  0.00     0.012 A 
BRANCH   9  12
HETATM   12  O1  UNL     1      23.783   5.746  47.684  1.00  0.00    -0.356 OA
HETATM   13  C1  UNL     1      22.786   6.660  47.254  1.00  0.00     0.210 C 
ENDBRANCH   9  12
ENDBRANCH   1   6
BRANCH   5  14
HETATM   14  C16 UNL     1      21.312   1.476  52.621  1.00  0.00     0.185 C 
HETATM   15  N3  UNL     1      20.425   1.635  51.724  1.00  0.00    -0.239 NA
HETATM   16  C17 UNL     1      19.100   1.074  51.971  1.00  0.00     0.320 C 
HETATM   17  O2  UNL     1      19.129  -0.294  52.103  1.00  0.00    -0.360 OA
HETATM   18  C18 UNL     1      19.543  -0.702  53.363  1.00  0.00     0.252 C 
HETATM   19  S1  UNL     1      20.667   0.564  54.015  1.00  0.00    -0.065 SA
ENDBRANCH   5  14
BRANCH   3  20
HETATM   20  C9  UNL     1      26.107   0.819  53.145  1.00  0.00    -0.010 A 
HETATM   21  C10 UNL     1      26.305  -0.528  52.930  1.00  0.00     0.014 A 
HETATM   22  C11 UNL     1      27.515  -1.157  53.024  1.00  0.00     0.007 A 
HETATM   23  C12 UNL     1      28.616  -0.417  53.354  1.00  0.00    -0.062 A 
HETATM   24  C13 UNL     1      29.901  -1.190  53.434  1.00  0.00     0.048 C 
HETATM   25  C14 UNL     1      28.489   0.924  53.580  1.00  0.00     0.007 A 
HETATM   26  C15 UNL     1      27.251   1.517  53.475  1.00  0.00     0.014 A 
ENDBRANCH   3  20
TORSDOF 4
ENDMDL
MODEL 9
REMARK VINA RESULT:      -7.6      4.120      6.182
REMARK  4 active torsions:
REMARK  status: ('A' for Active; 'I' for Inactive)
REMARK    1  A    between atoms: O1_2  and  C2_3 
REMARK    2  A    between atoms: C5_6  and  C6_7 
REMARK    3  A    between atoms: C8_9  and  C9_10 
REMARK    4  A    between atoms: N2_18  and  C16_19 
ROOT
HETATM    1  C6  UNL     1      24.898   4.700  50.174  1.00  0.00     0.151 C 
HETATM    2  C7  UNL     1      25.722   5.895  49.823  1.00  0.00     0.094 C 
HETATM    3  C8  UNL     1      26.938   5.277  49.218  1.00  0.00     0.067 C 
HETATM    4  N1  UNL     1      27.001   4.033  49.567  1.00  0.00    -0.173 NA
HETATM    5  N2  UNL     1      25.925   3.694  50.381  1.00  0.00    -0.237 N 
ENDROOT
BRANCH   1   6
HETATM    6  C5  UNL     1      23.915   4.301  49.158  1.00  0.00    -0.033 A 
HETATM    7  C4  UNL     1      23.475   3.017  49.012  1.00  0.00     0.012 A 
HETATM    8  C3  UNL     1      22.550   2.712  48.036  1.00  0.00     0.037 A 
HETATM    9  C2  UNL     1      22.014   3.648  47.158  1.00  0.00     0.068 A 
HETATM   10  C20 UNL     1      22.462   4.949  47.307  1.00  0.00     0.037 A 
HETATM   11  C19 UNL     1      23.384   5.251  48.281  1.00  0.00     0.012 A 
BRANCH   9  12
HETATM   12  O1  UNL     1      21.089   3.279  46.200  1.00  0.00    -0.356 OA
HETATM   13  C1  UNL     1      21.054   3.994  44.974  1.00  0.00     0.210 C 
ENDBRANCH   9  12
ENDBRANCH   1   6
BRANCH   5  14
HETATM   14  C16 UNL     1      25.998   2.532  51.203  1.00  0.00     0.185 C 
HETATM   15  N3  UNL     1      26.688   1.472  51.067  1.00  0.00    -0.239 NA
HETATM   16  C17 UNL     1      26.551   0.436  52.086  1.00  0.00     0.320 C 
HETATM   17  O2  UNL     1      26.942   0.873  53.329  1.00  0.00    -0.360 OA
HETATM   18  C18 UNL     1      25.968   1.632  53.961  1.00  0.00     0.252 C 
HETATM   19  S1  UNL     1      24.993   2.466  52.678  1.00  0.00    -0.065 SA
ENDBRANCH   5  14
BRANCH   3  20
HETATM   20  C9  UNL     1      27.862   6.028  48.374  1.00  0.00    -0.010 A 
HETATM   21  C10 UNL     1      29.191   5.693  48.221  1.00  0.00     0.014 A 
HETATM   22  C11 UNL     1      30.076   6.379  47.438  1.00  0.00     0.007 A 
HETATM   23  C12 UNL     1      29.634   7.475  46.751  1.00  0.00    -0.062 A 
HETATM   24  C13 UNL     1      30.674   8.165  45.917  1.00  0.00     0.048 C 
HETATM   25  C14 UNL     1      28.328   7.861  46.858  1.00  0.00     0.007 A 
HETATM   26  C15 UNL     1      27.471   7.142  47.659  1.00  0.00     0.014 A 
ENDBRANCH   3  20
TORSDOF 4
ENDMDL
