MODEL 1
REMARK VINA RESULT:      -7.9      0.000      0.000
REMARK  0 active torsions:
REMARK  status: ('A' for Active; 'I' for Inactive)
ROOT
HETATM    1  C1  UNL     1      27.737   0.261  53.150  1.00  0.00     0.010 C 
HETATM    2  C2  UNL     1      26.888   0.708  52.001  1.00  0.00    -0.016 C 
HETATM    3  C3  UNL     1      26.735   2.225  52.144  1.00  0.00     0.034 C 
HETATM    4  C4  UNL     1      26.004   2.857  51.019  1.00  0.00     0.273 C 
HETATM    5  N1  UNL     1      25.293   4.075  51.294  1.00  0.00     0.112 N 
HETATM    6  C5  UNL     1      24.022   3.803  51.973  1.00  0.00     0.368 C 
HETATM    7  C6  UNL     1      24.246   3.348  53.332  1.00  0.00     0.058 C 
HETATM    8  C7  UNL     1      24.264   2.129  52.876  1.00  0.00     0.038 C 
HETATM    9  C8  UNL     1      24.660   0.732  53.122  1.00  0.00     0.049 C 
HETATM   10  C9  UNL     1      23.658  -0.023  53.891  1.00  0.00     0.105 C 
HETATM   11  C10 UNL     1      22.301   0.157  53.514  1.00  0.00    -0.104 C 
HETATM   12  C11 UNL     1      21.195   0.315  53.225  1.00  0.00    -0.087 C 
HETATM   13  C12 UNL     1      19.839   0.522  52.892  1.00  0.00     0.215 C 
HETATM   14  N2  UNL     1      19.655   1.516  51.869  1.00  0.00    -0.373 N 
HETATM   15  C13 UNL     1      20.149   2.774  52.377  1.00  0.00     0.228 C 
HETATM   16  N3  UNL     1      21.171   2.770  51.531  1.00  0.00    -0.143 NA
HETATM   17  N4  UNL     1      21.105   1.592  50.717  1.00  0.00    -0.123 NA
HETATM   18  C14 UNL     1      22.215   1.317  50.115  1.00  0.00     0.242 C 
HETATM   19  N5  UNL     1      23.187   1.319  50.925  1.00  0.00    -0.144 NA
HETATM   20  N6  UNL     1      23.652   2.405  51.615  1.00  0.00    -0.234 N 
HETATM   21  C15 UNL     1      25.480   0.085  52.074  1.00  0.00     0.016 C 
HETATM   22  H9  UNL     1      25.223   4.734  50.516  1.00  0.00     0.319 HD
HETATM   23  H17 UNL     1      19.223   1.414  50.933  1.00  0.00     0.161 HD
ENDROOT
TORSDOF 0
ENDMDL
MODEL 2
REMARK VINA RESULT:      -7.6      1.284      4.866
REMARK  0 active torsions:
REMARK  status: ('A' for Active; 'I' for Inactive)
ROOT
HETATM    1  C1  UNL     1      20.712  -1.382  54.203  1.00  0.00     0.010 C 
HETATM    2  C2  UNL     1      20.748   0.102  54.008  1.00  0.00    -0.016 C 
HETATM    3  C3  UNL     1      20.104   0.372  52.645  1.00  0.00     0.034 C 
HETATM    4  C4  UNL     1      19.957   1.815  52.334  1.00  0.00     0.273 C 
HETATM    5  N1  UNL     1      19.952   2.195  50.948  1.00  0.00     0.112 N 
HETATM    6  C5  UNL     1      21.310   2.209  50.398  1.00  0.00     0.368 C 
HETATM    7  C6  UNL     1      21.834   0.862  50.272  1.00  0.00     0.058 C 
HETATM    8  C7  UNL     1      22.318   0.983  51.473  1.00  0.00     0.038 C 
HETATM    9  C8  UNL     1      22.840   0.288  52.663  1.00  0.00     0.049 C 
HETATM   10  C9  UNL     1      24.278  -0.008  52.572  1.00  0.00     0.105 C 
HETATM   11  C10 UNL     1      25.109   1.029  52.072  1.00  0.00    -0.104 C 
HETATM   12  C11 UNL     1      25.787   1.861  51.648  1.00  0.00    -0.087 C 
HETATM   13  C12 UNL     1      26.618   2.866  51.108  1.00  0.00     0.215 C 
HETATM   14  N2  UNL     1      25.888   4.022  50.663  1.00  0.00    -0.373 N 
HETATM   15  C13 UNL     1      25.002   3.607  49.600  1.00  0.00     0.228 C 
HETATM   16  N3  UNL     1      23.928   3.802  50.355  1.00  0.00    -0.143 NA
HETATM   17  N4  UNL     1      24.336   4.274  51.645  1.00  0.00    -0.123 NA
HETATM   18  C14 UNL     1      23.419   4.163  52.549  1.00  0.00     0.242 C 
HETATM   19  N5  UNL     1      22.935   2.995  52.568  1.00  0.00    -0.144 NA
HETATM   20  N6  UNL     1      22.225   2.406  51.558  1.00  0.00    -0.234 N 
HETATM   21  C15 UNL     1      22.198   0.620  53.955  1.00  0.00     0.016 C 
HETATM   22  H9  UNL     1      19.393   3.019  50.715  1.00  0.00     0.319 HD
HETATM   23  H17 UNL     1      25.965   5.004  50.985  1.00  0.00     0.161 HD
ENDROOT
TORSDOF 0
ENDMDL
MODEL 3
REMARK VINA RESULT:      -7.4      1.866      3.324
REMARK  0 active torsions:
REMARK  status: ('A' for Active; 'I' for Inactive)
ROOT
HETATM    1  C1  UNL     1      26.086   5.212  49.376  1.00  0.00     0.010 C 
HETATM    2  C2  UNL     1      24.755   4.559  49.164  1.00  0.00    -0.016 C 
HETATM    3  C3  UNL     1      23.746   5.362  49.989  1.00  0.00     0.034 C 
HETATM    4  C4  UNL     1      22.343   4.916  49.810  1.00  0.00     0.273 C 
HETATM    5  N1  UNL     1      21.435   5.137  50.901  1.00  0.00     0.112 N 
HETATM    6  C5  UNL     1      21.623   4.139  51.957  1.00  0.00     0.368 C 
HETATM    7  C6  UNL     1      22.881   4.345  52.650  1.00  0.00     0.058 C 
HETATM    8  C7  UNL     1      23.439   3.544  51.791  1.00  0.00     0.038 C 
HETATM    9  C8  UNL     1      24.696   3.086  51.176  1.00  0.00     0.049 C 
HETATM   10  C9  UNL     1      25.367   2.032  51.953  1.00  0.00     0.105 C 
HETATM   11  C10 UNL     1      24.540   0.998  52.465  1.00  0.00    -0.104 C 
HETATM   12  C11 UNL     1      23.872   0.165  52.902  1.00  0.00    -0.087 C 
HETATM   13  C12 UNL     1      23.054  -0.843  53.458  1.00  0.00     0.215 C 
HETATM   14  N2  UNL     1      21.652  -0.629  53.219  1.00  0.00    -0.373 N 
HETATM   15  C13 UNL     1      21.275   0.608  53.863  1.00  0.00     0.228 C 
HETATM   16  N3  UNL     1      21.086   1.213  52.698  1.00  0.00    -0.143 NA
HETATM   17  N4  UNL     1      21.359   0.291  51.636  1.00  0.00    -0.123 NA
HETATM   18  C14 UNL     1      21.542   0.861  50.491  1.00  0.00     0.242 C 
HETATM   19  N5  UNL     1      22.388   1.798  50.577  1.00  0.00    -0.144 NA
HETATM   20  N6  UNL     1      22.236   2.950  51.299  1.00  0.00    -0.234 N 
HETATM   21  C15 UNL     1      24.754   3.113  49.697  1.00  0.00     0.016 C 
HETATM   22  H9  UNL     1      20.459   5.298  50.642  1.00  0.00     0.319 HD
HETATM   23  H17 UNL     1      20.979  -1.232  52.713  1.00  0.00     0.161 HD
ENDROOT
TORSDOF 0
ENDMDL
MODEL 4
REMARK VINA RESULT:      -7.4      2.635      5.427
REMARK  0 active torsions:
REMARK  status: ('A' for Active; 'I' for Inactive)
ROOT
HETATM    1  C1  UNL     1      24.897   0.256  52.664  1.00  0.00     0.010 C 
HETATM    2  C2  UNL     1      24.253   1.602  52.792  1.00  0.00    -0.016 C 
HETATM    3  C3  UNL     1      22.996   1.562  51.918  1.00  0.00     0.034 C 
HETATM    4  C4  UNL     1      22.169   2.790  52.010  1.00  0.00     0.273 C 
HETATM    5  N1  UNL     1      21.364   3.131  50.870  1.00  0.00     0.112 N 
HETATM    6  C5  UNL     1      22.173   3.750  49.817  1.00  0.00     0.368 C 
HETATM    7  C6  UNL     1      23.055   2.778  49.200  1.00  0.00     0.058 C 
HETATM    8  C7  UNL     1      23.957   3.098  50.082  1.00  0.00     0.038 C 
HETATM    9  C8  UNL     1      25.200   2.704  50.765  1.00  0.00     0.049 C 
HETATM   10  C9  UNL     1      26.411   3.079  50.017  1.00  0.00     0.105 C 
HETATM   11  C10 UNL     1      26.427   4.379  49.447  1.00  0.00    -0.104 C 
HETATM   12  C11 UNL     1      26.439   5.427  48.964  1.00  0.00    -0.087 C 
HETATM   13  C12 UNL     1      26.447   6.698  48.351  1.00  0.00     0.215 C 
HETATM   14  N2  UNL     1      25.208   7.410  48.510  1.00  0.00    -0.373 N 
HETATM   15  C13 UNL     1      24.170   6.648  47.857  1.00  0.00     0.228 C 
HETATM   16  N3  UNL     1      23.600   6.341  49.016  1.00  0.00    -0.143 NA
HETATM   17  N4  UNL     1      24.345   6.942  50.082  1.00  0.00    -0.123 NA
HETATM   18  C14 UNL     1      24.089   6.432  51.242  1.00  0.00     0.242 C 
HETATM   19  N5  UNL     1      24.172   5.170  51.215  1.00  0.00    -0.144 NA
HETATM   20  N6  UNL     1      23.366   4.330  50.497  1.00  0.00    -0.234 N 
HETATM   21  C15 UNL     1      25.172   2.712  52.245  1.00  0.00     0.016 C 
HETATM   22  H9  UNL     1      20.490   3.621  51.074  1.00  0.00     0.319 HD
HETATM   23  H17 UNL     1      25.037   8.323  48.970  1.00  0.00     0.161 HD
ENDROOT
TORSDOF 0
ENDMDL
MODEL 5
REMARK VINA RESULT:      -7.2      1.676      5.328
REMARK  0 active torsions:
REMARK  status: ('A' for Active; 'I' for Inactive)
ROOT
HETATM    1  C1  UNL     1      17.925  -0.594  51.650  1.00  0.00     0.010 C 
HETATM    2  C2  UNL     1      18.391   0.825  51.552  1.00  0.00    -0.016 C 
HETATM    3  C3  UNL     1      18.741   1.062  50.080  1.00  0.00     0.034 C 
HETATM    4  C4  UNL     1      19.124   2.462  49.777  1.00  0.00     0.273 C 
HETATM    5  N1  UNL     1      20.010   2.680  48.667  1.00  0.00     0.112 N 
HETATM    6  C5  UNL     1      21.396   2.375  49.029  1.00  0.00     0.368 C 
HETATM    7  C6  UNL     1      21.585   0.947  49.206  1.00  0.00     0.058 C 
HETATM    8  C7  UNL     1      21.290   1.105  50.463  1.00  0.00     0.038 C 
HETATM    9  C8  UNL     1      20.853   0.460  51.712  1.00  0.00     0.049 C 
HETATM   10  C9  UNL     1      21.967  -0.114  52.484  1.00  0.00     0.105 C 
HETATM   11  C10 UNL     1      23.136   0.684  52.600  1.00  0.00    -0.104 C 
HETATM   12  C11 UNL     1      24.096   1.319  52.681  1.00  0.00    -0.087 C 
HETATM   13  C12 UNL     1      25.281   2.082  52.762  1.00  0.00     0.215 C 
HETATM   14  N2  UNL     1      25.222   3.300  52.000  1.00  0.00    -0.373 N 
HETATM   15  C13 UNL     1      25.057   2.947  50.609  1.00  0.00     0.228 C 
HETATM   16  N3  UNL     1      23.819   3.424  50.585  1.00  0.00    -0.143 NA
HETATM   17  N4  UNL     1      23.491   3.950  51.878  1.00  0.00    -0.123 NA
HETATM   18  C14 UNL     1      22.222   4.116  52.060  1.00  0.00     0.242 C 
HETATM   19  N5  UNL     1      21.576   3.071  51.759  1.00  0.00    -0.144 NA
HETATM   20  N6  UNL     1      21.480   2.520  50.510  1.00  0.00    -0.234 N 
HETATM   21  C15 UNL     1      19.671   1.048  52.381  1.00  0.00     0.016 C 
HETATM   22  H9  UNL     1      19.888   3.565  48.170  1.00  0.00     0.319 HD
HETATM   23  H17 UNL     1      25.310   4.278  52.329  1.00  0.00     0.161 HD
ENDROOT
TORSDOF 0
ENDMDL
MODEL 6
REMARK VINA RESULT:      -7.1      2.259      5.186
REMARK  0 active torsions:
REMARK  status: ('A' for Active; 'I' for Inactive)
ROOT
HETATM    1  C1  UNL     1      22.449   4.974  47.162  1.00  0.00     0.010 C 
HETATM    2  C2  UNL     1      22.054   4.009  48.237  1.00  0.00    -0.016 C 
HETATM    3  C3  UNL     1      21.691   4.854  49.461  1.00  0.00     0.034 C 
HETATM    4  C4  UNL     1      21.169   4.058  50.598  1.00  0.00     0.273 C 
HETATM    5  N1  UNL     1      21.362   4.587  51.920  1.00  0.00     0.112 N 
HETATM    6  C5  UNL     1      22.733   4.359  52.385  1.00  0.00     0.368 C 
HETATM    7  C6  UNL     1      23.674   5.190  51.657  1.00  0.00     0.058 C 
HETATM    8  C7  UNL     1      23.803   4.221  50.799  1.00  0.00     0.038 C 
HETATM    9  C8  UNL     1      24.228   3.828  49.445  1.00  0.00     0.049 C 
HETATM   10  C9  UNL     1      25.666   3.526  49.359  1.00  0.00     0.105 C 
HETATM   11  C10 UNL     1      26.215   2.744  50.409  1.00  0.00    -0.104 C 
HETATM   12  C11 UNL     1      26.671   2.126  51.270  1.00  0.00    -0.087 C 
HETATM   13  C12 UNL     1      27.238   1.390  52.333  1.00  0.00     0.215 C 
HETATM   14  N2  UNL     1      26.302   1.106  53.386  1.00  0.00    -0.373 N 
HETATM   15  C13 UNL     1      25.865   2.364  53.945  1.00  0.00     0.228 C 
HETATM   16  N3  UNL     1      24.642   2.213  53.455  1.00  0.00    -0.143 NA
HETATM   17  N4  UNL     1      24.568   0.970  52.744  1.00  0.00    -0.123 NA
HETATM   18  C14 UNL     1      23.552   0.890  51.949  1.00  0.00     0.242 C 
HETATM   19  N5  UNL     1      23.474   1.907  51.201  1.00  0.00    -0.144 NA
HETATM   20  N6  UNL     1      23.243   3.190  51.614  1.00  0.00    -0.234 N 
HETATM   21  C15 UNL     1      23.234   3.098  48.627  1.00  0.00     0.016 C 
HETATM   22  H9  UNL     1      20.640   4.350  52.604  1.00  0.00     0.319 HD
HETATM   23  H17 UNL     1      25.985   0.187  53.744  1.00  0.00     0.161 HD
ENDROOT
TORSDOF 0
ENDMDL
MODEL 7
REMARK VINA RESULT:      -7.0      1.735      4.911
REMARK  0 active torsions:
REMARK  status: ('A' for Active; 'I' for Inactive)
ROOT
HETATM    1  C1  UNL     1      18.471   2.870  51.426  1.00  0.00     0.010 C 
HETATM    2  C2  UNL     1      19.764   3.557  51.740  1.00  0.00    -0.016 C 
HETATM    3  C3  UNL     1      20.515   3.686  50.412  1.00  0.00     0.034 C 
HETATM    4  C4  UNL     1      21.784   4.447  50.518  1.00  0.00     0.273 C 
HETATM    5  N1  UNL     1      22.821   4.139  49.573  1.00  0.00     0.112 N 
HETATM    6  C5  UNL     1      23.524   2.907  49.942  1.00  0.00     0.368 C 
HETATM    7  C6  UNL     1      22.675   1.746  49.749  1.00  0.00     0.058 C 
HETATM    8  C7  UNL     1      22.273   1.887  50.978  1.00  0.00     0.038 C 
HETATM    9  C8  UNL     1      21.242   1.562  51.977  1.00  0.00     0.049 C 
HETATM   10  C9  UNL     1      21.477   0.275  52.650  1.00  0.00     0.105 C 
HETATM   11  C10 UNL     1      22.810   0.006  53.057  1.00  0.00    -0.104 C 
HETATM   12  C11 UNL     1      23.895  -0.228  53.373  1.00  0.00    -0.087 C 
HETATM   13  C12 UNL     1      25.225  -0.528  53.739  1.00  0.00     0.215 C 
HETATM   14  N2  UNL     1      26.166   0.476  53.322  1.00  0.00    -0.373 N 
HETATM   15  C13 UNL     1      26.142   0.538  51.880  1.00  0.00     0.228 C 
HETATM   16  N3  UNL     1      25.579   1.739  51.892  1.00  0.00    -0.143 NA
HETATM   17  N4  UNL     1      25.388   2.157  53.250  1.00  0.00    -0.123 NA
HETATM   18  C14 UNL     1      24.549   3.133  53.376  1.00  0.00     0.242 C 
HETATM   19  N5  UNL     1      23.469   2.889  52.764  1.00  0.00    -0.144 NA
HETATM   20  N6  UNL     1      23.331   2.744  51.411  1.00  0.00    -0.234 N 
HETATM   21  C15 UNL     1      20.629   2.707  52.689  1.00  0.00     0.016 C 
HETATM   22  H9  UNL     1      23.436   4.915  49.319  1.00  0.00     0.319 HD
HETATM   23  H17 UNL     1      26.796   1.057  53.904  1.00  0.00     0.161 HD
ENDROOT
TORSDOF 0
ENDMDL
MODEL 8
REMARK VINA RESULT:      -7.0      1.983      3.642
REMARK  0 active torsions:
REMARK  status: ('A' for Active; 'I' for Inactive)
ROOT
HETATM    1  C1  UNL     1      22.151  -0.801  54.411  1.00  0.00     0.010 C 
HETATM    2  C2  UNL     1      22.772  -0.518  53.078  1.00  0.00    -0.016 C 
HETATM    3  C3  UNL     1      24.061   0.259  53.361  1.00  0.00     0.034 C 
HETATM    4  C4  UNL     1      24.868   0.533  52.147  1.00  0.00     0.273 C 
HETATM    5  N1  UNL     1      25.712   1.696  52.162  1.00  0.00     0.112 N 
HETATM    6  C5  UNL     1      24.935   2.916  51.926  1.00  0.00     0.368 C 
HETATM    7  C6  UNL     1      24.089   3.222  53.064  1.00  0.00     0.058 C 
HETATM    8  C7  UNL     1      23.151   2.515  52.505  1.00  0.00     0.038 C 
HETATM    9  C8  UNL     1      21.887   1.782  52.693  1.00  0.00     0.049 C 
HETATM   10  C9  UNL     1      20.701   2.647  52.602  1.00  0.00     0.105 C 
HETATM   11  C10 UNL     1      20.689   3.599  51.548  1.00  0.00    -0.104 C 
HETATM   12  C11 UNL     1      20.682   4.388  50.706  1.00  0.00    -0.087 C 
HETATM   13  C12 UNL     1      20.680   5.371  49.693  1.00  0.00     0.215 C 
HETATM   14  N2  UNL     1      21.903   5.405  48.937  1.00  0.00    -0.373 N 
HETATM   15  C13 UNL     1      22.975   5.751  49.841  1.00  0.00     0.228 C 
HETATM   16  N3  UNL     1      23.505   4.538  49.754  1.00  0.00    -0.143 NA
HETATM   17  N4  UNL     1      22.713   3.739  48.866  1.00  0.00    -0.123 NA
HETATM   18  C14 UNL     1      22.931   2.470  48.979  1.00  0.00     0.242 C 
HETATM   19  N5  UNL     1      22.866   2.101  50.187  1.00  0.00    -0.144 NA
HETATM   20  N6  UNL     1      23.710   2.491  51.190  1.00  0.00    -0.234 N 
HETATM   21  C15 UNL     1      21.860   0.380  52.219  1.00  0.00     0.016 C 
HETATM   22  H9  UNL     1      26.571   1.629  51.611  1.00  0.00     0.319 HD
HETATM   23  H17 UNL     1      22.045   5.251  47.923  1.00  0.00     0.161 HD
ENDROOT
TORSDOF 0
ENDMDL
MODEL 9
REMARK VINA RESULT:      -6.8      2.357      4.299
REMARK  0 active torsions:
REMARK  status: ('A' for Active; 'I' for Inactive)
ROOT
HETATM    1  C1  UNL     1      26.414   0.420  52.079  1.00  0.00     0.010 C 
HETATM    2  C2  UNL     1      25.345   1.273  52.687  1.00  0.00    -0.016 C 
HETATM    3  C3  UNL     1      24.026   0.526  52.473  1.00  0.00     0.034 C 
HETATM    4  C4  UNL     1      22.860   1.183  53.114  1.00  0.00     0.273 C 
HETATM    5  N1  UNL     1      21.569   0.962  52.524  1.00  0.00     0.112 N 
HETATM    6  C5  UNL     1      21.385   1.791  51.329  1.00  0.00     0.368 C 
HETATM    7  C6  UNL     1      22.226   1.329  50.241  1.00  0.00     0.058 C 
HETATM    8  C7  UNL     1      23.150   2.141  50.664  1.00  0.00     0.038 C 
HETATM    9  C8  UNL     1      24.581   2.488  50.648  1.00  0.00     0.049 C 
HETATM   10  C9  UNL     1      24.954   3.337  49.505  1.00  0.00     0.105 C 
HETATM   11  C10 UNL     1      24.075   4.409  49.196  1.00  0.00    -0.104 C 
HETATM   12  C11 UNL     1      23.354   5.268  48.927  1.00  0.00    -0.087 C 
HETATM   13  C12 UNL     1      22.463   6.307  48.580  1.00  0.00     0.215 C 
HETATM   14  N2  UNL     1      21.272   6.321  49.384  1.00  0.00    -0.373 N 
HETATM   15  C13 UNL     1      20.566   5.082  49.157  1.00  0.00     0.228 C 
HETATM   16  N3  UNL     1      20.825   4.653  50.385  1.00  0.00    -0.143 NA
HETATM   17  N4  UNL     1      21.583   5.649  51.084  1.00  0.00    -0.123 NA
HETATM   18  C14 UNL     1      22.175   5.199  52.141  1.00  0.00     0.242 C 
HETATM   19  N5  UNL     1      22.833   4.149  51.885  1.00  0.00    -0.144 NA
HETATM   20  N6  UNL     1      22.307   2.952  51.484  1.00  0.00    -0.234 N 
HETATM   21  C15 UNL     1      25.240   2.631  51.965  1.00  0.00     0.016 C 
HETATM   22  H9  UNL     1      20.777   0.972  53.170  1.00  0.00     0.319 HD
HETATM   23  H17 UNL     1      20.916   7.069  50.007  1.00  0.00     0.161 HD
ENDROOT
TORSDOF 0
ENDMDL
