MODEL 1
REMARK VINA RESULT:      -7.5      0.000      0.000
REMARK  5 active torsions:
REMARK  status: ('A' for Active; 'I' for Inactive)
REMARK    1  A    between atoms: C1_2  and  N2_3 
REMARK    2  A    between atoms: N2_3  and  C2_4 
REMARK    3  A    between atoms: C2_4  and  C3_5 
REMARK    4  A    between atoms: C5_7  and  N3_8 
REMARK    5  A    between atoms: N3_8  and  C6_9 
ROOT
HETATM    1  C3  UNL     1      22.023   0.792  52.251  1.00  0.00    -0.021 C 
HETATM    2  C4  UNL     1      22.586   0.240  53.345  1.00  0.00     0.047 C 
HETATM    3  C5  UNL     1      23.966  -0.104  53.530  1.00  0.00     0.140 C 
HETATM    4  N4  UNL     1      24.238  -0.901  54.496  1.00  0.00    -0.224 NA
HETATM    5  C12 UNL     1      23.173  -1.344  55.330  1.00  0.00     0.232 C 
HETATM    6  N5  UNL     1      21.917  -1.000  55.260  1.00  0.00    -0.242 NA
HETATM    7  C13 UNL     1      21.482  -0.075  54.307  1.00  0.00     0.380 C 
HETATM    8  N6  UNL     1      20.355  -0.314  53.477  1.00  0.00     0.116 N 
HETATM    9  C14 UNL     1      20.529   0.857  52.592  1.00  0.00     0.309 C 
HETATM   10  H12 UNL     1      20.350  -1.204  52.977  1.00  0.00     0.319 HD
ENDROOT
BRANCH   3  11
HETATM   11  N3  UNL     1      24.984   0.445  52.761  1.00  0.00    -0.340 N 
HETATM   12  H6  UNL     1      24.689   1.030  51.960  1.00  0.00     0.167 HD
BRANCH  11  13
HETATM   13  C6  UNL     1      26.383   0.227  53.081  1.00  0.00     0.035 A 
HETATM   14  C7  UNL     1      26.880  -1.036  52.748  1.00  0.00     0.032 A 
HETATM   15  C8  UNL     1      28.176  -1.397  52.990  1.00  0.00     0.046 A 
HETATM   16  C9  UNL     1      29.013  -0.503  53.572  1.00  0.00     0.138 A 
HETATM   17  F1  UNL     1      30.308  -0.739  53.860  1.00  0.00    -0.204 F 
HETATM   18  C10 UNL     1      28.547   0.759  53.913  1.00  0.00     0.074 A 
HETATM   19 CL1  UNL     1      29.577   1.969  54.674  1.00  0.00    -0.081 Cl
HETATM   20  C11 UNL     1      27.238   1.094  53.659  1.00  0.00     0.056 A 
ENDBRANCH  11  13
ENDBRANCH   3  11
BRANCH   1  21
HETATM   21  C2  UNL     1      22.307   1.276  50.915  1.00  0.00     0.157 C 
BRANCH  21  22
HETATM   22  N2  UNL     1      22.965   2.485  50.632  1.00  0.00    -0.381 N 
HETATM   23  H3  UNL     1      23.252   2.791  49.661  1.00  0.00     0.160 HD
BRANCH  22  24
HETATM   24  C1  UNL     1      23.276   3.386  51.732  1.00  0.00     0.193 C 
HETATM   25  N1  UNL     1      24.465   3.518  52.227  1.00  0.00    -0.296 NA
HETATM   26  H1  UNL     1      25.307   3.010  51.906  1.00  0.00     0.187 HD
ENDBRANCH  22  24
ENDBRANCH  21  22
ENDBRANCH   1  21
TORSDOF 5
ENDMDL
MODEL 2
REMARK VINA RESULT:      -7.5      1.388      3.627
REMARK  5 active torsions:
REMARK  status: ('A' for Active; 'I' for Inactive)
REMARK    1  A    between atoms: C1_2  and  N2_3 
REMARK    2  A    between atoms: N2_3  and  C2_4 
REMARK    3  A    between atoms: C2_4  and  C3_5 
REMARK    4  A    between atoms: C5_7  and  N3_8 
REMARK    5  A    between atoms: N3_8  and  C6_9 
ROOT
HETATM    1  C3  UNL     1      20.918   0.547  52.717  1.00  0.00    -0.021 C 
HETATM    2  C4  UNL     1      21.757   0.964  51.746  1.00  0.00     0.047 C 
HETATM    3  C5  UNL     1      23.017   1.626  51.914  1.00  0.00     0.140 C 
HETATM    4  N4  UNL     1      23.500   2.219  50.886  1.00  0.00    -0.224 NA
HETATM    5  C12 UNL     1      22.783   2.140  49.659  1.00  0.00     0.232 C 
HETATM    6  N5  UNL     1      21.679   1.486  49.427  1.00  0.00    -0.242 NA
HETATM    7  C13 UNL     1      21.076   0.725  50.433  1.00  0.00     0.380 C 
HETATM    8  N6  UNL     1      19.693   0.827  50.735  1.00  0.00     0.116 N 
HETATM    9  C14 UNL     1      19.710  -0.009  51.954  1.00  0.00     0.309 C 
HETATM   10  H12 UNL     1      19.340   1.771  50.895  1.00  0.00     0.319 HD
ENDROOT
BRANCH   3  11
HETATM   11  N3  UNL     1      23.736   1.577  53.102  1.00  0.00    -0.340 N 
HETATM   12  H6  UNL     1      23.217   1.828  53.961  1.00  0.00     0.167 HD
BRANCH  11  13
HETATM   13  C6  UNL     1      25.130   1.175  53.133  1.00  0.00     0.035 A 
HETATM   14  C7  UNL     1      25.363  -0.181  52.890  1.00  0.00     0.032 A 
HETATM   15  C8  UNL     1      26.622  -0.717  52.891  1.00  0.00     0.046 A 
HETATM   16  C9  UNL     1      27.683   0.092  53.135  1.00  0.00     0.138 A 
HETATM   17  F1  UNL     1      28.967  -0.316  53.162  1.00  0.00    -0.204 F 
HETATM   18  C10 UNL     1      27.481   1.443  53.379  1.00  0.00     0.074 A 
HETATM   19 CL1  UNL     1      28.812   2.550  53.705  1.00  0.00    -0.081 Cl
HETATM   20  C11 UNL     1      26.205   1.953  53.373  1.00  0.00     0.056 A 
ENDBRANCH  11  13
ENDBRANCH   3  11
BRANCH   1  21
HETATM   21  C2  UNL     1      20.741   0.488  54.154  1.00  0.00     0.157 C 
BRANCH  21  22
HETATM   22  N2  UNL     1      20.999  -0.649  54.939  1.00  0.00    -0.381 N 
HETATM   23  H3  UNL     1      20.334  -1.031  55.668  1.00  0.00     0.160 HD
BRANCH  22  24
HETATM   24  C1  UNL     1      22.255  -1.360  54.749  1.00  0.00     0.193 C 
HETATM   25  N1  UNL     1      22.991  -1.776  55.729  1.00  0.00    -0.296 NA
HETATM   26  H1  UNL     1      22.776  -1.654  56.733  1.00  0.00     0.187 HD
ENDBRANCH  22  24
ENDBRANCH  21  22
ENDBRANCH   1  21
TORSDOF 5
ENDMDL
MODEL 3
REMARK VINA RESULT:      -7.5      2.408      3.473
REMARK  5 active torsions:
REMARK  status: ('A' for Active; 'I' for Inactive)
REMARK    1  A    between atoms: C1_2  and  N2_3 
REMARK    2  A    between atoms: N2_3  and  C2_4 
REMARK    3  A    between atoms: C2_4  and  C3_5 
REMARK    4  A    between atoms: C5_7  and  N3_8 
REMARK    5  A    between atoms: N3_8  and  C6_9 
ROOT
HETATM    1  C3  UNL     1      24.679   2.750  50.788  1.00  0.00    -0.021 C 
HETATM    2  C4  UNL     1      23.883   2.055  51.625  1.00  0.00     0.047 C 
HETATM    3  C5  UNL     1      24.259   1.426  52.858  1.00  0.00     0.140 C 
HETATM    4  N4  UNL     1      23.447   0.557  53.334  1.00  0.00    -0.224 NA
HETATM    5  C12 UNL     1      22.228   0.316  52.641  1.00  0.00     0.232 C 
HETATM    6  N5  UNL     1      21.797   0.916  51.566  1.00  0.00    -0.242 NA
HETATM    7  C13 UNL     1      22.538   1.944  50.975  1.00  0.00     0.380 C 
HETATM    8  N6  UNL     1      22.821   1.972  49.584  1.00  0.00     0.116 N 
HETATM    9  C14 UNL     1      23.763   3.112  49.613  1.00  0.00     0.309 C 
HETATM   10  H12 UNL     1      23.225   1.120  49.194  1.00  0.00     0.319 HD
ENDROOT
BRANCH   3  11
HETATM   11  N3  UNL     1      25.406   1.778  53.559  1.00  0.00    -0.340 N 
HETATM   12  H6  UNL     1      25.339   2.624  54.150  1.00  0.00     0.167 HD
BRANCH  11  13
HETATM   13  C6  UNL     1      26.619   0.986  53.482  1.00  0.00     0.035 A 
HETATM   14  C7  UNL     1      27.803   1.685  53.730  1.00  0.00     0.032 A 
HETATM   15  C8  UNL     1      29.029   1.082  53.690  1.00  0.00     0.046 A 
HETATM   16  C9  UNL     1      29.105  -0.241  53.401  1.00  0.00     0.138 A 
HETATM   17  F1  UNL     1      30.251  -0.947  53.333  1.00  0.00    -0.204 F 
HETATM   18  C10 UNL     1      27.946  -0.961  53.151  1.00  0.00     0.074 A 
HETATM   19 CL1  UNL     1      27.970  -2.681  52.768  1.00  0.00    -0.081 Cl
HETATM   20  C11 UNL     1      26.726  -0.328  53.197  1.00  0.00     0.056 A 
ENDBRANCH  11  13
ENDBRANCH   3  11
BRANCH   1  21
HETATM   21  C2  UNL     1      26.040   3.209  50.590  1.00  0.00     0.157 C 
BRANCH  21  22
HETATM   22  N2  UNL     1      26.385   4.490  50.125  1.00  0.00    -0.381 N 
HETATM   23  H3  UNL     1      26.058   5.391  50.571  1.00  0.00     0.160 HD
BRANCH  22  24
HETATM   24  C1  UNL     1      27.248   4.601  48.958  1.00  0.00     0.193 C 
HETATM   25  N1  UNL     1      28.435   5.116  49.000  1.00  0.00    -0.296 NA
HETATM   26  H1  UNL     1      28.893   5.498  49.844  1.00  0.00     0.187 HD
ENDBRANCH  22  24
ENDBRANCH  21  22
ENDBRANCH   1  21
TORSDOF 5
ENDMDL
MODEL 4
REMARK VINA RESULT:      -7.4      1.699      4.190
REMARK  5 active torsions:
REMARK  status: ('A' for Active; 'I' for Inactive)
REMARK    1  A    between atoms: C1_2  and  N2_3 
REMARK    2  A    between atoms: N2_3  and  C2_4 
REMARK    3  A    between atoms: C2_4  and  C3_5 
REMARK    4  A    between atoms: C5_7  and  N3_8 
REMARK    5  A    between atoms: N3_8  and  C6_9 
ROOT
HETATM    1  C3  UNL     1      22.771   1.252  51.987  1.00  0.00    -0.021 C 
HETATM    2  C4  UNL     1      23.573   2.058  51.261  1.00  0.00     0.047 C 
HETATM    3  C5  UNL     1      24.679   2.838  51.736  1.00  0.00     0.140 C 
HETATM    4  N4  UNL     1      25.102   3.770  50.965  1.00  0.00    -0.224 NA
HETATM    5  C12 UNL     1      24.483   3.932  49.694  1.00  0.00     0.232 C 
HETATM    6  N5  UNL     1      23.534   3.203  49.177  1.00  0.00    -0.242 NA
HETATM    7  C13 UNL     1      23.024   2.099  49.868  1.00  0.00     0.380 C 
HETATM    8  N6  UNL     1      21.631   1.888  50.037  1.00  0.00     0.116 N 
HETATM    9  C14 UNL     1      21.731   0.751  50.977  1.00  0.00     0.309 C 
HETATM   10  H12 UNL     1      21.101   2.677  50.408  1.00  0.00     0.319 HD
ENDROOT
BRANCH   3  11
HETATM   11  N3  UNL     1      25.325   2.567  52.936  1.00  0.00    -0.340 N 
HETATM   12  H6  UNL     1      24.991   3.091  53.764  1.00  0.00     0.167 HD
BRANCH  11  13
HETATM   13  C6  UNL     1      26.391   1.588  53.023  1.00  0.00     0.035 A 
HETATM   14  C7  UNL     1      27.644   2.101  53.369  1.00  0.00     0.032 A 
HETATM   15  C8  UNL     1      28.751   1.307  53.488  1.00  0.00     0.046 A 
HETATM   16  C9  UNL     1      28.634  -0.026  53.263  1.00  0.00     0.138 A 
HETATM   17  F1  UNL     1      29.648  -0.909  53.348  1.00  0.00    -0.204 F 
HETATM   18  C10 UNL     1      27.403  -0.563  52.918  1.00  0.00     0.074 A 
HETATM   19 CL1  UNL     1      27.179  -2.284  52.610  1.00  0.00    -0.081 Cl
HETATM   20  C11 UNL     1      26.307   0.259  52.806  1.00  0.00     0.056 A 
ENDBRANCH  11  13
ENDBRANCH   3  11
BRANCH   1  21
HETATM   21  C2  UNL     1      22.526   0.756  53.326  1.00  0.00     0.157 C 
BRANCH  21  22
HETATM   22  N2  UNL     1      22.976  -0.485  53.807  1.00  0.00    -0.381 N 
HETATM   23  H3  UNL     1      23.790  -1.022  53.396  1.00  0.00     0.160 HD
BRANCH  22  24
HETATM   24  C1  UNL     1      22.292  -1.084  54.944  1.00  0.00     0.193 C 
HETATM   25  N1  UNL     1      21.103  -1.591  54.870  1.00  0.00    -0.296 NA
HETATM   26  H1  UNL     1      20.519  -1.626  54.018  1.00  0.00     0.187 HD
ENDBRANCH  22  24
ENDBRANCH  21  22
ENDBRANCH   1  21
TORSDOF 5
ENDMDL
MODEL 5
REMARK VINA RESULT:      -7.1      2.138      3.446
REMARK  5 active torsions:
REMARK  status: ('A' for Active; 'I' for Inactive)
REMARK    1  A    between atoms: C1_2  and  N2_3 
REMARK    2  A    between atoms: N2_3  and  C2_4 
REMARK    3  A    between atoms: C2_4  and  C3_5 
REMARK    4  A    between atoms: C5_7  and  N3_8 
REMARK    5  A    between atoms: N3_8  and  C6_9 
ROOT
HETATM    1  C3  UNL     1      23.672   3.063  49.861  1.00  0.00    -0.021 C 
HETATM    2  C4  UNL     1      22.785   2.237  50.454  1.00  0.00     0.047 C 
HETATM    3  C5  UNL     1      22.911   1.606  51.734  1.00  0.00     0.140 C 
HETATM    4  N4  UNL     1      22.125   0.622  51.973  1.00  0.00    -0.224 NA
HETATM    5  C12 UNL     1      21.168   0.263  50.983  1.00  0.00     0.232 C 
HETATM    6  N5  UNL     1      20.953   0.852  49.839  1.00  0.00    -0.242 NA
HETATM    7  C13 UNL     1      21.679   1.989  49.474  1.00  0.00     0.380 C 
HETATM    8  N6  UNL     1      22.304   2.115  48.205  1.00  0.00     0.116 N 
HETATM    9  C14 UNL     1      23.048   3.360  48.492  1.00  0.00     0.309 C 
HETATM   10  H12 UNL     1      22.904   1.338  47.925  1.00  0.00     0.319 HD
ENDROOT
BRANCH   3  11
HETATM   11  N3  UNL     1      23.782   2.065  52.714  1.00  0.00    -0.340 N 
HETATM   12  H6  UNL     1      23.410   2.788  53.354  1.00  0.00     0.167 HD
BRANCH  11  13
HETATM   13  C6  UNL     1      25.128   1.541  52.844  1.00  0.00     0.035 A 
HETATM   14  C7  UNL     1      25.265   0.177  52.570  1.00  0.00     0.032 A 
HETATM   15  C8  UNL     1      26.469  -0.467  52.652  1.00  0.00     0.046 A 
HETATM   16  C9  UNL     1      27.571   0.237  53.013  1.00  0.00     0.138 A 
HETATM   17  F1  UNL     1      28.808  -0.283  53.129  1.00  0.00    -0.204 F 
HETATM   18  C10 UNL     1      27.464   1.592  53.291  1.00  0.00     0.074 A 
HETATM   19 CL1  UNL     1      28.853   2.568  53.766  1.00  0.00    -0.081 Cl
HETATM   20  C11 UNL     1      26.242   2.214  53.200  1.00  0.00     0.056 A 
ENDBRANCH  11  13
ENDBRANCH   3  11
BRANCH   1  21
HETATM   21  C2  UNL     1      24.964   3.696  50.030  1.00  0.00     0.157 C 
BRANCH  21  22
HETATM   22  N2  UNL     1      25.183   4.866  50.778  1.00  0.00    -0.381 N 
HETATM   23  H3  UNL     1      26.125   5.334  50.885  1.00  0.00     0.160 HD
BRANCH  22  24
HETATM   24  C1  UNL     1      24.052   5.487  51.452  1.00  0.00     0.193 C 
HETATM   25  N1  UNL     1      23.776   5.290  52.702  1.00  0.00    -0.296 NA
HETATM   26  H1  UNL     1      24.313   4.686  53.346  1.00  0.00     0.187 HD
ENDBRANCH  22  24
ENDBRANCH  21  22
ENDBRANCH   1  21
TORSDOF 5
ENDMDL
MODEL 6
REMARK VINA RESULT:      -7.1      3.196      5.373
REMARK  5 active torsions:
REMARK  status: ('A' for Active; 'I' for Inactive)
REMARK    1  A    between atoms: C1_2  and  N2_3 
REMARK    2  A    between atoms: N2_3  and  C2_4 
REMARK    3  A    between atoms: C2_4  and  C3_5 
REMARK    4  A    between atoms: C5_7  and  N3_8 
REMARK    5  A    between atoms: N3_8  and  C6_9 
ROOT
HETATM    1  C3  UNL     1      23.592  -0.644  53.936  1.00  0.00    -0.021 C 
HETATM    2  C4  UNL     1      24.837  -0.128  53.863  1.00  0.00     0.047 C 
HETATM    3  C5  UNL     1      25.451   0.497  52.728  1.00  0.00     0.140 C 
HETATM    4  N4  UNL     1      26.725   0.626  52.760  1.00  0.00    -0.224 NA
HETATM    5  C12 UNL     1      27.423   0.189  53.921  1.00  0.00     0.232 C 
HETATM    6  N5  UNL     1      26.910  -0.309  55.012  1.00  0.00    -0.242 NA
HETATM    7  C13 UNL     1      25.526  -0.437  55.157  1.00  0.00     0.380 C 
HETATM    8  N6  UNL     1      24.918  -1.642  55.596  1.00  0.00     0.116 N 
HETATM    9  C14 UNL     1      23.517  -1.241  55.346  1.00  0.00     0.309 C 
HETATM   10  H12 UNL     1      25.193  -2.488  55.097  1.00  0.00     0.319 HD
ENDROOT
BRANCH   3  11
HETATM   11  N3  UNL     1      24.717   1.013  51.668  1.00  0.00    -0.340 N 
HETATM   12  H6  UNL     1      24.356   0.325  50.984  1.00  0.00     0.167 HD
BRANCH  11  13
HETATM   13  C6  UNL     1      24.452   2.434  51.544  1.00  0.00     0.035 A 
HETATM   14  C7  UNL     1      23.779   3.011  52.624  1.00  0.00     0.032 A 
HETATM   15  C8  UNL     1      23.453   4.338  52.656  1.00  0.00     0.046 A 
HETATM   16  C9  UNL     1      23.792   5.127  51.605  1.00  0.00     0.138 A 
HETATM   17  F1  UNL     1      23.527   6.445  51.519  1.00  0.00    -0.204 F 
HETATM   18  C10 UNL     1      24.462   4.581  50.519  1.00  0.00     0.074 A 
HETATM   19 CL1  UNL     1      24.931   5.545  49.121  1.00  0.00    -0.081 Cl
HETATM   20  C11 UNL     1      24.776   3.243  50.515  1.00  0.00     0.056 A 
ENDBRANCH  11  13
ENDBRANCH   3  11
BRANCH   1  21
HETATM   21  C2  UNL     1      22.380  -0.868  53.174  1.00  0.00     0.157 C 
BRANCH  21  22
HETATM   22  N2  UNL     1      21.281   0.008  53.156  1.00  0.00    -0.381 N 
HETATM   23  H3  UNL     1      21.348   1.040  52.937  1.00  0.00     0.160 HD
BRANCH  22  24
HETATM   24  C1  UNL     1      19.958  -0.523  53.453  1.00  0.00     0.193 C 
HETATM   25  N1  UNL     1      19.762  -1.557  54.208  1.00  0.00    -0.296 NA
HETATM   26  H1  UNL     1      20.502  -2.109  54.672  1.00  0.00     0.187 HD
ENDBRANCH  22  24
ENDBRANCH  21  22
ENDBRANCH   1  21
TORSDOF 5
ENDMDL
MODEL 7
REMARK VINA RESULT:      -7.1      4.247      7.094
REMARK  5 active torsions:
REMARK  status: ('A' for Active; 'I' for Inactive)
REMARK    1  A    between atoms: C1_2  and  N2_3 
REMARK    2  A    between atoms: N2_3  and  C2_4 
REMARK    3  A    between atoms: C2_4  and  C3_5 
REMARK    4  A    between atoms: C5_7  and  N3_8 
REMARK    5  A    between atoms: N3_8  and  C6_9 
ROOT
HETATM    1  C3  UNL     1      25.485   6.922  50.054  1.00  0.00    -0.021 C 
HETATM    2  C4  UNL     1      26.440   6.319  49.317  1.00  0.00     0.047 C 
HETATM    3  C5  UNL     1      26.596   4.913  49.084  1.00  0.00     0.140 C 
HETATM    4  N4  UNL     1      27.731   4.525  48.632  1.00  0.00    -0.224 NA
HETATM    5  C12 UNL     1      28.723   5.507  48.357  1.00  0.00     0.232 C 
HETATM    6  N5  UNL     1      28.608   6.801  48.470  1.00  0.00    -0.242 NA
HETATM    7  C13 UNL     1      27.401   7.379  48.875  1.00  0.00     0.380 C 
HETATM    8  N6  UNL     1      27.336   8.357  49.902  1.00  0.00     0.116 N 
HETATM    9  C14 UNL     1      25.862   8.408  50.011  1.00  0.00     0.309 C 
HETATM   10  H12 UNL     1      27.800   8.117  50.778  1.00  0.00     0.319 HD
ENDROOT
BRANCH   3  11
HETATM   11  N3  UNL     1      25.560   4.004  49.259  1.00  0.00    -0.340 N 
HETATM   12  H6  UNL     1      24.814   4.016  48.542  1.00  0.00     0.167 HD
BRANCH  11  13
HETATM   13  C6  UNL     1      25.540   3.076  50.374  1.00  0.00     0.035 A 
HETATM   14  C7  UNL     1      24.281   2.567  50.703  1.00  0.00     0.032 A 
HETATM   15  C8  UNL     1      24.096   1.685  51.732  1.00  0.00     0.046 A 
HETATM   16  C9  UNL     1      25.169   1.287  52.461  1.00  0.00     0.138 A 
HETATM   17  F1  UNL     1      25.115   0.425  53.495  1.00  0.00    -0.204 F 
HETATM   18  C10 UNL     1      26.431   1.776  52.156  1.00  0.00     0.074 A 
HETATM   19 CL1  UNL     1      27.867   1.303  53.062  1.00  0.00    -0.081 Cl
HETATM   20  C11 UNL     1      26.587   2.661  51.116  1.00  0.00     0.056 A 
ENDBRANCH  11  13
ENDBRANCH   3  11
BRANCH   1  21
HETATM   21  C2  UNL     1      24.317   6.671  50.875  1.00  0.00     0.157 C 
BRANCH  21  22
HETATM   22  N2  UNL     1      24.360   6.385  52.250  1.00  0.00    -0.381 N 
HETATM   23  H3  UNL     1      24.961   6.906  52.946  1.00  0.00     0.160 HD
BRANCH  22  24
HETATM   24  C1  UNL     1      23.528   5.307  52.767  1.00  0.00     0.193 C 
HETATM   25  N1  UNL     1      22.297   5.127  52.410  1.00  0.00    -0.296 NA
HETATM   26  H1  UNL     1      21.777   5.714  51.736  1.00  0.00     0.187 HD
ENDBRANCH  22  24
ENDBRANCH  21  22
ENDBRANCH   1  21
TORSDOF 5
ENDMDL
MODEL 8
REMARK VINA RESULT:      -6.9      3.544      6.102
REMARK  5 active torsions:
REMARK  status: ('A' for Active; 'I' for Inactive)
REMARK    1  A    between atoms: C1_2  and  N2_3 
REMARK    2  A    between atoms: N2_3  and  C2_4 
REMARK    3  A    between atoms: C2_4  and  C3_5 
REMARK    4  A    between atoms: C5_7  and  N3_8 
REMARK    5  A    between atoms: N3_8  and  C6_9 
ROOT
HETATM    1  C3  UNL     1      24.679  -0.051  53.665  1.00  0.00    -0.021 C 
HETATM    2  C4  UNL     1      25.646   0.865  53.448  1.00  0.00     0.047 C 
HETATM    3  C5  UNL     1      25.817   1.685  52.284  1.00  0.00     0.140 C 
HETATM    4  N4  UNL     1      26.960   2.247  52.138  1.00  0.00    -0.224 NA
HETATM    5  C12 UNL     1      27.944   2.056  53.147  1.00  0.00     0.232 C 
HETATM    6  N5  UNL     1      27.816   1.392  54.262  1.00  0.00    -0.242 NA
HETATM    7  C13 UNL     1      26.600   0.790  54.599  1.00  0.00     0.380 C 
HETATM    8  N6  UNL     1      26.517  -0.559  55.033  1.00  0.00     0.116 N 
HETATM    9  C14 UNL     1      25.042  -0.663  55.023  1.00  0.00     0.309 C 
HETATM   10  H12 UNL     1      26.977  -1.249  54.438  1.00  0.00     0.319 HD
ENDROOT
BRANCH   3  11
HETATM   11  N3  UNL     1      24.789   1.934  51.385  1.00  0.00    -0.340 N 
HETATM   12  H6  UNL     1      24.591   1.186  50.697  1.00  0.00     0.167 HD
BRANCH  11  13
HETATM   13  C6  UNL     1      24.021   3.165  51.426  1.00  0.00     0.035 A 
HETATM   14  C7  UNL     1      22.691   3.023  51.830  1.00  0.00     0.032 A 
HETATM   15  C8  UNL     1      21.837   4.088  51.916  1.00  0.00     0.046 A 
HETATM   16  C9  UNL     1      22.292   5.326  51.598  1.00  0.00     0.138 A 
HETATM   17  F1  UNL     1      21.550   6.450  51.643  1.00  0.00    -0.204 F 
HETATM   18  C10 UNL     1      23.608   5.496  51.194  1.00  0.00     0.074 A 
HETATM   19 CL1  UNL     1      24.265   7.074  50.765  1.00  0.00    -0.081 Cl
HETATM   20  C11 UNL     1      24.444   4.407  51.117  1.00  0.00     0.056 A 
ENDBRANCH  11  13
ENDBRANCH   3  11
BRANCH   1  21
HETATM   21  C2  UNL     1      23.507  -0.667  53.075  1.00  0.00     0.157 C 
BRANCH  21  22
HETATM   22  N2  UNL     1      22.187  -0.240  53.302  1.00  0.00    -0.381 N 
HETATM   23  H3  UNL     1      21.827   0.726  53.066  1.00  0.00     0.160 HD
BRANCH  22  24
HETATM   24  C1  UNL     1      21.243  -1.174  53.897  1.00  0.00     0.193 C 
HETATM   25  N1  UNL     1      21.387  -1.669  55.084  1.00  0.00    -0.296 NA
HETATM   26  H1  UNL     1      22.169  -1.464  55.728  1.00  0.00     0.187 HD
ENDBRANCH  22  24
ENDBRANCH  21  22
ENDBRANCH   1  21
TORSDOF 5
ENDMDL
MODEL 9
REMARK VINA RESULT:      -6.8      3.367      5.547
REMARK  5 active torsions:
REMARK  status: ('A' for Active; 'I' for Inactive)
REMARK    1  A    between atoms: C1_2  and  N2_3 
REMARK    2  A    between atoms: N2_3  and  C2_4 
REMARK    3  A    between atoms: C2_4  and  C3_5 
REMARK    4  A    between atoms: C5_7  and  N3_8 
REMARK    5  A    between atoms: N3_8  and  C6_9 
ROOT
HETATM    1  C3  UNL     1      24.590  -0.213  54.020  1.00  0.00    -0.021 C 
HETATM    2  C4  UNL     1      23.360  -0.259  53.467  1.00  0.00     0.047 C 
HETATM    3  C5  UNL     1      22.864   0.547  52.390  1.00  0.00     0.140 C 
HETATM    4  N4  UNL     1      21.593   0.576  52.229  1.00  0.00    -0.224 NA
HETATM    5  C12 UNL     1      20.782  -0.216  53.088  1.00  0.00     0.232 C 
HETATM    6  N5  UNL     1      21.182  -1.029  54.027  1.00  0.00    -0.242 NA
HETATM    7  C13 UNL     1      22.545  -1.227  54.267  1.00  0.00     0.380 C 
HETATM    8  N6  UNL     1      23.103  -1.157  55.571  1.00  0.00     0.116 N 
HETATM    9  C14 UNL     1      24.523  -1.230  55.165  1.00  0.00     0.309 C 
HETATM   10  H12 UNL     1      22.876  -0.321  56.109  1.00  0.00     0.319 HD
ENDROOT
BRANCH   3  11
HETATM   11  N3  UNL     1      23.702   1.213  51.504  1.00  0.00    -0.340 N 
HETATM   12  H6  UNL     1      24.324   0.619  50.929  1.00  0.00     0.167 HD
BRANCH  11  13
HETATM   13  C6  UNL     1      23.685   2.658  51.379  1.00  0.00     0.035 A 
HETATM   14  C7  UNL     1      23.634   3.360  52.586  1.00  0.00     0.032 A 
HETATM   15  C8  UNL     1      23.608   4.726  52.636  1.00  0.00     0.046 A 
HETATM   16  C9  UNL     1      23.632   5.429  51.476  1.00  0.00     0.138 A 
HETATM   17  F1  UNL     1      23.610   6.774  51.394  1.00  0.00    -0.204 F 
HETATM   18  C10 UNL     1      23.683   4.759  50.262  1.00  0.00     0.074 A 
HETATM   19 CL1  UNL     1      23.715   5.608  48.719  1.00  0.00    -0.081 Cl
HETATM   20  C11 UNL     1      23.708   3.385  50.243  1.00  0.00     0.056 A 
ENDBRANCH  11  13
ENDBRANCH   3  11
BRANCH   1  21
HETATM   21  C2  UNL     1      25.871   0.460  53.952  1.00  0.00     0.157 C 
BRANCH  21  22
HETATM   22  N2  UNL     1      26.769   0.569  55.028  1.00  0.00    -0.381 N 
HETATM   23  H3  UNL     1      26.490   0.859  56.006  1.00  0.00     0.160 HD
BRANCH  22  24
HETATM   24  C1  UNL     1      28.174   0.265  54.800  1.00  0.00     0.193 C 
HETATM   25  N1  UNL     1      28.579  -0.790  54.170  1.00  0.00    -0.296 NA
HETATM   26  H1  UNL     1      27.966  -1.519  53.767  1.00  0.00     0.187 HD
ENDBRANCH  22  24
ENDBRANCH  21  22
ENDBRANCH   1  21
TORSDOF 5
ENDMDL
