MODEL 1
REMARK VINA RESULT:      -8.0      0.000      0.000
REMARK  7 active torsions:
REMARK  status: ('A' for Active; 'I' for Inactive)
REMARK    1  A    between atoms: C1_2  and  C2_3 
REMARK       I    between atoms: C1_2  and  N1_7 
REMARK    2  A    between atoms: C3_4  and  C4_5 
REMARK    3  A    between atoms: C4_5  and  O2_6 
REMARK    4  A    between atoms: N1_7  and  C5_8 
REMARK    5  A    between atoms: C6_9  and  C7_10 
REMARK    6  A    between atoms: C10_13  and  N2_14 
REMARK    7  A    between atoms: N2_14  and  C11_15 
ROOT
HETATM    1  C7  UNL     1      22.697  -0.871  53.549  1.00  0.00     0.029 C 
HETATM    2  C8  UNL     1      22.547   0.124  52.692  1.00  0.00     0.043 A 
HETATM    3  C9  UNL     1      23.430   1.313  52.938  1.00  0.00     0.137 A 
HETATM    4  C10 UNL     1      23.117   2.334  51.885  1.00  0.00     0.111 A 
HETATM    5  N3  UNL     1      22.274   2.264  50.935  1.00  0.00    -0.228 NA
HETATM    6  C17 UNL     1      21.497   1.076  50.810  1.00  0.00     0.235 A 
HETATM    7  N4  UNL     1      21.621   0.084  51.622  1.00  0.00    -0.246 NA
ENDROOT
BRANCH   1   8
HETATM    8  C6  UNL     1      23.631  -0.876  54.665  1.00  0.00     0.019 C 
HETATM    9  C5  UNL     1      24.937  -0.923  54.734  1.00  0.00     0.091 C 
BRANCH   9  10
HETATM   10  N1  UNL     1      26.185  -0.986  54.094  1.00  0.00    -0.334 N 
HETATM   11  C1  UNL     1      27.244  -0.052  54.159  1.00  0.00     0.244 C 
HETATM   12  O1  UNL     1      27.223   1.007  54.822  1.00  0.00    -0.268 OA
HETATM   13  H6  UNL     1      26.527  -1.725  53.472  1.00  0.00     0.168 HD
BRANCH  11  14
HETATM   14  C2  UNL     1      28.541  -0.090  53.510  1.00  0.00     0.072 C 
HETATM   15  C3  UNL     1      29.234  -1.182  53.284  1.00  0.00     0.004 C 
BRANCH  15  16
HETATM   16  C4  UNL     1      29.204  -2.628  53.462  1.00  0.00     0.191 C 
BRANCH  16  17
HETATM   17  O2  UNL     1      28.112  -3.152  52.732  1.00  0.00    -0.397 OA
HETATM   18  H5  UNL     1      27.996  -2.708  51.866  1.00  0.00     0.209 HD
ENDBRANCH  16  17
ENDBRANCH  15  16
ENDBRANCH  11  14
ENDBRANCH   9  10
ENDBRANCH   1   8
BRANCH   4  19
HETATM   19  N2  UNL     1      23.859   3.545  51.955  1.00  0.00    -0.344 N 
HETATM   20  H12 UNL     1      23.807   4.225  52.770  1.00  0.00     0.167 HD
BRANCH  19  21
HETATM   21  C11 UNL     1      24.763   3.991  50.937  1.00  0.00     0.034 A 
HETATM   22  C12 UNL     1      25.804   3.091  50.687  1.00  0.00     0.029 A 
HETATM   23  C13 UNL     1      26.739   3.418  49.722  1.00  0.00     0.004 A 
HETATM   24  C14 UNL     1      26.684   4.588  49.004  1.00  0.00     0.019 A 
HETATM   25  C15 UNL     1      25.642   5.465  49.269  1.00  0.00     0.013 A 
HETATM   26 BR1  UNL     1      25.456   7.133  48.331  1.00  0.00    -0.051 Br
HETATM   27  C16 UNL     1      24.677   5.174  50.236  1.00  0.00     0.048 A 
ENDBRANCH  19  21
ENDBRANCH   4  19
TORSDOF 7
ENDMDL
MODEL 2
REMARK VINA RESULT:      -7.9      3.476      7.493
REMARK  7 active torsions:
REMARK  status: ('A' for Active; 'I' for Inactive)
REMARK    1  A    between atoms: C1_2  and  C2_3 
REMARK       I    between atoms: C1_2  and  N1_7 
REMARK    2  A    between atoms: C3_4  and  C4_5 
REMARK    3  A    between atoms: C4_5  and  O2_6 
REMARK    4  A    between atoms: N1_7  and  C5_8 
REMARK    5  A    between atoms: C6_9  and  C7_10 
REMARK    6  A    between atoms: C10_13  and  N2_14 
REMARK    7  A    between atoms: N2_14  and  C11_15 
ROOT
HETATM    1  C7  UNL     1      27.202   2.435  51.889  1.00  0.00     0.029 C 
HETATM    2  C8  UNL     1      27.288   1.543  52.860  1.00  0.00     0.043 A 
HETATM    3  C9  UNL     1      26.007   0.830  53.183  1.00  0.00     0.137 A 
HETATM    4  C10 UNL     1      26.292  -0.126  54.303  1.00  0.00     0.111 A 
HETATM    5  N3  UNL     1      27.392  -0.339  54.906  1.00  0.00    -0.228 NA
HETATM    6  C17 UNL     1      28.538   0.404  54.500  1.00  0.00     0.235 A 
HETATM    7  N4  UNL     1      28.493   1.277  53.554  1.00  0.00    -0.246 NA
ENDROOT
BRANCH   1   8
HETATM    8  C6  UNL     1      25.989   2.747  51.149  1.00  0.00     0.019 C 
HETATM    9  C5  UNL     1      25.653   3.740  50.365  1.00  0.00     0.091 C 
BRANCH   9  10
HETATM   10  N1  UNL     1      25.977   4.952  49.734  1.00  0.00    -0.334 N 
HETATM   11  C1  UNL     1      27.112   5.246  48.944  1.00  0.00     0.244 C 
HETATM   12  O1  UNL     1      28.028   4.437  48.680  1.00  0.00    -0.268 OA
HETATM   13  H6  UNL     1      25.437   5.823  49.749  1.00  0.00     0.168 HD
BRANCH  11  14
HETATM   14  C2  UNL     1      27.472   6.485  48.281  1.00  0.00     0.072 C 
HETATM   15  C3  UNL     1      27.067   7.678  48.652  1.00  0.00     0.004 C 
BRANCH  15  16
HETATM   16  C4  UNL     1      26.251   8.365  49.645  1.00  0.00     0.191 C 
BRANCH  16  17
HETATM   17  O2  UNL     1      26.388   7.698  50.885  1.00  0.00    -0.397 OA
HETATM   18  H5  UNL     1      26.733   6.788  50.780  1.00  0.00     0.209 HD
ENDBRANCH  16  17
ENDBRANCH  15  16
ENDBRANCH  11  14
ENDBRANCH   9  10
ENDBRANCH   1   8
BRANCH   4  19
HETATM   19  N2  UNL     1      25.187  -0.899  54.755  1.00  0.00    -0.344 N 
HETATM   20  H12 UNL     1      25.261  -1.663  55.490  1.00  0.00     0.167 HD
BRANCH  19  21
HETATM   21  C11 UNL     1      23.847  -0.740  54.274  1.00  0.00     0.034 A 
HETATM   22  C12 UNL     1      22.882  -1.269  55.138  1.00  0.00     0.029 A 
HETATM   23  C13 UNL     1      21.552  -1.173  54.775  1.00  0.00     0.004 A 
HETATM   24  C14 UNL     1      21.144  -0.581  53.605  1.00  0.00     0.019 A 
HETATM   25  C15 UNL     1      22.119  -0.064  52.764  1.00  0.00     0.013 A 
HETATM   26 BR1  UNL     1      21.674   0.788  51.098  1.00  0.00    -0.051 Br
HETATM   27  C16 UNL     1      23.474  -0.140  53.091  1.00  0.00     0.048 A 
ENDBRANCH  19  21
ENDBRANCH   4  19
TORSDOF 7
ENDMDL
MODEL 3
REMARK VINA RESULT:      -7.8      4.604      7.757
REMARK  7 active torsions:
REMARK  status: ('A' for Active; 'I' for Inactive)
REMARK    1  A    between atoms: C1_2  and  C2_3 
REMARK       I    between atoms: C1_2  and  N1_7 
REMARK    2  A    between atoms: C3_4  and  C4_5 
REMARK    3  A    between atoms: C4_5  and  O2_6 
REMARK    4  A    between atoms: N1_7  and  C5_8 
REMARK    5  A    between atoms: C6_9  and  C7_10 
REMARK    6  A    between atoms: C10_13  and  N2_14 
REMARK    7  A    between atoms: N2_14  and  C11_15 
ROOT
HETATM    1  C7  UNL     1      26.048   5.468  49.352  1.00  0.00     0.029 C 
HETATM    2  C8  UNL     1      25.404   4.758  50.261  1.00  0.00     0.043 A 
HETATM    3  C9  UNL     1      25.952   3.381  50.498  1.00  0.00     0.137 A 
HETATM    4  C10 UNL     1      25.099   2.728  51.544  1.00  0.00     0.111 A 
HETATM    5  N3  UNL     1      24.088   3.201  52.155  1.00  0.00    -0.228 NA
HETATM    6  C17 UNL     1      23.669   4.526  51.838  1.00  0.00     0.235 A 
HETATM    7  N4  UNL     1      24.276   5.249  50.963  1.00  0.00    -0.246 NA
ENDROOT
BRANCH   1   8
HETATM    8  C6  UNL     1      27.208   5.009  48.604  1.00  0.00     0.019 C 
HETATM    9  C5  UNL     1      28.428   5.465  48.482  1.00  0.00     0.091 C 
BRANCH   9  10
HETATM   10  N1  UNL     1      29.405   6.421  48.806  1.00  0.00    -0.334 N 
HETATM   11  C1  UNL     1      30.783   6.212  49.039  1.00  0.00     0.244 C 
HETATM   12  O1  UNL     1      31.356   5.102  48.989  1.00  0.00    -0.268 OA
HETATM   13  H6  UNL     1      29.270   7.430  48.926  1.00  0.00     0.168 HD
BRANCH  11  14
HETATM   14  C2  UNL     1      31.813   7.177  49.374  1.00  0.00     0.072 C 
HETATM   15  C3  UNL     1      31.636   8.477  49.418  1.00  0.00     0.004 C 
BRANCH  15  16
HETATM   16  C4  UNL     1      30.630   9.514  49.226  1.00  0.00     0.191 C 
BRANCH  16  17
HETATM   17  O2  UNL     1      29.542   9.256  50.092  1.00  0.00    -0.397 OA
HETATM   18  H5  UNL     1      29.539   9.850  50.872  1.00  0.00     0.209 HD
ENDBRANCH  16  17
ENDBRANCH  15  16
ENDBRANCH  11  14
ENDBRANCH   9  10
ENDBRANCH   1   8
BRANCH   4  19
HETATM   19  N2  UNL     1      25.465   1.402  51.904  1.00  0.00    -0.344 N 
HETATM   20  H12 UNL     1      24.843   0.554  51.748  1.00  0.00     0.167 HD
BRANCH  19  21
HETATM   21  C11 UNL     1      26.711   1.052  52.518  1.00  0.00     0.034 A 
HETATM   22  C12 UNL     1      27.374   2.144  53.088  1.00  0.00     0.029 A 
HETATM   23  C13 UNL     1      28.589   1.925  53.709  1.00  0.00     0.004 A 
HETATM   24  C14 UNL     1      29.167   0.681  53.787  1.00  0.00     0.019 A 
HETATM   25  C15 UNL     1      28.491  -0.387  53.215  1.00  0.00     0.013 A 
HETATM   26 BR1  UNL     1      29.197  -2.175  53.259  1.00  0.00    -0.051 Br
HETATM   27  C16 UNL     1      27.262  -0.210  52.577  1.00  0.00     0.048 A 
ENDBRANCH  19  21
ENDBRANCH   4  19
TORSDOF 7
ENDMDL
MODEL 4
REMARK VINA RESULT:      -7.8      2.024      2.659
REMARK  7 active torsions:
REMARK  status: ('A' for Active; 'I' for Inactive)
REMARK    1  A    between atoms: C1_2  and  C2_3 
REMARK       I    between atoms: C1_2  and  N1_7 
REMARK    2  A    between atoms: C3_4  and  C4_5 
REMARK    3  A    between atoms: C4_5  and  O2_6 
REMARK    4  A    between atoms: N1_7  and  C5_8 
REMARK    5  A    between atoms: C6_9  and  C7_10 
REMARK    6  A    between atoms: C10_13  and  N2_14 
REMARK    7  A    between atoms: N2_14  and  C11_15 
ROOT
HETATM    1  C7  UNL     1      24.122   1.818  52.335  1.00  0.00     0.029 C 
HETATM    2  C8  UNL     1      23.819   2.439  51.209  1.00  0.00     0.043 A 
HETATM    3  C9  UNL     1      24.457   3.787  51.036  1.00  0.00     0.137 A 
HETATM    4  C10 UNL     1      23.997   4.340  49.720  1.00  0.00     0.111 A 
HETATM    5  N3  UNL     1      23.215   3.812  48.866  1.00  0.00    -0.228 NA
HETATM    6  C17 UNL     1      22.678   2.524  49.150  1.00  0.00     0.235 A 
HETATM    7  N4  UNL     1      22.955   1.886  50.234  1.00  0.00    -0.246 NA
ENDROOT
BRANCH   1   8
HETATM    8  C6  UNL     1      25.001   2.345  53.368  1.00  0.00     0.019 C 
HETATM    9  C5  UNL     1      26.106   1.900  53.909  1.00  0.00     0.091 C 
BRANCH   9  10
HETATM   10  N1  UNL     1      27.105   0.917  53.999  1.00  0.00    -0.334 N 
HETATM   11  C1  UNL     1      28.460   1.014  53.607  1.00  0.00     0.244 C 
HETATM   12  O1  UNL     1      28.987   2.031  53.106  1.00  0.00    -0.268 OA
HETATM   13  H6  UNL     1      27.007  -0.035  54.364  1.00  0.00     0.168 HD
BRANCH  11  14
HETATM   14  C2  UNL     1      29.511   0.018  53.687  1.00  0.00     0.072 C 
HETATM   15  C3  UNL     1      29.357  -1.257  53.417  1.00  0.00     0.004 C 
BRANCH  15  16
HETATM   16  C4  UNL     1      28.365  -2.238  52.992  1.00  0.00     0.191 C 
BRANCH  16  17
HETATM   17  O2  UNL     1      28.755  -3.512  53.467  1.00  0.00    -0.397 OA
HETATM   18  H5  UNL     1      29.727  -3.595  53.551  1.00  0.00     0.209 HD
ENDBRANCH  16  17
ENDBRANCH  15  16
ENDBRANCH  11  14
ENDBRANCH   9  10
ENDBRANCH   1   8
BRANCH   4  19
HETATM   19  N2  UNL     1      24.499   5.626  49.377  1.00  0.00    -0.344 N 
HETATM   20  H12 UNL     1      23.916   6.514  49.402  1.00  0.00     0.167 HD
BRANCH  19  21
HETATM   21  C11 UNL     1      25.846   5.875  48.959  1.00  0.00     0.034 A 
HETATM   22  C12 UNL     1      26.649   4.730  48.962  1.00  0.00     0.029 A 
HETATM   23  C13 UNL     1      27.970   4.853  48.575  1.00  0.00     0.004 A 
HETATM   24  C14 UNL     1      28.522   6.050  48.190  1.00  0.00     0.019 A 
HETATM   25  C15 UNL     1      27.705   7.173  48.194  1.00  0.00     0.013 A 
HETATM   26 BR1  UNL     1      28.360   8.905  47.677  1.00  0.00    -0.051 Br
HETATM   27  C16 UNL     1      26.365   7.094  48.578  1.00  0.00     0.048 A 
ENDBRANCH  19  21
ENDBRANCH   4  19
TORSDOF 7
ENDMDL
MODEL 5
REMARK VINA RESULT:      -7.7      4.283      7.408
REMARK  7 active torsions:
REMARK  status: ('A' for Active; 'I' for Inactive)
REMARK    1  A    between atoms: C1_2  and  C2_3 
REMARK       I    between atoms: C1_2  and  N1_7 
REMARK    2  A    between atoms: C3_4  and  C4_5 
REMARK    3  A    between atoms: C4_5  and  O2_6 
REMARK    4  A    between atoms: N1_7  and  C5_8 
REMARK    5  A    between atoms: C6_9  and  C7_10 
REMARK    6  A    between atoms: C10_13  and  N2_14 
REMARK    7  A    between atoms: N2_14  and  C11_15 
ROOT
HETATM    1  C7  UNL     1      25.695   5.853  49.642  1.00  0.00     0.029 C 
HETATM    2  C8  UNL     1      24.845   5.201  50.414  1.00  0.00     0.043 A 
HETATM    3  C9  UNL     1      24.887   3.706  50.285  1.00  0.00     0.137 A 
HETATM    4  C10 UNL     1      23.860   3.142  51.220  1.00  0.00     0.111 A 
HETATM    5  N3  UNL     1      23.071   3.763  52.003  1.00  0.00    -0.228 NA
HETATM    6  C17 UNL     1      23.133   5.186  52.033  1.00  0.00     0.235 A 
HETATM    7  N4  UNL     1      23.953   5.854  51.298  1.00  0.00    -0.246 NA
ENDROOT
BRANCH   1   8
HETATM    8  C6  UNL     1      26.629   5.229  48.716  1.00  0.00     0.019 C 
HETATM    9  C5  UNL     1      27.911   5.382  48.505  1.00  0.00     0.091 C 
BRANCH   9  10
HETATM   10  N1  UNL     1      29.127   6.011  48.818  1.00  0.00    -0.334 N 
HETATM   11  C1  UNL     1      29.519   7.338  48.530  1.00  0.00     0.244 C 
HETATM   12  O1  UNL     1      28.811   8.179  47.934  1.00  0.00    -0.268 OA
HETATM   13  H6  UNL     1      29.929   5.602  49.307  1.00  0.00     0.168 HD
BRANCH  11  14
HETATM   14  C2  UNL     1      30.764   8.014  48.839  1.00  0.00     0.072 C 
HETATM   15  C3  UNL     1      31.868   7.414  49.222  1.00  0.00     0.004 C 
BRANCH  15  16
HETATM   16  C4  UNL     1      32.429   6.099  49.509  1.00  0.00     0.191 C 
BRANCH  16  17
HETATM   17  O2  UNL     1      31.665   5.493  50.533  1.00  0.00    -0.397 OA
HETATM   18  H5  UNL     1      31.820   4.528  50.591  1.00  0.00     0.209 HD
ENDBRANCH  16  17
ENDBRANCH  15  16
ENDBRANCH  11  14
ENDBRANCH   9  10
ENDBRANCH   1   8
BRANCH   4  19
HETATM   19  N2  UNL     1      23.747   1.725  51.238  1.00  0.00    -0.344 N 
HETATM   20  H12 UNL     1      23.171   1.169  50.539  1.00  0.00     0.167 HD
BRANCH  19  21
HETATM   21  C11 UNL     1      24.396   0.880  52.196  1.00  0.00     0.034 A 
HETATM   22  C12 UNL     1      23.511   0.289  53.103  1.00  0.00     0.029 A 
HETATM   23  C13 UNL     1      24.027  -0.548  54.075  1.00  0.00     0.004 A 
HETATM   24  C14 UNL     1      25.369  -0.819  54.183  1.00  0.00     0.019 A 
HETATM   25  C15 UNL     1      26.228  -0.221  53.272  1.00  0.00     0.013 A 
HETATM   26 BR1  UNL     1      28.127  -0.521  53.320  1.00  0.00    -0.051 Br
HETATM   27  C16 UNL     1      25.750   0.632  52.275  1.00  0.00     0.048 A 
ENDBRANCH  19  21
ENDBRANCH   4  19
TORSDOF 7
ENDMDL
MODEL 6
REMARK VINA RESULT:      -7.7      4.846      7.326
REMARK  7 active torsions:
REMARK  status: ('A' for Active; 'I' for Inactive)
REMARK    1  A    between atoms: C1_2  and  C2_3 
REMARK       I    between atoms: C1_2  and  N1_7 
REMARK    2  A    between atoms: C3_4  and  C4_5 
REMARK    3  A    between atoms: C4_5  and  O2_6 
REMARK    4  A    between atoms: N1_7  and  C5_8 
REMARK    5  A    between atoms: C6_9  and  C7_10 
REMARK    6  A    between atoms: C10_13  and  N2_14 
REMARK    7  A    between atoms: N2_14  and  C11_15 
ROOT
HETATM    1  C7  UNL     1      22.670   0.291  52.392  1.00  0.00     0.029 C 
HETATM    2  C8  UNL     1      21.370   0.217  52.169  1.00  0.00     0.043 A 
HETATM    3  C9  UNL     1      20.582  -0.495  53.230  1.00  0.00     0.137 A 
HETATM    4  C10 UNL     1      19.144  -0.489  52.807  1.00  0.00     0.111 A 
HETATM    5  N3  UNL     1      18.626   0.011  51.757  1.00  0.00    -0.228 NA
HETATM    6  C17 UNL     1      19.486   0.664  50.827  1.00  0.00     0.235 A 
HETATM    7  N4  UNL     1      20.756   0.761  51.015  1.00  0.00    -0.246 NA
ENDROOT
BRANCH   1   8
HETATM    8  C6  UNL     1      23.348  -0.254  53.559  1.00  0.00     0.019 C 
HETATM    9  C5  UNL     1      24.601  -0.536  53.811  1.00  0.00     0.091 C 
BRANCH   9  10
HETATM   10  N1  UNL     1      25.943  -0.576  53.400  1.00  0.00    -0.334 N 
HETATM   11  C1  UNL     1      27.066   0.000  54.036  1.00  0.00     0.244 C 
HETATM   12  O1  UNL     1      27.026   0.655  55.100  1.00  0.00    -0.268 OA
HETATM   13  H6  UNL     1      26.322  -1.034  52.565  1.00  0.00     0.168 HD
BRANCH  11  14
HETATM   14  C2  UNL     1      28.460  -0.025  53.636  1.00  0.00     0.072 C 
HETATM   15  C3  UNL     1      29.138  -1.112  53.350  1.00  0.00     0.004 C 
BRANCH  15  16
HETATM   16  C4  UNL     1      29.015  -2.562  53.263  1.00  0.00     0.191 C 
BRANCH  16  17
HETATM   17  O2  UNL     1      27.692  -2.883  52.881  1.00  0.00    -0.397 OA
HETATM   18  H5  UNL     1      27.424  -2.433  52.053  1.00  0.00     0.209 HD
ENDBRANCH  16  17
ENDBRANCH  15  16
ENDBRANCH  11  14
ENDBRANCH   9  10
ENDBRANCH   1   8
BRANCH   4  19
HETATM   19  N2  UNL     1      18.233  -1.127  53.693  1.00  0.00    -0.344 N 
HETATM   20  H12 UNL     1      18.157  -0.899  54.728  1.00  0.00     0.167 HD
BRANCH  19  21
HETATM   21  C11 UNL     1      17.312  -2.150  53.297  1.00  0.00     0.034 A 
HETATM   22  C12 UNL     1      17.660  -3.421  53.766  1.00  0.00     0.029 A 
HETATM   23  C13 UNL     1      16.842  -4.488  53.444  1.00  0.00     0.004 A 
HETATM   24  C14 UNL     1      15.706  -4.348  52.685  1.00  0.00     0.019 A 
HETATM   25  C15 UNL     1      15.381  -3.077  52.230  1.00  0.00     0.013 A 
HETATM   26 BR1  UNL     1      13.818  -2.752  51.158  1.00  0.00    -0.051 Br
HETATM   27  C16 UNL     1      16.180  -1.972  52.531  1.00  0.00     0.048 A 
ENDBRANCH  19  21
ENDBRANCH   4  19
TORSDOF 7
ENDMDL
MODEL 7
REMARK VINA RESULT:      -7.6      4.287      7.543
REMARK  7 active torsions:
REMARK  status: ('A' for Active; 'I' for Inactive)
REMARK    1  A    between atoms: C1_2  and  C2_3 
REMARK       I    between atoms: C1_2  and  N1_7 
REMARK    2  A    between atoms: C3_4  and  C4_5 
REMARK    3  A    between atoms: C4_5  and  O2_6 
REMARK    4  A    between atoms: N1_7  and  C5_8 
REMARK    5  A    between atoms: C6_9  and  C7_10 
REMARK    6  A    between atoms: C10_13  and  N2_14 
REMARK    7  A    between atoms: N2_14  and  C11_15 
ROOT
HETATM    1  C7  UNL     1      25.306   5.384  49.902  1.00  0.00     0.029 C 
HETATM    2  C8  UNL     1      24.516   4.717  50.725  1.00  0.00     0.043 A 
HETATM    3  C9  UNL     1      24.626   3.223  50.639  1.00  0.00     0.137 A 
HETATM    4  C10 UNL     1      23.661   2.640  51.628  1.00  0.00     0.111 A 
HETATM    5  N3  UNL     1      22.871   3.247  52.420  1.00  0.00    -0.228 NA
HETATM    6  C17 UNL     1      22.866   4.672  52.405  1.00  0.00     0.235 A 
HETATM    7  N4  UNL     1      23.626   5.355  51.621  1.00  0.00    -0.246 NA
ENDROOT
BRANCH   1   8
HETATM    8  C6  UNL     1      26.234   4.776  48.961  1.00  0.00     0.019 C 
HETATM    9  C5  UNL     1      27.496   4.991  48.689  1.00  0.00     0.091 C 
BRANCH   9  10
HETATM   10  N1  UNL     1      28.685   5.701  48.923  1.00  0.00    -0.334 N 
HETATM   11  C1  UNL     1      29.247   6.739  48.145  1.00  0.00     0.244 C 
HETATM   12  O1  UNL     1      28.747   7.195  47.094  1.00  0.00    -0.268 OA
HETATM   13  H6  UNL     1      29.339   5.576  49.702  1.00  0.00     0.168 HD
BRANCH  11  14
HETATM   14  C2  UNL     1      30.470   7.488  48.361  1.00  0.00     0.072 C 
HETATM   15  C3  UNL     1      31.561   7.000  48.903  1.00  0.00     0.004 C 
BRANCH  15  16
HETATM   16  C4  UNL     1      32.124   5.782  49.476  1.00  0.00     0.191 C 
BRANCH  16  17
HETATM   17  O2  UNL     1      31.358   5.417  50.607  1.00  0.00    -0.397 OA
HETATM   18  H5  UNL     1      31.302   4.446  50.721  1.00  0.00     0.209 HD
ENDBRANCH  16  17
ENDBRANCH  15  16
ENDBRANCH  11  14
ENDBRANCH   9  10
ENDBRANCH   1   8
BRANCH   4  19
HETATM   19  N2  UNL     1      23.618   1.220  51.691  1.00  0.00    -0.344 N 
HETATM   20  H12 UNL     1      24.266   0.584  51.139  1.00  0.00     0.167 HD
BRANCH  19  21
HETATM   21  C11 UNL     1      22.698   0.481  52.504  1.00  0.00     0.034 A 
HETATM   22  C12 UNL     1      23.297  -0.109  53.622  1.00  0.00     0.029 A 
HETATM   23  C13 UNL     1      22.504  -0.849  54.479  1.00  0.00     0.004 A 
HETATM   24  C14 UNL     1      21.157  -1.024  54.276  1.00  0.00     0.019 A 
HETATM   25  C15 UNL     1      20.585  -0.429  53.161  1.00  0.00     0.013 A 
HETATM   26 BR1  UNL     1      18.711  -0.602  52.768  1.00  0.00    -0.051 Br
HETATM   27  C16 UNL     1      21.349   0.326  52.269  1.00  0.00     0.048 A 
ENDBRANCH  19  21
ENDBRANCH   4  19
TORSDOF 7
ENDMDL
MODEL 8
REMARK VINA RESULT:      -7.5      3.264      5.967
REMARK  7 active torsions:
REMARK  status: ('A' for Active; 'I' for Inactive)
REMARK    1  A    between atoms: C1_2  and  C2_3 
REMARK       I    between atoms: C1_2  and  N1_7 
REMARK    2  A    between atoms: C3_4  and  C4_5 
REMARK    3  A    between atoms: C4_5  and  O2_6 
REMARK    4  A    between atoms: N1_7  and  C5_8 
REMARK    5  A    between atoms: C6_9  and  C7_10 
REMARK    6  A    between atoms: C10_13  and  N2_14 
REMARK    7  A    between atoms: N2_14  and  C11_15 
ROOT
HETATM    1  C7  UNL     1      20.517   1.120  50.499  1.00  0.00     0.029 C 
HETATM    2  C8  UNL     1      20.935   0.760  51.700  1.00  0.00     0.043 A 
HETATM    3  C9  UNL     1      22.291   0.117  51.735  1.00  0.00     0.137 A 
HETATM    4  C10 UNL     1      22.592  -0.228  53.162  1.00  0.00     0.111 A 
HETATM    5  N3  UNL     1      21.873  -0.036  54.195  1.00  0.00    -0.228 NA
HETATM    6  C17 UNL     1      20.604   0.588  54.026  1.00  0.00     0.235 A 
HETATM    7  N4  UNL     1      20.166   0.957  52.872  1.00  0.00    -0.246 NA
ENDROOT
BRANCH   1   8
HETATM    8  C6  UNL     1      21.268   0.937  49.266  1.00  0.00     0.019 C 
HETATM    9  C5  UNL     1      22.085   1.709  48.597  1.00  0.00     0.091 C 
BRANCH   9  10
HETATM   10  N1  UNL     1      22.759   2.933  48.458  1.00  0.00    -0.334 N 
HETATM   11  C1  UNL     1      23.635   3.554  49.377  1.00  0.00     0.244 C 
HETATM   12  O1  UNL     1      23.952   3.085  50.491  1.00  0.00    -0.268 OA
HETATM   13  H6  UNL     1      22.719   3.576  47.661  1.00  0.00     0.168 HD
BRANCH  11  14
HETATM   14  C2  UNL     1      24.343   4.815  49.261  1.00  0.00     0.072 C 
HETATM   15  C3  UNL     1      25.649   4.940  49.221  1.00  0.00     0.004 C 
BRANCH  15  16
HETATM   16  C4  UNL     1      26.886   4.170  49.253  1.00  0.00     0.191 C 
BRANCH  16  17
HETATM   17  O2  UNL     1      27.058   3.642  50.554  1.00  0.00    -0.397 OA
HETATM   18  H5  UNL     1      26.856   2.685  50.597  1.00  0.00     0.209 HD
ENDBRANCH  16  17
ENDBRANCH  15  16
ENDBRANCH  11  14
ENDBRANCH   9  10
ENDBRANCH   1   8
BRANCH   4  19
HETATM   19  N2  UNL     1      23.846  -0.855  53.399  1.00  0.00    -0.344 N 
HETATM   20  H12 UNL     1      23.966  -1.900  53.551  1.00  0.00     0.167 HD
BRANCH  19  21
HETATM   21  C11 UNL     1      25.094  -0.154  53.460  1.00  0.00     0.034 A 
HETATM   22  C12 UNL     1      24.948   1.236  53.504  1.00  0.00     0.029 A 
HETATM   23  C13 UNL     1      26.087   2.016  53.564  1.00  0.00     0.004 A 
HETATM   24  C14 UNL     1      27.352   1.480  53.583  1.00  0.00     0.019 A 
HETATM   25  C15 UNL     1      27.472   0.098  53.539  1.00  0.00     0.013 A 
HETATM   26 BR1  UNL     1      29.187  -0.772  53.560  1.00  0.00    -0.051 Br
HETATM   27  C16 UNL     1      26.348  -0.727  53.477  1.00  0.00     0.048 A 
ENDBRANCH  19  21
ENDBRANCH   4  19
TORSDOF 7
ENDMDL
MODEL 9
REMARK VINA RESULT:      -7.5      3.716      7.112
REMARK  7 active torsions:
REMARK  status: ('A' for Active; 'I' for Inactive)
REMARK    1  A    between atoms: C1_2  and  C2_3 
REMARK       I    between atoms: C1_2  and  N1_7 
REMARK    2  A    between atoms: C3_4  and  C4_5 
REMARK    3  A    between atoms: C4_5  and  O2_6 
REMARK    4  A    between atoms: N1_7  and  C5_8 
REMARK    5  A    between atoms: C6_9  and  C7_10 
REMARK    6  A    between atoms: C10_13  and  N2_14 
REMARK    7  A    between atoms: N2_14  and  C11_15 
ROOT
HETATM    1  C7  UNL     1      24.154   3.340  49.919  1.00  0.00     0.029 C 
HETATM    2  C8  UNL     1      23.577   2.636  50.876  1.00  0.00     0.043 A 
HETATM    3  C9  UNL     1      24.512   1.805  51.705  1.00  0.00     0.137 A 
HETATM    4  C10 UNL     1      23.688   1.076  52.724  1.00  0.00     0.111 A 
HETATM    5  N3  UNL     1      22.428   1.114  52.902  1.00  0.00    -0.228 NA
HETATM    6  C17 UNL     1      21.652   1.947  52.045  1.00  0.00     0.235 A 
HETATM    7  N4  UNL     1      22.181   2.652  51.106  1.00  0.00    -0.246 NA
ENDROOT
BRANCH   1   8
HETATM    8  C6  UNL     1      25.583   3.355  49.640  1.00  0.00     0.019 C 
HETATM    9  C5  UNL     1      26.422   4.313  49.340  1.00  0.00     0.091 C 
BRANCH   9  10
HETATM   10  N1  UNL     1      26.677   5.672  49.097  1.00  0.00    -0.334 N 
HETATM   11  C1  UNL     1      27.833   6.252  48.527  1.00  0.00     0.244 C 
HETATM   12  O1  UNL     1      28.836   5.615  48.140  1.00  0.00    -0.268 OA
HETATM   13  H6  UNL     1      26.060   6.465  49.298  1.00  0.00     0.168 HD
BRANCH  11  14
HETATM   14  C2  UNL     1      28.124   7.649  48.265  1.00  0.00     0.072 C 
HETATM   15  C3  UNL     1      27.688   8.654  48.989  1.00  0.00     0.004 C 
BRANCH  15  16
HETATM   16  C4  UNL     1      26.880   8.970  50.161  1.00  0.00     0.191 C 
BRANCH  16  17
HETATM   17  O2  UNL     1      27.730   9.468  51.176  1.00  0.00    -0.397 OA
HETATM   18  H5  UNL     1      28.452   8.844  51.395  1.00  0.00     0.209 HD
ENDBRANCH  16  17
ENDBRANCH  15  16
ENDBRANCH  11  14
ENDBRANCH   9  10
ENDBRANCH   1   8
BRANCH   4  19
HETATM   19  N2  UNL     1      24.405   0.226  53.610  1.00  0.00    -0.344 N 
HETATM   20  H12 UNL     1      23.950  -0.335  54.389  1.00  0.00     0.167 HD
BRANCH  19  21
HETATM   21  C11 UNL     1      25.823   0.026  53.558  1.00  0.00     0.034 A 
HETATM   22  C12 UNL     1      26.190  -1.192  52.978  1.00  0.00     0.029 A 
HETATM   23  C13 UNL     1      27.535  -1.493  52.875  1.00  0.00     0.004 A 
HETATM   24  C14 UNL     1      28.520  -0.645  53.319  1.00  0.00     0.019 A 
HETATM   25  C15 UNL     1      28.131   0.559  53.891  1.00  0.00     0.013 A 
HETATM   26 BR1  UNL     1      29.415   1.830  54.550  1.00  0.00    -0.051 Br
HETATM   27  C16 UNL     1      26.784   0.902  54.015  1.00  0.00     0.048 A 
ENDBRANCH  19  21
ENDBRANCH   4  19
TORSDOF 7
ENDMDL
