MODEL 1
REMARK VINA RESULT:      -9.8      0.000      0.000
REMARK  0 active torsions:
REMARK  status: ('A' for Active; 'I' for Inactive)
ROOT
HETATM    1  C1  UNL     1      23.206   8.483  49.597  1.00  0.00     0.130 C 
HETATM    2  N1  UNL     1      22.429   7.293  49.490  1.00  0.00    -0.251 NA
HETATM    3  C2  UNL     1      21.374   7.193  50.509  1.00  0.00     0.135 C 
HETATM    4  C3  UNL     1      22.347   6.233  51.135  1.00  0.00     0.147 C 
HETATM    5  C4  UNL     1      21.768   4.937  51.612  1.00  0.00     0.097 C 
HETATM    6  F1  UNL     1      22.649   3.910  51.294  1.00  0.00    -0.213 F 
HETATM    7  C5  UNL     1      21.182   3.845  52.066  1.00  0.00     0.063 C 
HETATM    8  C6  UNL     1      20.327   2.830  52.646  1.00  0.00     0.028 C 
HETATM    9  C7  UNL     1      21.189   1.837  52.345  1.00  0.00     0.111 C 
HETATM   10  N2  UNL     1      21.654   0.512  52.293  1.00  0.00    -0.367 N 
HETATM   11  C8  UNL     1      22.381  -0.235  53.302  1.00  0.00     0.138 A 
HETATM   12  N3  UNL     1      21.893  -1.214  53.997  1.00  0.00    -0.224 NA
HETATM   13  C9  UNL     1      22.513  -1.935  54.957  1.00  0.00     0.236 A 
HETATM   14  N4  UNL     1      23.795  -1.517  55.158  1.00  0.00    -0.240 NA
HETATM   15  C10 UNL     1      24.297  -0.517  54.447  1.00  0.00     0.089 A 
HETATM   16  C11 UNL     1      25.611  -0.292  54.816  1.00  0.00     0.151 A 
HETATM   17  N5  UNL     1      26.397   0.672  54.250  1.00  0.00    -0.241 NA
HETATM   18  C12 UNL     1      25.803   1.401  53.294  1.00  0.00     0.124 A 
HETATM   19  C13 UNL     1      24.497   1.183  52.921  1.00  0.00     0.068 A 
HETATM   20  C14 UNL     1      23.695   0.231  53.468  1.00  0.00     0.043 A 
HETATM   21  N6  UNL     1      26.164   2.478  52.439  1.00  0.00    -0.364 N 
HETATM   22  C15 UNL     1      26.418   2.107  51.047  1.00  0.00     0.215 C 
HETATM   23  C16 UNL     1      26.489   3.337  50.308  1.00  0.00    -0.087 C 
HETATM   24  C17 UNL     1      26.526   4.318  49.708  1.00  0.00    -0.105 C 
HETATM   25  C18 UNL     1      26.563   5.516  48.941  1.00  0.00     0.095 C 
HETATM   26  C19 UNL     1      25.077   5.793  48.577  1.00  0.00     0.028 C 
HETATM   27  C20 UNL     1      24.350   5.858  49.882  1.00  0.00     0.110 C 
HETATM   28  N7  UNL     1      22.952   6.081  49.846  1.00  0.00    -0.238 NA
HETATM   29  H10 UNL     1      21.560  -0.172  51.497  1.00  0.00     0.161 HD
HETATM   30  H14 UNL     1      26.105   3.182  53.200  1.00  0.00     0.162 HD
ENDROOT
TORSDOF 0
ENDMDL
MODEL 2
REMARK VINA RESULT:      -9.8      1.617      6.933
REMARK  0 active torsions:
REMARK  status: ('A' for Active; 'I' for Inactive)
ROOT
HETATM    1  C1  UNL     1      21.545  -1.888  53.842  1.00  0.00     0.130 C 
HETATM    2  N1  UNL     1      21.484  -0.501  54.167  1.00  0.00    -0.251 NA
HETATM    3  C2  UNL     1      20.454   0.227  53.412  1.00  0.00     0.135 C 
HETATM    4  C3  UNL     1      21.647   0.695  52.625  1.00  0.00     0.147 C 
HETATM    5  C4  UNL     1      21.704   2.164  52.340  1.00  0.00     0.097 C 
HETATM    6  F1  UNL     1      23.016   2.599  52.496  1.00  0.00    -0.213 F 
HETATM    7  C5  UNL     1      21.661   3.456  52.072  1.00  0.00     0.063 C 
HETATM    8  C6  UNL     1      21.327   4.825  51.737  1.00  0.00     0.028 C 
HETATM    9  C7  UNL     1      22.602   5.240  51.878  1.00  0.00     0.111 C 
HETATM   10  N2  UNL     1      23.657   6.167  51.879  1.00  0.00    -0.367 N 
HETATM   11  C8  UNL     1      24.469   6.620  50.764  1.00  0.00     0.138 A 
HETATM   12  N3  UNL     1      24.411   7.801  50.234  1.00  0.00    -0.224 NA
HETATM   13  C9  UNL     1      25.126   8.275  49.190  1.00  0.00     0.236 A 
HETATM   14  N4  UNL     1      25.981   7.336  48.693  1.00  0.00    -0.240 NA
HETATM   15  C10 UNL     1      26.044   6.128  49.235  1.00  0.00     0.089 A 
HETATM   16  C11 UNL     1      26.991   5.366  48.574  1.00  0.00     0.151 A 
HETATM   17  N5  UNL     1      27.288   4.076  48.913  1.00  0.00    -0.241 NA
HETATM   18  C12 UNL     1      26.590   3.584  49.947  1.00  0.00     0.124 A 
HETATM   19  C13 UNL     1      25.647   4.335  50.609  1.00  0.00     0.068 A 
HETATM   20  C14 UNL     1      25.334   5.620  50.292  1.00  0.00     0.043 A 
HETATM   21  N6  UNL     1      26.519   2.354  50.657  1.00  0.00    -0.364 N 
HETATM   22  C15 UNL     1      27.161   2.359  51.972  1.00  0.00     0.215 C 
HETATM   23  C16 UNL     1      26.748   1.148  52.626  1.00  0.00    -0.087 C 
HETATM   24  C17 UNL     1      26.403   0.192  53.164  1.00  0.00    -0.105 C 
HETATM   25  C18 UNL     1      25.981  -0.979  53.855  1.00  0.00     0.095 C 
HETATM   26  C19 UNL     1      24.640  -0.573  54.528  1.00  0.00     0.028 C 
HETATM   27  C20 UNL     1      23.760  -0.100  53.415  1.00  0.00     0.110 C 
HETATM   28  N7  UNL     1      22.463   0.359  53.753  1.00  0.00    -0.238 NA
HETATM   29  H10 UNL     1      24.051   6.694  52.702  1.00  0.00     0.161 HD
HETATM   30  H14 UNL     1      25.991   1.878  49.900  1.00  0.00     0.162 HD
ENDROOT
TORSDOF 0
ENDMDL
MODEL 3
REMARK VINA RESULT:      -9.3      2.620      6.893
REMARK  0 active torsions:
REMARK  status: ('A' for Active; 'I' for Inactive)
ROOT
HETATM    1  C1  UNL     1      18.100   1.588  51.469  1.00  0.00     0.130 C 
HETATM    2  N1  UNL     1      18.574   2.842  51.953  1.00  0.00    -0.251 NA
HETATM    3  C2  UNL     1      18.222   3.972  51.080  1.00  0.00     0.135 C 
HETATM    4  C3  UNL     1      19.662   3.841  50.667  1.00  0.00     0.147 C 
HETATM    5  C4  UNL     1      20.441   5.119  50.603  1.00  0.00     0.097 C 
HETATM    6  F1  UNL     1      21.711   4.895  51.121  1.00  0.00    -0.213 F 
HETATM    7  C5  UNL     1      21.050   6.286  50.507  1.00  0.00     0.063 C 
HETATM    8  C6  UNL     1      21.463   7.657  50.290  1.00  0.00     0.028 C 
HETATM    9  C7  UNL     1      22.698   7.433  50.783  1.00  0.00     0.111 C 
HETATM   10  N2  UNL     1      24.010   7.765  51.157  1.00  0.00    -0.367 N 
HETATM   11  C8  UNL     1      25.207   7.801  50.336  1.00  0.00     0.138 A 
HETATM   12  N3  UNL     1      25.825   8.880  49.970  1.00  0.00    -0.224 NA
HETATM   13  C9  UNL     1      26.930   8.978  49.198  1.00  0.00     0.236 A 
HETATM   14  N4  UNL     1      27.378   7.754  48.796  1.00  0.00    -0.240 NA
HETATM   15  C10 UNL     1      26.749   6.650  49.170  1.00  0.00     0.089 A 
HETATM   16  C11 UNL     1      27.399   5.541  48.656  1.00  0.00     0.151 A 
HETATM   17  N5  UNL     1      26.988   4.258  48.880  1.00  0.00    -0.241 NA
HETATM   18  C12 UNL     1      25.893   4.136  49.644  1.00  0.00     0.124 A 
HETATM   19  C13 UNL     1      25.241   5.232  50.159  1.00  0.00     0.068 A 
HETATM   20  C14 UNL     1      25.630   6.518  49.952  1.00  0.00     0.043 A 
HETATM   21  N6  UNL     1      25.094   3.072  50.146  1.00  0.00    -0.364 N 
HETATM   22  C15 UNL     1      25.288   2.766  51.563  1.00  0.00     0.215 C 
HETATM   23  C16 UNL     1      24.220   1.879  51.934  1.00  0.00    -0.087 C 
HETATM   24  C17 UNL     1      23.355   1.186  52.242  1.00  0.00    -0.105 C 
HETATM   25  C18 UNL     1      22.288   0.338  52.650  1.00  0.00     0.095 C 
HETATM   26  C19 UNL     1      21.140   1.313  53.036  1.00  0.00     0.028 C 
HETATM   27  C20 UNL     1      20.900   2.150  51.820  1.00  0.00     0.110 C 
HETATM   28  N7  UNL     1      19.904   3.154  51.900  1.00  0.00    -0.238 NA
HETATM   29  H10 UNL     1      24.357   8.041  52.113  1.00  0.00     0.161 HD
HETATM   30  H14 UNL     1      24.637   2.902  49.229  1.00  0.00     0.162 HD
ENDROOT
TORSDOF 0
ENDMDL
MODEL 4
REMARK VINA RESULT:      -9.2      1.757      4.486
REMARK  0 active torsions:
REMARK  status: ('A' for Active; 'I' for Inactive)
ROOT
HETATM    1  C1  UNL     1      27.018   7.283  47.627  1.00  0.00     0.130 C 
HETATM    2  N1  UNL     1      27.313   6.578  48.829  1.00  0.00    -0.251 NA
HETATM    3  C2  UNL     1      27.897   5.248  48.596  1.00  0.00     0.135 C 
HETATM    4  C3  UNL     1      26.503   4.798  48.939  1.00  0.00     0.147 C 
HETATM    5  C4  UNL     1      26.407   3.662  49.911  1.00  0.00     0.097 C 
HETATM    6  F1  UNL     1      25.361   3.916  50.791  1.00  0.00    -0.213 F 
HETATM    7  C5  UNL     1      26.395   2.621  50.721  1.00  0.00     0.063 C 
HETATM    8  C6  UNL     1      26.611   1.388  51.451  1.00  0.00     0.028 C 
HETATM    9  C7  UNL     1      25.588   1.632  52.296  1.00  0.00     0.111 C 
HETATM   10  N2  UNL     1      24.722   1.373  53.372  1.00  0.00    -0.367 N 
HETATM   11  C8  UNL     1      23.504   0.584  53.387  1.00  0.00     0.138 A 
HETATM   12  N3  UNL     1      23.373  -0.568  53.965  1.00  0.00    -0.224 NA
HETATM   13  C9  UNL     1      22.274  -1.355  54.001  1.00  0.00     0.236 A 
HETATM   14  N4  UNL     1      21.230  -0.799  53.323  1.00  0.00    -0.240 NA
HETATM   15  C10 UNL     1      21.361   0.381  52.733  1.00  0.00     0.089 A 
HETATM   16  C11 UNL     1      20.168   0.740  52.131  1.00  0.00     0.151 A 
HETATM   17  N5  UNL     1      19.992   1.912  51.450  1.00  0.00    -0.241 NA
HETATM   18  C12 UNL     1      21.069   2.709  51.401  1.00  0.00     0.124 A 
HETATM   19  C13 UNL     1      22.259   2.359  51.997  1.00  0.00     0.068 A 
HETATM   20  C14 UNL     1      22.460   1.201  52.680  1.00  0.00     0.043 A 
HETATM   21  N6  UNL     1      21.397   3.974  50.840  1.00  0.00    -0.364 N 
HETATM   22  C15 UNL     1      21.468   5.077  51.797  1.00  0.00     0.215 C 
HETATM   23  C16 UNL     1      22.070   6.179  51.098  1.00  0.00    -0.087 C 
HETATM   24  C17 UNL     1      22.571   7.058  50.550  1.00  0.00    -0.105 C 
HETATM   25  C18 UNL     1      23.200   8.155  49.898  1.00  0.00     0.095 C 
HETATM   26  C19 UNL     1      24.722   7.908  50.098  1.00  0.00     0.028 C 
HETATM   27  C20 UNL     1      24.986   6.551  49.528  1.00  0.00     0.110 C 
HETATM   28  N7  UNL     1      26.311   6.055  49.598  1.00  0.00    -0.238 NA
HETATM   29  H10 UNL     1      24.806   1.720  54.363  1.00  0.00     0.161 HD
HETATM   30  H14 UNL     1      21.466   3.595  49.875  1.00  0.00     0.162 HD
ENDROOT
TORSDOF 0
ENDMDL
MODEL 5
REMARK VINA RESULT:      -9.1      1.759      7.694
REMARK  0 active torsions:
REMARK  status: ('A' for Active; 'I' for Inactive)
ROOT
HETATM    1  C1  UNL     1      21.413  -1.113  54.581  1.00  0.00     0.130 C 
HETATM    2  N1  UNL     1      22.319  -1.038  53.484  1.00  0.00    -0.251 NA
HETATM    3  C2  UNL     1      23.722  -0.887  53.897  1.00  0.00     0.135 C 
HETATM    4  C3  UNL     1      23.475   0.543  53.501  1.00  0.00     0.147 C 
HETATM    5  C4  UNL     1      24.533   1.175  52.649  1.00  0.00     0.097 C 
HETATM    6  F1  UNL     1      23.916   1.949  51.672  1.00  0.00    -0.213 F 
HETATM    7  C5  UNL     1      25.530   1.688  51.953  1.00  0.00     0.063 C 
HETATM    8  C6  UNL     1      26.793   2.099  51.374  1.00  0.00     0.028 C 
HETATM    9  C7  UNL     1      26.191   2.858  50.435  1.00  0.00     0.111 C 
HETATM   10  N2  UNL     1      26.129   3.724  49.332  1.00  0.00    -0.367 N 
HETATM   11  C8  UNL     1      26.219   5.173  49.309  1.00  0.00     0.138 A 
HETATM   12  N3  UNL     1      27.224   5.847  48.847  1.00  0.00    -0.224 NA
HETATM   13  C9  UNL     1      27.372   7.191  48.813  1.00  0.00     0.236 A 
HETATM   14  N4  UNL     1      26.296   7.834  49.349  1.00  0.00    -0.240 NA
HETATM   15  C10 UNL     1      25.267   7.146  49.822  1.00  0.00     0.089 A 
HETATM   16  C11 UNL     1      24.298   8.014  50.293  1.00  0.00     0.151 A 
HETATM   17  N5  UNL     1      23.113   7.598  50.832  1.00  0.00    -0.241 NA
HETATM   18  C12 UNL     1      22.944   6.269  50.877  1.00  0.00     0.124 A 
HETATM   19  C13 UNL     1      23.902   5.399  50.410  1.00  0.00     0.068 A 
HETATM   20  C14 UNL     1      25.087   5.787  49.869  1.00  0.00     0.043 A 
HETATM   21  N6  UNL     1      21.940   5.368  51.326  1.00  0.00    -0.364 N 
HETATM   22  C15 UNL     1      21.143   4.750  50.267  1.00  0.00     0.215 C 
HETATM   23  C16 UNL     1      20.396   3.692  50.889  1.00  0.00    -0.087 C 
HETATM   24  C17 UNL     1      19.811   2.830  51.377  1.00  0.00    -0.105 C 
HETATM   25  C18 UNL     1      19.088   1.750  51.956  1.00  0.00     0.095 C 
HETATM   26  C19 UNL     1      20.068   0.545  51.895  1.00  0.00     0.028 C 
HETATM   27  C20 UNL     1      21.296   0.992  52.622  1.00  0.00     0.110 C 
HETATM   28  N7  UNL     1      22.380   0.083  52.702  1.00  0.00    -0.238 NA
HETATM   29  H10 UNL     1      25.996   3.468  48.318  1.00  0.00     0.161 HD
HETATM   30  H14 UNL     1      22.178   5.506  52.328  1.00  0.00     0.162 HD
ENDROOT
TORSDOF 0
ENDMDL
MODEL 6
REMARK VINA RESULT:      -9.0      1.506      2.097
REMARK  0 active torsions:
REMARK  status: ('A' for Active; 'I' for Inactive)
ROOT
HETATM    1  C1  UNL     1      24.444  10.000  48.648  1.00  0.00     0.130 C 
HETATM    2  N1  UNL     1      23.540   8.934  48.370  1.00  0.00    -0.251 NA
HETATM    3  C2  UNL     1      22.392   8.891  49.288  1.00  0.00     0.135 C 
HETATM    4  C3  UNL     1      23.179   7.765  49.899  1.00  0.00     0.147 C 
HETATM    5  C4  UNL     1      22.404   6.521  50.208  1.00  0.00     0.097 C 
HETATM    6  F1  UNL     1      23.178   5.417  49.868  1.00  0.00    -0.213 F 
HETATM    7  C5  UNL     1      21.650   5.481  50.511  1.00  0.00     0.063 C 
HETATM    8  C6  UNL     1      20.627   4.542  50.925  1.00  0.00     0.028 C 
HETATM    9  C7  UNL     1      21.385   3.473  50.605  1.00  0.00     0.111 C 
HETATM   10  N2  UNL     1      21.687   2.108  50.469  1.00  0.00    -0.367 N 
HETATM   11  C8  UNL     1      22.222   1.193  51.461  1.00  0.00     0.138 A 
HETATM   12  N3  UNL     1      21.556   0.234  52.022  1.00  0.00    -0.224 NA
HETATM   13  C9  UNL     1      21.993  -0.637  52.959  1.00  0.00     0.236 A 
HETATM   14  N4  UNL     1      23.293  -0.407  53.299  1.00  0.00    -0.240 NA
HETATM   15  C10 UNL     1      23.977   0.573  52.725  1.00  0.00     0.089 A 
HETATM   16  C11 UNL     1      25.269   0.595  53.218  1.00  0.00     0.151 A 
HETATM   17  N5  UNL     1      26.216   1.491  52.807  1.00  0.00    -0.241 NA
HETATM   18  C12 UNL     1      25.805   2.366  51.877  1.00  0.00     0.124 A 
HETATM   19  C13 UNL     1      24.522   2.351  51.382  1.00  0.00     0.068 A 
HETATM   20  C14 UNL     1      23.563   1.470  51.773  1.00  0.00     0.043 A 
HETATM   21  N6  UNL     1      26.372   3.453  51.156  1.00  0.00    -0.364 N 
HETATM   22  C15 UNL     1      26.704   3.165  49.761  1.00  0.00     0.215 C 
HETATM   23  C16 UNL     1      26.993   4.432  49.146  1.00  0.00    -0.087 C 
HETATM   24  C17 UNL     1      27.204   5.444  48.642  1.00  0.00    -0.105 C 
HETATM   25  C18 UNL     1      27.457   6.685  47.995  1.00  0.00     0.095 C 
HETATM   26  C19 UNL     1      26.056   7.182  47.539  1.00  0.00     0.028 C 
HETATM   27  C20 UNL     1      25.227   7.234  48.783  1.00  0.00     0.110 C 
HETATM   28  N7  UNL     1      23.875   7.639  48.654  1.00  0.00    -0.238 NA
HETATM   29  H10 UNL     1      21.583   1.508  49.609  1.00  0.00     0.161 HD
HETATM   30  H14 UNL     1      26.330   4.095  51.972  1.00  0.00     0.162 HD
ENDROOT
TORSDOF 0
ENDMDL
MODEL 7
REMARK VINA RESULT:      -8.9      2.413      4.989
REMARK  0 active torsions:
REMARK  status: ('A' for Active; 'I' for Inactive)
ROOT
HETATM    1  C1  UNL     1      19.536   3.610  46.464  1.00  0.00     0.130 C 
HETATM    2  N1  UNL     1      20.567   4.255  47.207  1.00  0.00    -0.251 NA
HETATM    3  C2  UNL     1      21.915   3.986  46.684  1.00  0.00     0.135 C 
HETATM    4  C3  UNL     1      21.965   3.048  47.859  1.00  0.00     0.147 C 
HETATM    5  C4  UNL     1      23.210   3.110  48.690  1.00  0.00     0.097 C 
HETATM    6  F1  UNL     1      22.857   3.018  50.031  1.00  0.00    -0.213 F 
HETATM    7  C5  UNL     1      24.357   3.173  49.340  1.00  0.00     0.063 C 
HETATM    8  C6  UNL     1      25.732   3.267  49.787  1.00  0.00     0.028 C 
HETATM    9  C7  UNL     1      25.386   3.165  51.087  1.00  0.00     0.111 C 
HETATM   10  N2  UNL     1      25.607   3.109  52.473  1.00  0.00    -0.367 N 
HETATM   11  C8  UNL     1      25.944   1.960  53.293  1.00  0.00     0.138 A 
HETATM   12  N3  UNL     1      27.098   1.756  53.846  1.00  0.00    -0.224 NA
HETATM   13  C9  UNL     1      27.476   0.702  54.604  1.00  0.00     0.236 A 
HETATM   14  N4  UNL     1      26.469  -0.205  54.750  1.00  0.00    -0.240 NA
HETATM   15  C10 UNL     1      25.287   0.003  54.186  1.00  0.00     0.089 A 
HETATM   16  C11 UNL     1      24.431  -1.041  54.491  1.00  0.00     0.151 A 
HETATM   17  N5  UNL     1      23.137  -1.102  54.058  1.00  0.00    -0.241 NA
HETATM   18  C12 UNL     1      22.739  -0.068  53.304  1.00  0.00     0.124 A 
HETATM   19  C13 UNL     1      23.583   0.974  52.997  1.00  0.00     0.068 A 
HETATM   20  C14 UNL     1      24.874   1.059  53.415  1.00  0.00     0.043 A 
HETATM   21  N6  UNL     1      21.549   0.328  52.633  1.00  0.00    -0.364 N 
HETATM   22  C15 UNL     1      20.792   1.394  53.289  1.00  0.00     0.215 C 
HETATM   23  C16 UNL     1      19.806   1.831  52.340  1.00  0.00    -0.087 C 
HETATM   24  C17 UNL     1      19.029   2.200  51.577  1.00  0.00    -0.105 C 
HETATM   25  C18 UNL     1      18.067   2.682  50.645  1.00  0.00     0.095 C 
HETATM   26  C19 UNL     1      18.828   3.757  49.819  1.00  0.00     0.028 C 
HETATM   27  C20 UNL     1      20.017   3.053  49.247  1.00  0.00     0.110 C 
HETATM   28  N7  UNL     1      20.912   3.814  48.454  1.00  0.00    -0.238 NA
HETATM   29  H10 UNL     1      25.555   3.902  53.165  1.00  0.00     0.161 HD
HETATM   30  H14 UNL     1      21.684  -0.356  51.863  1.00  0.00     0.162 HD
ENDROOT
TORSDOF 0
ENDMDL
MODEL 8
REMARK VINA RESULT:      -8.7      2.553      7.470
REMARK  0 active torsions:
REMARK  status: ('A' for Active; 'I' for Inactive)
ROOT
HETATM    1  C1  UNL     1      27.007   0.362  54.908  1.00  0.00     0.130 C 
HETATM    2  N1  UNL     1      26.752   0.343  53.506  1.00  0.00    -0.251 NA
HETATM    3  C2  UNL     1      27.205   1.560  52.816  1.00  0.00     0.135 C 
HETATM    4  C3  UNL     1      25.738   1.885  52.851  1.00  0.00     0.147 C 
HETATM    5  C4  UNL     1      25.150   2.384  51.566  1.00  0.00     0.097 C 
HETATM    6  F1  UNL     1      23.897   1.806  51.394  1.00  0.00    -0.213 F 
HETATM    7  C5  UNL     1      24.712   2.875  50.423  1.00  0.00     0.063 C 
HETATM    8  C6  UNL     1      24.489   3.554  49.163  1.00  0.00     0.028 C 
HETATM    9  C7  UNL     1      23.268   3.001  49.005  1.00  0.00     0.111 C 
HETATM   10  N2  UNL     1      22.046   2.752  48.360  1.00  0.00    -0.367 N 
HETATM   11  C8  UNL     1      20.815   3.520  48.419  1.00  0.00     0.138 A 
HETATM   12  N3  UNL     1      20.338   4.233  47.449  1.00  0.00    -0.224 NA
HETATM   13  C9  UNL     1      19.210   4.979  47.449  1.00  0.00     0.236 A 
HETATM   14  N4  UNL     1      18.564   4.922  48.648  1.00  0.00    -0.240 NA
HETATM   15  C10 UNL     1      19.050   4.192  49.641  1.00  0.00     0.089 A 
HETATM   16  C11 UNL     1      18.214   4.278  50.740  1.00  0.00     0.151 A 
HETATM   17  N5  UNL     1      18.448   3.624  51.917  1.00  0.00    -0.241 NA
HETATM   18  C12 UNL     1      19.561   2.877  51.940  1.00  0.00     0.124 A 
HETATM   19  C13 UNL     1      20.398   2.786  50.852  1.00  0.00     0.068 A 
HETATM   20  C14 UNL     1      20.187   3.426  49.671  1.00  0.00     0.043 A 
HETATM   21  N6  UNL     1      20.229   2.043  52.879  1.00  0.00    -0.364 N 
HETATM   22  C15 UNL     1      20.087   0.607  52.644  1.00  0.00     0.215 C 
HETATM   23  C16 UNL     1      21.037  -0.039  53.507  1.00  0.00    -0.087 C 
HETATM   24  C17 UNL     1      21.811  -0.561  54.180  1.00  0.00    -0.105 C 
HETATM   25  C18 UNL     1      22.769  -1.228  54.993  1.00  0.00     0.095 C 
HETATM   26  C19 UNL     1      24.069  -1.236  54.141  1.00  0.00     0.028 C 
HETATM   27  C20 UNL     1      24.346   0.199  53.822  1.00  0.00     0.110 C 
HETATM   28  N7  UNL     1      25.481   0.487  53.023  1.00  0.00    -0.238 NA
HETATM   29  H10 UNL     1      21.806   1.949  47.721  1.00  0.00     0.161 HD
HETATM   30  H14 UNL     1      20.596   2.848  53.425  1.00  0.00     0.162 HD
ENDROOT
TORSDOF 0
ENDMDL
MODEL 9
REMARK VINA RESULT:      -8.4      3.563      7.167
REMARK  0 active torsions:
REMARK  status: ('A' for Active; 'I' for Inactive)
ROOT
HETATM    1  C1  UNL     1      14.985  -1.493  52.289  1.00  0.00     0.130 C 
HETATM    2  N1  UNL     1      16.282  -2.075  52.195  1.00  0.00    -0.251 NA
HETATM    3  C2  UNL     1      16.850  -2.443  53.501  1.00  0.00     0.135 C 
HETATM    4  C3  UNL     1      17.645  -1.185  53.284  1.00  0.00     0.147 C 
HETATM    5  C4  UNL     1      19.114  -1.288  53.556  1.00  0.00     0.097 C 
HETATM    6  F1  UNL     1      19.800  -0.583  52.574  1.00  0.00    -0.213 F 
HETATM    7  C5  UNL     1      20.387  -1.431  53.872  1.00  0.00     0.063 C 
HETATM    8  C6  UNL     1      21.681  -1.750  54.441  1.00  0.00     0.028 C 
HETATM    9  C7  UNL     1      22.343  -1.055  53.493  1.00  0.00     0.111 C 
HETATM   10  N2  UNL     1      23.469  -0.535  52.834  1.00  0.00    -0.367 N 
HETATM   11  C8  UNL     1      24.203   0.685  53.116  1.00  0.00     0.138 A 
HETATM   12  N3  UNL     1      25.394   0.734  53.623  1.00  0.00    -0.224 NA
HETATM   13  C9  UNL     1      26.120   1.835  53.921  1.00  0.00     0.236 A 
HETATM   14  N4  UNL     1      25.446   2.983  53.627  1.00  0.00    -0.240 NA
HETATM   15  C10 UNL     1      24.228   2.934  53.106  1.00  0.00     0.089 A 
HETATM   16  C11 UNL     1      23.763   4.218  52.880  1.00  0.00     0.151 A 
HETATM   17  N5  UNL     1      22.538   4.489  52.339  1.00  0.00    -0.241 NA
HETATM   18  C12 UNL     1      21.800   3.412  52.034  1.00  0.00     0.124 A 
HETATM   19  C13 UNL     1      22.254   2.133  52.256  1.00  0.00     0.068 A 
HETATM   20  C14 UNL     1      23.468   1.837  52.792  1.00  0.00     0.043 A 
HETATM   21  N6  UNL     1      20.513   3.161  51.482  1.00  0.00    -0.364 N 
HETATM   22  C15 UNL     1      20.514   2.710  50.090  1.00  0.00     0.215 C 
HETATM   23  C16 UNL     1      19.179   2.254  49.814  1.00  0.00    -0.087 C 
HETATM   24  C17 UNL     1      18.119   1.867  49.593  1.00  0.00    -0.105 C 
HETATM   25  C18 UNL     1      16.817   1.372  49.300  1.00  0.00     0.095 C 
HETATM   26  C19 UNL     1      16.851  -0.112  49.762  1.00  0.00     0.028 C 
HETATM   27  C20 UNL     1      17.241  -0.073  51.205  1.00  0.00     0.110 C 
HETATM   28  N7  UNL     1      17.372  -1.310  51.884  1.00  0.00    -0.238 NA
HETATM   29  H10 UNL     1      23.975  -0.944  52.005  1.00  0.00     0.161 HD
HETATM   30  H14 UNL     1      20.019   3.419  52.358  1.00  0.00     0.162 HD
ENDROOT
TORSDOF 0
ENDMDL
