MODEL 1
REMARK VINA RESULT:      -7.5      0.000      0.000
REMARK  5 active torsions:
REMARK  status: ('A' for Active; 'I' for Inactive)
REMARK    1  A    between atoms: P1_7  and  N2_8 
REMARK    2  A    between atoms: N2_8  and  C6_9 
REMARK    3  A    between atoms: C15_20  and  C16_21 
REMARK    4  A    between atoms: C16_21  and  C17_22 
REMARK    5  A    between atoms: C17_22  and  O2_23 
ROOT
HETATM    1  C1  UNL     1      26.586   8.239  50.186  1.00  0.00     0.017 C 
HETATM    2  C2  UNL     1      25.758   7.231  49.858  1.00  0.00     0.014 A 
HETATM    3  C3  UNL     1      24.533   7.697  50.610  1.00  0.00     0.232 C 
HETATM    4  N1  UNL     1      24.220   6.634  51.622  1.00  0.00    -0.105 N 
HETATM    5  C4  UNL     1      23.871   5.139  51.761  1.00  0.00     0.614 A 
HETATM    6  C5  UNL     1      22.770   4.708  51.088  1.00  0.00    -0.004 A 
HETATM    7  P1  UNL     1      23.180   3.103  51.777  1.00  0.00    -0.003 P 
HETATM    8  C12 UNL     1      22.118   5.828  50.374  1.00  0.00     0.181 C 
HETATM    9  N3  UNL     1      22.199   5.686  48.982  1.00  0.00    -0.316 NA
HETATM   10  C13 UNL     1      23.011   5.297  48.142  1.00  0.00     0.155 C 
HETATM   11  O1  UNL     1      24.138   4.932  49.063  1.00  0.00     0.000 OA
HETATM   12  C14 UNL     1      25.057   6.034  49.382  1.00  0.00     0.039 A 
HETATM   13  C15 UNL     1      26.181   6.042  48.902  1.00  0.00    -0.061 A 
HETATM   14  H5  UNL     1      24.226   7.329  52.496  1.00  0.00     0.261 HD
HETATM   15  H7  UNL     1      24.367   2.915  52.508  1.00  0.00     0.081 HD
ENDROOT
BRANCH   7  16
HETATM   16  N2  UNL     1      21.769   2.232  52.488  1.00  0.00    -0.366 N 
HETATM   17  H8  UNL     1      20.829   2.711  52.280  1.00  0.00     0.164 HD
BRANCH  16  18
HETATM   18  C6  UNL     1      22.119   1.066  53.209  1.00  0.00     0.031 A 
HETATM   19  C7  UNL     1      21.046   0.528  53.934  1.00  0.00     0.029 A 
HETATM   20  C8  UNL     1      21.240  -0.673  54.677  1.00  0.00     0.002 A 
HETATM   21  C9  UNL     1      22.456  -1.303  54.697  1.00  0.00     0.000 A 
HETATM   22  C10 UNL     1      23.388  -0.673  53.961  1.00  0.00     0.002 A 
HETATM   23  C11 UNL     1      23.394   0.416  53.219  1.00  0.00     0.029 A 
ENDBRANCH  16  18
ENDBRANCH   7  16
BRANCH  13  24
HETATM   24  C16 UNL     1      27.519   6.117  48.349  1.00  0.00     0.028 C 
BRANCH  24  25
HETATM   25  C17 UNL     1      28.846   6.275  48.263  1.00  0.00     0.134 C 
BRANCH  25  26
HETATM   26  O2  UNL     1      29.628   5.108  48.158  1.00  0.00    -0.368 OA
HETATM   27  C18 UNL     1      30.997   5.111  47.724  1.00  0.00     0.208 C 
ENDBRANCH  25  26
ENDBRANCH  24  25
ENDBRANCH  13  24
TORSDOF 5
ENDMDL
MODEL 2
REMARK VINA RESULT:      -7.4      2.691      7.852
REMARK  5 active torsions:
REMARK  status: ('A' for Active; 'I' for Inactive)
REMARK    1  A    between atoms: P1_7  and  N2_8 
REMARK    2  A    between atoms: N2_8  and  C6_9 
REMARK    3  A    between atoms: C15_20  and  C16_21 
REMARK    4  A    between atoms: C16_21  and  C17_22 
REMARK    5  A    between atoms: C17_22  and  O2_23 
ROOT
HETATM    1  C1  UNL     1      22.033  -0.013  52.084  1.00  0.00     0.017 C 
HETATM    2  C2  UNL     1      22.695   1.152  52.199  1.00  0.00     0.014 A 
HETATM    3  C3  UNL     1      21.758   2.020  51.393  1.00  0.00     0.232 C 
HETATM    4  N1  UNL     1      22.550   2.543  50.230  1.00  0.00    -0.105 N 
HETATM    5  C4  UNL     1      23.800   3.370  49.871  1.00  0.00     0.614 A 
HETATM    6  C5  UNL     1      23.856   4.633  50.372  1.00  0.00    -0.004 A 
HETATM    7  P1  UNL     1      25.439   4.719  49.531  1.00  0.00    -0.003 P 
HETATM    8  C12 UNL     1      22.637   4.945  51.152  1.00  0.00     0.181 C 
HETATM    9  N3  UNL     1      22.912   5.111  52.516  1.00  0.00    -0.316 NA
HETATM   10  C13 UNL     1      23.635   4.610  53.378  1.00  0.00     0.155 C 
HETATM   11  O1  UNL     1      24.308   3.566  52.534  1.00  0.00     0.000 OA
HETATM   12  C14 UNL     1      23.591   2.285  52.449  1.00  0.00     0.039 A 
HETATM   13  C15 UNL     1      24.030   1.307  53.036  1.00  0.00    -0.061 A 
HETATM   14  H5  UNL     1      21.835   2.174  49.454  1.00  0.00     0.261 HD
HETATM   15  H7  UNL     1      25.984   3.584  48.905  1.00  0.00     0.081 HD
ENDROOT
BRANCH   7  16
HETATM   16  N2  UNL     1      25.678   6.233  48.580  1.00  0.00    -0.366 N 
HETATM   17  H8  UNL     1      24.764   6.773  48.408  1.00  0.00     0.164 HD
BRANCH  16  18
HETATM   18  C6  UNL     1      27.023   6.469  48.207  1.00  0.00     0.031 A 
HETATM   19  C7  UNL     1      27.884   5.425  48.573  1.00  0.00     0.029 A 
HETATM   20  C8  UNL     1      29.264   5.506  48.224  1.00  0.00     0.002 A 
HETATM   21  C9  UNL     1      29.759   6.588  47.546  1.00  0.00     0.000 A 
HETATM   22  C10 UNL     1      28.821   7.509  47.266  1.00  0.00     0.002 A 
HETATM   23  C11 UNL     1      27.526   7.604  47.495  1.00  0.00     0.029 A 
ENDBRANCH  16  18
ENDBRANCH   7  16
BRANCH  13  24
HETATM   24  C16 UNL     1      24.490   0.117  53.725  1.00  0.00     0.028 C 
BRANCH  24  25
HETATM   25  C17 UNL     1      25.308  -0.807  54.246  1.00  0.00     0.134 C 
BRANCH  25  26
HETATM   26  O2  UNL     1      26.294  -0.360  55.147  1.00  0.00    -0.368 OA
HETATM   27  C18 UNL     1      27.549   0.199  54.729  1.00  0.00     0.208 C 
ENDBRANCH  25  26
ENDBRANCH  24  25
ENDBRANCH  13  24
TORSDOF 5
ENDMDL
MODEL 3
REMARK VINA RESULT:      -7.0      3.416      4.580
REMARK  5 active torsions:
REMARK  status: ('A' for Active; 'I' for Inactive)
REMARK    1  A    between atoms: P1_7  and  N2_8 
REMARK    2  A    between atoms: N2_8  and  C6_9 
REMARK    3  A    between atoms: C15_20  and  C16_21 
REMARK    4  A    between atoms: C16_21  and  C17_22 
REMARK    5  A    between atoms: C17_22  and  O2_23 
ROOT
HETATM    1  C1  UNL     1      23.162   7.011  50.863  1.00  0.00     0.017 C 
HETATM    2  C2  UNL     1      23.301   5.707  50.557  1.00  0.00     0.014 A 
HETATM    3  C3  UNL     1      22.669   5.120  51.797  1.00  0.00     0.232 C 
HETATM    4  N1  UNL     1      23.732   4.307  52.477  1.00  0.00    -0.105 N 
HETATM    5  C4  UNL     1      24.686   3.115  52.265  1.00  0.00     0.614 A 
HETATM    6  C5  UNL     1      24.110   1.930  51.927  1.00  0.00    -0.004 A 
HETATM    7  P1  UNL     1      25.793   1.308  51.900  1.00  0.00    -0.003 P 
HETATM    8  C12 UNL     1      22.636   2.059  51.871  1.00  0.00     0.181 C 
HETATM    9  N3  UNL     1      22.142   1.902  50.569  1.00  0.00    -0.316 NA
HETATM   10  C13 UNL     1      22.461   2.210  49.420  1.00  0.00     0.155 C 
HETATM   11  O1  UNL     1      23.737   2.941  49.723  1.00  0.00     0.000 OA
HETATM   12  C14 UNL     1      23.574   4.372  50.018  1.00  0.00     0.039 A 
HETATM   13  C15 UNL     1      23.938   5.203  49.198  1.00  0.00    -0.061 A 
HETATM   14  H5  UNL     1      23.637   4.828  53.461  1.00  0.00     0.261 HD
HETATM   15  H7  UNL     1      26.884   2.179  52.068  1.00  0.00     0.081 HD
ENDROOT
BRANCH   7  16
HETATM   16  N2  UNL     1      26.003  -0.263  52.761  1.00  0.00    -0.366 N 
HETATM   17  H8  UNL     1      25.072  -0.751  52.984  1.00  0.00     0.164 HD
BRANCH  16  18
HETATM   18  C6  UNL     1      27.355  -0.603  53.011  1.00  0.00     0.031 A 
HETATM   19  C7  UNL     1      28.139   0.501  53.373  1.00  0.00     0.029 A 
HETATM   20  C8  UNL     1      29.513   0.303  53.695  1.00  0.00     0.002 A 
HETATM   21  C9  UNL     1      30.077  -0.944  53.649  1.00  0.00     0.000 A 
HETATM   22  C10 UNL     1      29.208  -1.902  53.284  1.00  0.00     0.002 A 
HETATM   23  C11 UNL     1      27.930  -1.913  52.962  1.00  0.00     0.029 A 
ENDBRANCH  16  18
ENDBRANCH   7  16
BRANCH  13  24
HETATM   24  C16 UNL     1      24.331   6.234  48.259  1.00  0.00     0.028 C 
BRANCH  24  25
HETATM   25  C17 UNL     1      24.856   7.364  47.766  1.00  0.00     0.134 C 
BRANCH  25  26
HETATM   26  O2  UNL     1      25.608   8.162  48.649  1.00  0.00    -0.368 OA
HETATM   27  C18 UNL     1      26.787   7.696  49.325  1.00  0.00     0.208 C 
ENDBRANCH  25  26
ENDBRANCH  24  25
ENDBRANCH  13  24
TORSDOF 5
ENDMDL
MODEL 4
REMARK VINA RESULT:      -7.0      3.178      7.860
REMARK  5 active torsions:
REMARK  status: ('A' for Active; 'I' for Inactive)
REMARK    1  A    between atoms: P1_7  and  N2_8 
REMARK    2  A    between atoms: N2_8  and  C6_9 
REMARK    3  A    between atoms: C15_20  and  C16_21 
REMARK    4  A    between atoms: C16_21  and  C17_22 
REMARK    5  A    between atoms: C17_22  and  O2_23 
ROOT
HETATM    1  C1  UNL     1      25.980   0.247  53.152  1.00  0.00     0.017 C 
HETATM    2  C2  UNL     1      24.921   0.817  52.547  1.00  0.00     0.014 A 
HETATM    3  C3  UNL     1      25.670   1.731  51.606  1.00  0.00     0.232 C 
HETATM    4  N1  UNL     1      25.275   3.134  51.965  1.00  0.00    -0.105 N 
HETATM    5  C4  UNL     1      24.058   4.072  52.084  1.00  0.00     0.614 A 
HETATM    6  C5  UNL     1      23.306   4.234  50.962  1.00  0.00    -0.004 A 
HETATM    7  P1  UNL     1      22.304   5.311  51.989  1.00  0.00    -0.003 P 
HETATM    8  C12 UNL     1      23.874   3.465  49.832  1.00  0.00     0.181 C 
HETATM    9  N3  UNL     1      23.034   2.416  49.433  1.00  0.00    -0.316 NA
HETATM   10  C13 UNL     1      22.293   1.581  49.952  1.00  0.00     0.155 C 
HETATM   11  O1  UNL     1      22.493   1.959  51.391  1.00  0.00     0.000 OA
HETATM   12  C14 UNL     1      23.630   1.300  52.050  1.00  0.00     0.039 A 
HETATM   13  C15 UNL     1      23.424   0.426  52.880  1.00  0.00    -0.061 A 
HETATM   14  H5  UNL     1      26.323   3.494  52.112  1.00  0.00     0.261 HD
HETATM   15  H7  UNL     1      22.560   5.435  53.366  1.00  0.00     0.081 HD
ENDROOT
BRANCH   7  16
HETATM   16  N2  UNL     1      21.882   6.881  51.206  1.00  0.00    -0.366 N 
HETATM   17  H8  UNL     1      20.893   7.224  51.452  1.00  0.00     0.164 HD
BRANCH  16  18
HETATM   18  C6  UNL     1      22.912   7.409  50.390  1.00  0.00     0.031 A 
HETATM   19  C7  UNL     1      22.590   7.393  49.025  1.00  0.00     0.029 A 
HETATM   20  C8  UNL     1      23.517   7.933  48.086  1.00  0.00     0.002 A 
HETATM   21  C9  UNL     1      24.714   8.458  48.496  1.00  0.00     0.000 A 
HETATM   22  C10 UNL     1      24.885   8.403  49.828  1.00  0.00     0.002 A 
HETATM   23  C11 UNL     1      24.157   7.958  50.833  1.00  0.00     0.029 A 
ENDBRANCH  16  18
ENDBRANCH   7  16
BRANCH  13  24
HETATM   24  C16 UNL     1      23.244  -0.629  53.857  1.00  0.00     0.028 C 
BRANCH  24  25
HETATM   25  C17 UNL     1      22.887  -1.267  54.979  1.00  0.00     0.134 C 
BRANCH  25  26
HETATM   26  O2  UNL     1      21.693  -2.014  54.943  1.00  0.00    -0.368 OA
HETATM   27  C18 UNL     1      20.529  -1.605  54.208  1.00  0.00     0.208 C 
ENDBRANCH  25  26
ENDBRANCH  24  25
ENDBRANCH  13  24
TORSDOF 5
ENDMDL
MODEL 5
REMARK VINA RESULT:      -7.0      3.913      6.976
REMARK  5 active torsions:
REMARK  status: ('A' for Active; 'I' for Inactive)
REMARK    1  A    between atoms: P1_7  and  N2_8 
REMARK    2  A    between atoms: N2_8  and  C6_9 
REMARK    3  A    between atoms: C15_20  and  C16_21 
REMARK    4  A    between atoms: C16_21  and  C17_22 
REMARK    5  A    between atoms: C17_22  and  O2_23 
ROOT
HETATM    1  C1  UNL     1      20.118   2.538  48.815  1.00  0.00     0.017 C 
HETATM    2  C2  UNL     1      20.893   3.185  49.705  1.00  0.00     0.014 A 
HETATM    3  C3  UNL     1      22.215   3.049  48.987  1.00  0.00     0.232 C 
HETATM    4  N1  UNL     1      23.118   2.264  49.893  1.00  0.00    -0.105 N 
HETATM    5  C4  UNL     1      23.757   2.276  51.296  1.00  0.00     0.614 A 
HETATM    6  C5  UNL     1      24.521   3.358  51.606  1.00  0.00    -0.004 A 
HETATM    7  P1  UNL     1      24.743   2.541  53.188  1.00  0.00    -0.003 P 
HETATM    8  C12 UNL     1      24.591   4.297  50.464  1.00  0.00     0.181 C 
HETATM    9  N3  UNL     1      23.948   5.512  50.740  1.00  0.00    -0.316 NA
HETATM   10  C13 UNL     1      22.939   5.908  51.325  1.00  0.00     0.155 C 
HETATM   11  O1  UNL     1      22.402   4.582  51.781  1.00  0.00     0.000 OA
HETATM   12  C14 UNL     1      21.526   3.906  50.813  1.00  0.00     0.039 A 
HETATM   13  C15 UNL     1      20.324   3.846  51.025  1.00  0.00    -0.061 A 
HETATM   14  H5  UNL     1      23.363   1.483  49.132  1.00  0.00     0.261 HD
HETATM   15  H7  UNL     1      24.039   1.363  53.495  1.00  0.00     0.081 HD
ENDROOT
BRANCH   7  16
HETATM   16  N2  UNL     1      26.454   2.510  53.758  1.00  0.00    -0.366 N 
HETATM   17  H8  UNL     1      26.790   3.457  54.141  1.00  0.00     0.164 HD
BRANCH  16  18
HETATM   18  C6  UNL     1      27.086   1.252  53.609  1.00  0.00     0.031 A 
HETATM   19  C7  UNL     1      26.342   0.356  52.828  1.00  0.00     0.029 A 
HETATM   20  C8  UNL     1      26.874  -0.939  52.557  1.00  0.00     0.002 A 
HETATM   21  C9  UNL     1      28.092  -1.320  53.052  1.00  0.00     0.000 A 
HETATM   22  C10 UNL     1      28.687  -0.361  53.782  1.00  0.00     0.002 A 
HETATM   23  C11 UNL     1      28.362   0.868  54.129  1.00  0.00     0.029 A 
ENDBRANCH  16  18
ENDBRANCH   7  16
BRANCH  13  24
HETATM   24  C16 UNL     1      18.889   3.760  51.212  1.00  0.00     0.028 C 
BRANCH  24  25
HETATM   25  C17 UNL     1      17.688   3.312  51.602  1.00  0.00     0.134 C 
BRANCH  25  26
HETATM   26  O2  UNL     1      16.857   4.215  52.292  1.00  0.00    -0.368 OA
HETATM   27  C18 UNL     1      15.474   3.955  52.578  1.00  0.00     0.208 C 
ENDBRANCH  25  26
ENDBRANCH  24  25
ENDBRANCH  13  24
TORSDOF 5
ENDMDL
MODEL 6
REMARK VINA RESULT:      -7.0      5.059      8.756
REMARK  5 active torsions:
REMARK  status: ('A' for Active; 'I' for Inactive)
REMARK    1  A    between atoms: P1_7  and  N2_8 
REMARK    2  A    between atoms: N2_8  and  C6_9 
REMARK    3  A    between atoms: C15_20  and  C16_21 
REMARK    4  A    between atoms: C16_21  and  C17_22 
REMARK    5  A    between atoms: C17_22  and  O2_23 
ROOT
HETATM    1  C1  UNL     1      34.810   3.566  46.174  1.00  0.00     0.017 C 
HETATM    2  C2  UNL     1      34.079   4.663  46.446  1.00  0.00     0.014 A 
HETATM    3  C3  UNL     1      33.839   4.411  47.916  1.00  0.00     0.232 C 
HETATM    4  N1  UNL     1      32.354   4.289  48.094  1.00  0.00    -0.105 N 
HETATM    5  C4  UNL     1      31.029   5.052  47.897  1.00  0.00     0.614 A 
HETATM    6  C5  UNL     1      30.923   6.256  48.522  1.00  0.00    -0.004 A 
HETATM    7  P1  UNL     1      29.295   6.318  47.769  1.00  0.00    -0.003 P 
HETATM    8  C12 UNL     1      32.144   6.550  49.306  1.00  0.00     0.181 C 
HETATM    9  N3  UNL     1      32.855   7.639  48.785  1.00  0.00    -0.316 NA
HETATM   10  C13 UNL     1      33.151   8.104  47.683  1.00  0.00     0.155 C 
HETATM   11  O1  UNL     1      32.479   7.081  46.814  1.00  0.00     0.000 OA
HETATM   12  C14 UNL     1      33.303   5.906  46.494  1.00  0.00     0.039 A 
HETATM   13  C15 UNL     1      33.748   5.770  45.364  1.00  0.00    -0.061 A 
HETATM   14  H5  UNL     1      32.399   3.290  48.593  1.00  0.00     0.261 HD
HETATM   15  H7  UNL     1      28.886   5.328  46.857  1.00  0.00     0.081 HD
ENDROOT
BRANCH   7  16
HETATM   16  N2  UNL     1      27.986   6.817  48.904  1.00  0.00    -0.366 N 
HETATM   17  H8  UNL     1      28.172   7.767  49.372  1.00  0.00     0.164 HD
BRANCH  16  18
HETATM   18  C6  UNL     1      26.927   5.884  49.004  1.00  0.00     0.031 A 
HETATM   19  C7  UNL     1      27.373   4.566  49.177  1.00  0.00     0.029 A 
HETATM   20  C8  UNL     1      26.416   3.522  49.335  1.00  0.00     0.002 A 
HETATM   21  C9  UNL     1      25.072   3.785  49.312  1.00  0.00     0.000 A 
HETATM   22  C10 UNL     1      24.794   5.089  49.136  1.00  0.00     0.002 A 
HETATM   23  C11 UNL     1      25.525   6.174  48.982  1.00  0.00     0.029 A 
ENDBRANCH  16  18
ENDBRANCH   7  16
BRANCH  13  24
HETATM   24  C16 UNL     1      34.320   5.564  44.048  1.00  0.00     0.028 C 
BRANCH  24  25
HETATM   25  C17 UNL     1      34.474   5.584  42.717  1.00  0.00     0.134 C 
BRANCH  25  26
HETATM   26  O2  UNL     1      34.140   4.411  42.013  1.00  0.00    -0.368 OA
HETATM   27  C18 UNL     1      32.917   4.253  41.278  1.00  0.00     0.208 C 
ENDBRANCH  25  26
ENDBRANCH  24  25
ENDBRANCH  13  24
TORSDOF 5
ENDMDL
MODEL 7
REMARK VINA RESULT:      -6.9      3.930      7.454
REMARK  5 active torsions:
REMARK  status: ('A' for Active; 'I' for Inactive)
REMARK    1  A    between atoms: P1_7  and  N2_8 
REMARK    2  A    between atoms: N2_8  and  C6_9 
REMARK    3  A    between atoms: C15_20  and  C16_21 
REMARK    4  A    between atoms: C16_21  and  C17_22 
REMARK    5  A    between atoms: C17_22  and  O2_23 
ROOT
HETATM    1  C1  UNL     1      23.173  -0.909  54.294  1.00  0.00     0.017 C 
HETATM    2  C2  UNL     1      23.309   0.098  53.411  1.00  0.00     0.014 A 
HETATM    3  C3  UNL     1      21.900   0.639  53.475  1.00  0.00     0.232 C 
HETATM    4  N1  UNL     1      21.323   0.500  52.096  1.00  0.00    -0.105 N 
HETATM    5  C4  UNL     1      21.537   0.924  50.630  1.00  0.00     0.614 A 
HETATM    6  C5  UNL     1      21.585   2.262  50.386  1.00  0.00    -0.004 A 
HETATM    7  P1  UNL     1      21.839   1.774  48.678  1.00  0.00    -0.003 P 
HETATM    8  C12 UNL     1      21.381   3.032  51.634  1.00  0.00     0.181 C 
HETATM    9  N3  UNL     1      22.531   3.739  52.011  1.00  0.00    -0.316 NA
HETATM   10  C13 UNL     1      23.751   3.575  52.019  1.00  0.00     0.155 C 
HETATM   11  O1  UNL     1      23.802   2.193  51.435  1.00  0.00     0.000 OA
HETATM   12  C14 UNL     1      23.692   1.104  52.416  1.00  0.00     0.039 A 
HETATM   13  C15 UNL     1      24.676   0.431  52.686  1.00  0.00    -0.061 A 
HETATM   14  H5  UNL     1      20.424  -0.076  52.426  1.00  0.00     0.261 HD
HETATM   15  H7  UNL     1      22.007   0.421  48.333  1.00  0.00     0.081 HD
ENDROOT
BRANCH   7  16
HETATM   16  N2  UNL     1      20.817   2.681  47.501  1.00  0.00    -0.366 N 
HETATM   17  H8  UNL     1      19.868   2.210  47.315  1.00  0.00     0.164 HD
BRANCH  16  18
HETATM   18  C6  UNL     1      21.422   3.860  47.004  1.00  0.00     0.031 A 
HETATM   19  C7  UNL     1      21.296   3.995  45.614  1.00  0.00     0.029 A 
HETATM   20  C8  UNL     1      21.823   5.157  44.977  1.00  0.00     0.002 A 
HETATM   21  C9  UNL     1      22.454   6.134  45.700  1.00  0.00     0.000 A 
HETATM   22  C10 UNL     1      22.503   5.867  47.017  1.00  0.00     0.002 A 
HETATM   23  C11 UNL     1      22.077   4.875  47.772  1.00  0.00     0.029 A 
ENDBRANCH  16  18
ENDBRANCH   7  16
BRANCH  13  24
HETATM   24  C16 UNL     1      25.811  -0.388  53.061  1.00  0.00     0.028 C 
BRANCH  24  25
HETATM   25  C17 UNL     1      26.912  -1.146  52.966  1.00  0.00     0.134 C 
BRANCH  25  26
HETATM   26  O2  UNL     1      27.881  -1.003  53.977  1.00  0.00    -0.368 OA
HETATM   27  C18 UNL     1      29.253  -0.668  53.714  1.00  0.00     0.208 C 
ENDBRANCH  25  26
ENDBRANCH  24  25
ENDBRANCH  13  24
TORSDOF 5
ENDMDL
MODEL 8
REMARK VINA RESULT:      -6.8      3.597      5.027
REMARK  5 active torsions:
REMARK  status: ('A' for Active; 'I' for Inactive)
REMARK    1  A    between atoms: P1_7  and  N2_8 
REMARK    2  A    between atoms: N2_8  and  C6_9 
REMARK    3  A    between atoms: C15_20  and  C16_21 
REMARK    4  A    between atoms: C16_21  and  C17_22 
REMARK    5  A    between atoms: C17_22  and  O2_23 
ROOT
HETATM    1  C1  UNL     1      24.091   6.369  48.075  1.00  0.00     0.017 C 
HETATM    2  C2  UNL     1      23.607   5.440  48.921  1.00  0.00     0.014 A 
HETATM    3  C3  UNL     1      24.222   5.962  50.198  1.00  0.00     0.232 C 
HETATM    4  N1  UNL     1      25.128   4.881  50.712  1.00  0.00    -0.105 N 
HETATM    5  C4  UNL     1      25.141   3.411  51.177  1.00  0.00     0.614 A 
HETATM    6  C5  UNL     1      24.311   3.094  52.208  1.00  0.00    -0.004 A 
HETATM    7  P1  UNL     1      24.960   1.433  52.001  1.00  0.00    -0.003 P 
HETATM    8  C12 UNL     1      23.583   4.291  52.684  1.00  0.00     0.181 C 
HETATM    9  N3  UNL     1      22.206   4.205  52.433  1.00  0.00    -0.316 NA
HETATM   10  C13 UNL     1      21.456   3.796  51.547  1.00  0.00     0.155 C 
HETATM   11  O1  UNL     1      22.491   3.306  50.576  1.00  0.00     0.000 OA
HETATM   12  C14 UNL     1      22.983   4.322  49.633  1.00  0.00     0.039 A 
HETATM   13  C15 UNL     1      22.650   4.267  48.459  1.00  0.00    -0.061 A 
HETATM   14  H5  UNL     1      26.032   5.534  50.773  1.00  0.00     0.261 HD
HETATM   15  H7  UNL     1      25.823   1.126  50.934  1.00  0.00     0.081 HD
ENDROOT
BRANCH   7  16
HETATM   16  N2  UNL     1      25.438   0.639  53.548  1.00  0.00    -0.366 N 
HETATM   17  H8  UNL     1      24.670   0.680  54.299  1.00  0.00     0.164 HD
BRANCH  16  18
HETATM   18  C6  UNL     1      26.745   0.097  53.533  1.00  0.00     0.031 A 
HETATM   19  C7  UNL     1      27.664   0.863  54.265  1.00  0.00     0.029 A 
HETATM   20  C8  UNL     1      29.014   0.415  54.373  1.00  0.00     0.002 A 
HETATM   21  C9  UNL     1      29.424  -0.744  53.770  1.00  0.00     0.000 A 
HETATM   22  C10 UNL     1      28.438  -1.369  53.103  1.00  0.00     0.002 A 
HETATM   23  C11 UNL     1      27.160  -1.119  52.901  1.00  0.00     0.029 A 
ENDBRANCH  16  18
ENDBRANCH   7  16
BRANCH  13  24
HETATM   24  C16 UNL     1      22.274   4.267  47.059  1.00  0.00     0.028 C 
BRANCH  24  25
HETATM   25  C17 UNL     1      21.704   4.627  45.901  1.00  0.00     0.134 C 
BRANCH  25  26
HETATM   26  O2  UNL     1      21.610   6.006  45.632  1.00  0.00    -0.368 OA
HETATM   27  C18 UNL     1      22.411   6.673  44.644  1.00  0.00     0.208 C 
ENDBRANCH  25  26
ENDBRANCH  24  25
ENDBRANCH  13  24
TORSDOF 5
ENDMDL
MODEL 9
REMARK VINA RESULT:      -6.8      1.604      2.010
REMARK  5 active torsions:
REMARK  status: ('A' for Active; 'I' for Inactive)
REMARK    1  A    between atoms: P1_7  and  N2_8 
REMARK    2  A    between atoms: N2_8  and  C6_9 
REMARK    3  A    between atoms: C15_20  and  C16_21 
REMARK    4  A    between atoms: C16_21  and  C17_22 
REMARK    5  A    between atoms: C17_22  and  O2_23 
ROOT
HETATM    1  C1  UNL     1      25.842   7.475  50.446  1.00  0.00     0.017 C 
HETATM    2  C2  UNL     1      25.216   6.301  50.245  1.00  0.00     0.014 A 
HETATM    3  C3  UNL     1      23.974   6.570  51.062  1.00  0.00     0.232 C 
HETATM    4  N1  UNL     1      23.950   5.544  52.158  1.00  0.00    -0.105 N 
HETATM    5  C4  UNL     1      23.922   4.025  52.413  1.00  0.00     0.614 A 
HETATM    6  C5  UNL     1      22.890   3.335  51.855  1.00  0.00    -0.004 A 
HETATM    7  P1  UNL     1      23.661   1.899  52.605  1.00  0.00    -0.003 P 
HETATM    8  C12 UNL     1      21.978   4.248  51.130  1.00  0.00     0.181 C 
HETATM    9  N3  UNL     1      21.995   4.021  49.747  1.00  0.00    -0.316 NA
HETATM   10  C13 UNL     1      22.813   3.740  48.870  1.00  0.00     0.155 C 
HETATM   11  O1  UNL     1      24.049   3.674  49.720  1.00  0.00     0.000 OA
HETATM   12  C14 UNL     1      24.744   4.958  49.898  1.00  0.00     0.039 A 
HETATM   13  C15 UNL     1      25.809   5.152  49.332  1.00  0.00    -0.061 A 
HETATM   14  H5  UNL     1      23.871   6.291  52.986  1.00  0.00     0.261 HD
HETATM   15  H7  UNL     1      24.907   2.006  53.250  1.00  0.00     0.081 HD
ENDROOT
BRANCH   7  16
HETATM   16  N2  UNL     1      22.506   0.822  53.476  1.00  0.00    -0.366 N 
HETATM   17  H8  UNL     1      22.850   0.534  54.453  1.00  0.00     0.164 HD
BRANCH  16  18
HETATM   18  C6  UNL     1      21.336   0.520  52.738  1.00  0.00     0.031 A 
HETATM   19  C7  UNL     1      20.268   0.111  53.549  1.00  0.00     0.029 A 
HETATM   20  C8  UNL     1      19.011  -0.187  52.946  1.00  0.00     0.002 A 
HETATM   21  C9  UNL     1      18.835  -0.086  51.592  1.00  0.00     0.000 A 
HETATM   22  C10 UNL     1      19.944   0.313  50.945  1.00  0.00     0.002 A 
HETATM   23  C11 UNL     1      21.165   0.633  51.322  1.00  0.00     0.029 A 
ENDBRANCH  16  18
ENDBRANCH   7  16
BRANCH  13  24
HETATM   24  C16 UNL     1      27.065   5.449  48.671  1.00  0.00     0.028 C 
BRANCH  24  25
HETATM   25  C17 UNL     1      28.232   6.037  48.376  1.00  0.00     0.134 C 
BRANCH  25  26
HETATM   26  O2  UNL     1      29.325   5.193  48.101  1.00  0.00    -0.368 OA
HETATM   27  C18 UNL     1      30.694   5.599  48.257  1.00  0.00     0.208 C 
ENDBRANCH  25  26
ENDBRANCH  24  25
ENDBRANCH  13  24
TORSDOF 5
ENDMDL
