MODEL 1
REMARK VINA RESULT:     -10.9      0.000      0.000
REMARK  3 active torsions:
REMARK  status: ('A' for Active; 'I' for Inactive)
REMARK    1  A    between atoms: C2_3  and  C22_24 
REMARK    2  A    between atoms: C3_4  and  C4_5 
REMARK    3  A    between atoms: C13_14  and  O1_15 
ROOT
HETATM    1  N1  UNL     1      30.380  -0.558  53.958  1.00  0.00    -0.191 NA
HETATM    2  C1  UNL     1      29.290  -0.518  53.548  1.00  0.00     0.104 C 
HETATM    3  C2  UNL     1      27.933  -0.452  53.016  1.00  0.00     0.108 C 
HETATM    4  C3  UNL     1      27.263   0.659  52.943  1.00  0.00     0.034 C 
ENDROOT
BRANCH   3   5
HETATM    5  C22 UNL     1      27.444  -1.772  52.582  1.00  0.00     0.324 A 
HETATM    6  N2  UNL     1      28.014  -3.020  53.028  1.00  0.00     0.102 N 
HETATM    7  H17 UNL     1      28.745  -3.457  53.643  1.00  0.00     0.325 HD
HETATM    8  H18 UNL     1      28.814  -3.072  53.696  1.00  0.00     0.325 HD
HETATM    9  O2  UNL     1      26.857  -2.766  52.076  1.00  0.00    -0.125 OA
ENDBRANCH   3   5
BRANCH   4  10
HETATM   10  C4  UNL     1      25.951   1.118  52.501  1.00  0.00    -0.051 C 
HETATM   11  C5  UNL     1      26.086   2.028  51.500  1.00  0.00     0.022 C 
HETATM   12  C6  UNL     1      25.116   2.883  50.769  1.00  0.00     0.005 C 
HETATM   13  C7  UNL     1      25.681   4.021  50.103  1.00  0.00    -0.024 A 
HETATM   14  C13 UNL     1      23.774   2.824  50.606  1.00  0.00     0.065 C 
HETATM   15  C8  UNL     1      26.822   3.691  49.362  1.00  0.00     0.012 A 
HETATM   16  C12 UNL     1      25.308   5.331  50.100  1.00  0.00     0.012 A 
HETATM   17  C9  UNL     1      27.550   4.645  48.655  1.00  0.00     0.001 A 
HETATM   18  C10 UNL     1      27.136   5.969  48.680  1.00  0.00     0.000 A 
HETATM   19  C11 UNL     1      26.002   6.299  49.414  1.00  0.00     0.001 A 
HETATM   20  C14 UNL     1      22.858   1.899  51.084  1.00  0.00     0.089 C 
HETATM   21  C15 UNL     1      21.510   1.631  50.946  1.00  0.00    -0.011 C 
HETATM   22  C20 UNL     1      23.029   2.060  52.612  1.00  0.00    -0.004 C 
HETATM   23  C16 UNL     1      20.935   0.515  51.512  1.00  0.00    -0.003 C 
HETATM   24  C17 UNL     1      21.524  -0.556  52.394  1.00  0.00     0.000 C 
HETATM   25  C18 UNL     1      22.672  -0.370  53.120  1.00  0.00     0.007 C 
HETATM   26  C19 UNL     1      23.507   0.879  52.994  1.00  0.00    -0.057 C 
HETATM   27  C21 UNL     1      24.889   0.443  53.317  1.00  0.00     0.076 C 
BRANCH  14  28
HETATM   28  O1  UNL     1      23.204   3.811  49.859  1.00  0.00    -0.363 OA
HETATM   29  H8  UNL     1      23.245   3.887  48.830  1.00  0.00     0.217 HD
ENDBRANCH  14  28
ENDBRANCH   4  10
TORSDOF 3
ENDMDL
MODEL 2
REMARK VINA RESULT:     -10.9      3.055      6.055
REMARK  3 active torsions:
REMARK  status: ('A' for Active; 'I' for Inactive)
REMARK    1  A    between atoms: C2_3  and  C22_24 
REMARK    2  A    between atoms: C3_4  and  C4_5 
REMARK    3  A    between atoms: C13_14  and  O1_15 
ROOT
HETATM    1  N1  UNL     1      25.828   5.786  48.783  1.00  0.00    -0.191 NA
HETATM    2  C1  UNL     1      25.329   5.134  49.609  1.00  0.00     0.104 C 
HETATM    3  C2  UNL     1      24.728   4.312  50.655  1.00  0.00     0.108 C 
HETATM    4  C3  UNL     1      24.979   3.044  50.779  1.00  0.00     0.034 C 
ENDROOT
BRANCH   3   5
HETATM    5  C22 UNL     1      23.832   5.092  51.525  1.00  0.00     0.324 A 
HETATM    6  N2  UNL     1      24.231   6.302  52.203  1.00  0.00     0.102 N 
HETATM    7  H17 UNL     1      25.019   6.980  52.353  1.00  0.00     0.325 HD
HETATM    8  H18 UNL     1      25.187   6.710  52.118  1.00  0.00     0.325 HD
HETATM    9  O2  UNL     1      22.893   5.581  52.210  1.00  0.00    -0.125 OA
ENDBRANCH   3   5
BRANCH   4  10
HETATM   10  C4  UNL     1      24.598   1.932  51.644  1.00  0.00    -0.051 C 
HETATM   11  C5  UNL     1      25.691   1.440  52.284  1.00  0.00     0.022 C 
HETATM   12  C6  UNL     1      25.904   0.271  53.175  1.00  0.00     0.005 C 
HETATM   13  C7  UNL     1      27.263  -0.176  53.289  1.00  0.00    -0.024 A 
HETATM   14  C13 UNL     1      25.064  -0.494  53.911  1.00  0.00     0.065 C 
HETATM   15  C8  UNL     1      28.152   0.882  53.512  1.00  0.00     0.012 A 
HETATM   16  C12 UNL     1      27.805  -1.420  53.191  1.00  0.00     0.012 A 
HETATM   17  C9  UNL     1      29.527   0.685  53.629  1.00  0.00     0.001 A 
HETATM   18  C10 UNL     1      30.038  -0.600  53.522  1.00  0.00     0.000 A 
HETATM   19  C11 UNL     1      29.157  -1.653  53.301  1.00  0.00     0.001 A 
HETATM   20  C14 UNL     1      23.689  -0.406  54.071  1.00  0.00     0.089 C 
HETATM   21  C15 UNL     1      22.708  -1.015  54.830  1.00  0.00    -0.011 C 
HETATM   22  C20 UNL     1      23.197  -0.621  52.622  1.00  0.00    -0.004 C 
HETATM   23  C16 UNL     1      21.402  -0.579  54.804  1.00  0.00    -0.003 C 
HETATM   24  C17 UNL     1      20.741   0.502  53.988  1.00  0.00     0.000 C 
HETATM   25  C18 UNL     1      21.272   0.975  52.815  1.00  0.00     0.007 C 
HETATM   26  C19 UNL     1      22.626   0.541  52.315  1.00  0.00    -0.057 C 
HETATM   27  C21 UNL     1      23.123   1.692  51.521  1.00  0.00     0.076 C 
BRANCH  14  28
HETATM   28  O1  UNL     1      25.626  -1.515  54.617  1.00  0.00    -0.363 OA
HETATM   29  H8  UNL     1      25.191  -2.004  55.416  1.00  0.00     0.217 HD
ENDBRANCH  14  28
ENDBRANCH   4  10
TORSDOF 3
ENDMDL
MODEL 3
REMARK VINA RESULT:      -9.8      3.114      6.023
REMARK  3 active torsions:
REMARK  status: ('A' for Active; 'I' for Inactive)
REMARK    1  A    between atoms: C2_3  and  C22_24 
REMARK    2  A    between atoms: C3_4  and  C4_5 
REMARK    3  A    between atoms: C13_14  and  O1_15 
ROOT
HETATM    1  N1  UNL     1      28.093   6.424  47.935  1.00  0.00    -0.191 NA
HETATM    2  C1  UNL     1      27.234   5.976  48.582  1.00  0.00     0.104 C 
HETATM    3  C2  UNL     1      26.176   5.407  49.411  1.00  0.00     0.108 C 
HETATM    4  C3  UNL     1      26.098   4.136  49.671  1.00  0.00     0.034 C 
ENDROOT
BRANCH   3   5
HETATM    5  C22 UNL     1      25.242   6.435  49.900  1.00  0.00     0.324 A 
HETATM    6  N2  UNL     1      25.332   7.037  51.208  1.00  0.00     0.102 N 
HETATM    7  H17 UNL     1      25.880   7.064  52.103  1.00  0.00     0.325 HD
HETATM    8  H18 UNL     1      26.072   6.786  51.899  1.00  0.00     0.325 HD
HETATM    9  O2  UNL     1      24.335   7.289  50.089  1.00  0.00    -0.125 OA
ENDBRANCH   3   5
BRANCH   4  10
HETATM   10  C4  UNL     1      25.237   3.222  50.415  1.00  0.00    -0.051 C 
HETATM   11  C5  UNL     1      25.976   2.493  51.293  1.00  0.00     0.022 C 
HETATM   12  C6  UNL     1      25.649   1.366  52.203  1.00  0.00     0.005 C 
HETATM   13  C7  UNL     1      26.768   0.578  52.632  1.00  0.00    -0.024 A 
HETATM   14  C13 UNL     1      24.486   0.901  52.715  1.00  0.00     0.065 C 
HETATM   15  C8  UNL     1      27.839   1.368  53.065  1.00  0.00     0.012 A 
HETATM   16  C12 UNL     1      26.953  -0.771  52.658  1.00  0.00     0.012 A 
HETATM   17  C9  UNL     1      29.041   0.816  53.502  1.00  0.00     0.001 A 
HETATM   18  C10 UNL     1      29.188  -0.564  53.511  1.00  0.00     0.000 A 
HETATM   19  C11 UNL     1      28.126  -1.351  53.083  1.00  0.00     0.001 A 
HETATM   20  C14 UNL     1      23.190   1.366  52.546  1.00  0.00     0.089 C 
HETATM   21  C15 UNL     1      21.932   1.090  53.049  1.00  0.00    -0.011 C 
HETATM   22  C20 UNL     1      23.002   1.204  51.021  1.00  0.00    -0.004 C 
HETATM   23  C16 UNL     1      20.839   1.860  52.717  1.00  0.00    -0.003 C 
HETATM   24  C17 UNL     1      20.707   3.027  51.774  1.00  0.00     0.000 C 
HETATM   25  C18 UNL     1      21.601   3.269  50.762  1.00  0.00     0.007 C 
HETATM   26  C19 UNL     1      22.859   2.457  50.594  1.00  0.00    -0.057 C 
HETATM   27  C21 UNL     1      23.823   3.382  49.946  1.00  0.00     0.076 C 
BRANCH  14  28
HETATM   28  O1  UNL     1      24.566  -0.189  53.528  1.00  0.00    -0.363 OA
HETATM   29  H8  UNL     1      24.723  -0.169  54.548  1.00  0.00     0.217 HD
ENDBRANCH  14  28
ENDBRANCH   4  10
TORSDOF 3
ENDMDL
MODEL 4
REMARK VINA RESULT:      -9.5      3.260      5.498
REMARK  3 active torsions:
REMARK  status: ('A' for Active; 'I' for Inactive)
REMARK    1  A    between atoms: C2_3  and  C22_24 
REMARK    2  A    between atoms: C3_4  and  C4_5 
REMARK    3  A    between atoms: C13_14  and  O1_15 
ROOT
HETATM    1  N1  UNL     1      18.470   1.664  50.379  1.00  0.00    -0.191 NA
HETATM    2  C1  UNL     1      19.631   1.567  50.368  1.00  0.00     0.104 C 
HETATM    3  C2  UNL     1      21.083   1.423  50.368  1.00  0.00     0.108 C 
HETATM    4  C3  UNL     1      21.790   1.460  51.457  1.00  0.00     0.034 C 
ENDROOT
BRANCH   3   5
HETATM    5  C22 UNL     1      21.620   1.230  49.010  1.00  0.00     0.324 A 
HETATM    6  N2  UNL     1      22.155   2.301  48.205  1.00  0.00     0.102 N 
HETATM    7  H17 UNL     1      22.370   3.329  48.179  1.00  0.00     0.325 HD
HETATM    8  H18 UNL     1      22.202   3.290  48.535  1.00  0.00     0.325 HD
HETATM    9  O2  UNL     1      22.021   0.822  47.887  1.00  0.00    -0.125 OA
ENDBRANCH   3   5
BRANCH   4  10
HETATM   10  C4  UNL     1      23.190   1.364  51.858  1.00  0.00    -0.051 C 
HETATM   11  C5  UNL     1      23.883   2.440  51.401  1.00  0.00     0.022 C 
HETATM   12  C6  UNL     1      25.323   2.801  51.418  1.00  0.00     0.005 C 
HETATM   13  C7  UNL     1      25.721   3.789  50.457  1.00  0.00    -0.024 A 
HETATM   14  C13 UNL     1      26.373   2.372  52.157  1.00  0.00     0.065 C 
HETATM   15  C8  UNL     1      24.857   4.890  50.440  1.00  0.00     0.012 A 
HETATM   16  C12 UNL     1      26.756   3.809  49.573  1.00  0.00     0.012 A 
HETATM   17  C9  UNL     1      25.035   5.960  49.566  1.00  0.00     0.001 A 
HETATM   18  C10 UNL     1      26.102   5.940  48.680  1.00  0.00     0.000 A 
HETATM   19  C11 UNL     1      26.962   4.848  48.695  1.00  0.00     0.001 A 
HETATM   20  C14 UNL     1      26.421   1.432  53.175  1.00  0.00     0.089 C 
HETATM   21  C15 UNL     1      27.349   0.951  54.079  1.00  0.00    -0.011 C 
HETATM   22  C20 UNL     1      25.954   0.156  52.438  1.00  0.00    -0.004 C 
HETATM   23  C16 UNL     1      27.000   0.050  55.061  1.00  0.00    -0.003 C 
HETATM   24  C17 UNL     1      25.689  -0.635  55.347  1.00  0.00     0.000 C 
HETATM   25  C18 UNL     1      24.704  -0.776  54.402  1.00  0.00     0.007 C 
HETATM   26  C19 UNL     1      24.805  -0.143  53.038  1.00  0.00    -0.057 C 
HETATM   27  C21 UNL     1      23.398   0.094  52.627  1.00  0.00     0.076 C 
BRANCH  14  28
HETATM   28  O1  UNL     1      27.584   2.933  51.883  1.00  0.00    -0.363 OA
HETATM   29  H8  UNL     1      28.124   3.540  52.520  1.00  0.00     0.217 HD
ENDBRANCH  14  28
ENDBRANCH   4  10
TORSDOF 3
ENDMDL
MODEL 5
REMARK VINA RESULT:      -9.4      1.338      5.059
REMARK  3 active torsions:
REMARK  status: ('A' for Active; 'I' for Inactive)
REMARK    1  A    between atoms: C2_3  and  C22_24 
REMARK    2  A    between atoms: C3_4  and  C4_5 
REMARK    3  A    between atoms: C13_14  and  O1_15 
ROOT
HETATM    1  N1  UNL     1      28.780  -0.196  55.094  1.00  0.00    -0.191 NA
HETATM    2  C1  UNL     1      28.023  -0.021  54.226  1.00  0.00     0.104 C 
HETATM    3  C2  UNL     1      27.092   0.213  53.127  1.00  0.00     0.108 C 
HETATM    4  C3  UNL     1      26.639   1.394  52.833  1.00  0.00     0.034 C 
ENDROOT
BRANCH   3   5
HETATM    5  C22 UNL     1      26.752  -1.031  52.415  1.00  0.00     0.324 A 
HETATM    6  N2  UNL     1      27.211  -2.336  52.825  1.00  0.00     0.102 N 
HETATM    7  H17 UNL     1      27.769  -2.862  53.544  1.00  0.00     0.325 HD
HETATM    8  H18 UNL     1      27.816  -2.487  53.662  1.00  0.00     0.325 HD
HETATM    9  O2  UNL     1      26.330  -1.941  51.652  1.00  0.00    -0.125 OA
ENDBRANCH   3   5
BRANCH   4  10
HETATM   10  C4  UNL     1      25.739   2.012  51.864  1.00  0.00    -0.051 C 
HETATM   11  C5  UNL     1      24.446   1.760  52.199  1.00  0.00     0.022 C 
HETATM   12  C6  UNL     1      23.152   2.043  51.528  1.00  0.00     0.005 C 
HETATM   13  C7  UNL     1      22.045   1.240  51.964  1.00  0.00    -0.024 A 
HETATM   14  C13 UNL     1      22.786   2.910  50.555  1.00  0.00     0.065 C 
HETATM   15  C8  UNL     1      21.961   1.165  53.359  1.00  0.00     0.012 A 
HETATM   16  C12 UNL     1      21.114   0.543  51.256  1.00  0.00     0.012 A 
HETATM   17  C9  UNL     1      20.979   0.417  54.005  1.00  0.00     0.001 A 
HETATM   18  C10 UNL     1      20.050  -0.279  53.245  1.00  0.00     0.000 A 
HETATM   19  C11 UNL     1      20.131  -0.206  51.859  1.00  0.00     0.001 A 
HETATM   20  C14 UNL     1      23.543   3.847  49.867  1.00  0.00     0.089 C 
HETATM   21  C15 UNL     1      23.330   4.852  48.943  1.00  0.00    -0.011 C 
HETATM   22  C20 UNL     1      24.590   2.947  49.173  1.00  0.00    -0.004 C 
HETATM   23  C16 UNL     1      24.347   5.691  48.543  1.00  0.00    -0.003 C 
HETATM   24  C17 UNL     1      25.811   5.702  48.900  1.00  0.00     0.000 C 
HETATM   25  C18 UNL     1      26.464   4.600  49.389  1.00  0.00     0.007 C 
HETATM   26  C19 UNL     1      25.738   3.324  49.731  1.00  0.00    -0.057 C 
HETATM   27  C21 UNL     1      26.549   2.705  50.809  1.00  0.00     0.076 C 
BRANCH  14  28
HETATM   28  O1  UNL     1      21.479   2.884  50.171  1.00  0.00    -0.363 OA
HETATM   29  H8  UNL     1      20.668   3.064  50.784  1.00  0.00     0.217 HD
ENDBRANCH  14  28
ENDBRANCH   4  10
TORSDOF 3
ENDMDL
MODEL 6
REMARK VINA RESULT:      -9.1      3.323      6.260
REMARK  3 active torsions:
REMARK  status: ('A' for Active; 'I' for Inactive)
REMARK    1  A    between atoms: C2_3  and  C22_24 
REMARK    2  A    between atoms: C3_4  and  C4_5 
REMARK    3  A    between atoms: C13_14  and  O1_15 
ROOT
HETATM    1  N1  UNL     1      26.491   6.620  48.229  1.00  0.00    -0.191 NA
HETATM    2  C1  UNL     1      25.644   6.050  48.791  1.00  0.00     0.104 C 
HETATM    3  C2  UNL     1      24.602   5.321  49.506  1.00  0.00     0.108 C 
HETATM    4  C3  UNL     1      24.374   4.056  49.312  1.00  0.00     0.034 C 
ENDROOT
BRANCH   3   5
HETATM    5  C22 UNL     1      23.870   6.184  50.449  1.00  0.00     0.324 A 
HETATM    6  N2  UNL     1      24.080   6.163  51.876  1.00  0.00     0.102 N 
HETATM    7  H17 UNL     1      24.635   5.729  52.655  1.00  0.00     0.325 HD
HETATM    8  H18 UNL     1      24.772   5.534  52.339  1.00  0.00     0.325 HD
HETATM    9  O2  UNL     1      23.130   7.011  51.046  1.00  0.00    -0.125 OA
ENDBRANCH   3   5
BRANCH   4  10
HETATM   10  C4  UNL     1      23.471   3.020  49.801  1.00  0.00    -0.051 C 
HETATM   11  C5  UNL     1      23.945   2.493  50.960  1.00  0.00     0.022 C 
HETATM   12  C6  UNL     1      23.504   1.362  51.816  1.00  0.00     0.005 C 
HETATM   13  C7  UNL     1      24.502   0.835  52.701  1.00  0.00    -0.024 A 
HETATM   14  C13 UNL     1      22.332   0.694  51.931  1.00  0.00     0.065 C 
HETATM   15  C8  UNL     1      25.183   1.843  53.394  1.00  0.00     0.012 A 
HETATM   16  C12 UNL     1      24.894  -0.446  52.944  1.00  0.00     0.012 A 
HETATM   17  C9  UNL     1      26.214   1.563  54.289  1.00  0.00     0.001 A 
HETATM   18  C10 UNL     1      26.582   0.243  54.506  1.00  0.00     0.000 A 
HETATM   19  C11 UNL     1      25.907  -0.760  53.820  1.00  0.00     0.001 A 
HETATM   20  C14 UNL     1      21.132   0.880  51.261  1.00  0.00     0.089 C 
HETATM   21  C15 UNL     1      19.846   0.378  51.312  1.00  0.00    -0.011 C 
HETATM   22  C20 UNL     1      21.554   0.620  49.797  1.00  0.00    -0.004 C 
HETATM   23  C16 UNL     1      18.838   0.896  50.528  1.00  0.00    -0.003 C 
HETATM   24  C17 UNL     1      18.866   1.972  49.474  1.00  0.00     0.000 C 
HETATM   25  C18 UNL     1      20.015   2.346  48.825  1.00  0.00     0.007 C 
HETATM   26  C19 UNL     1      21.366   1.798  49.209  1.00  0.00    -0.057 C 
HETATM   27  C21 UNL     1      22.325   2.871  48.845  1.00  0.00     0.076 C 
BRANCH  14  28
HETATM   28  O1  UNL     1      22.293  -0.322  52.837  1.00  0.00    -0.363 OA
HETATM   29  H8  UNL     1      21.757  -0.321  53.720  1.00  0.00     0.217 HD
ENDBRANCH  14  28
ENDBRANCH   4  10
TORSDOF 3
ENDMDL
MODEL 7
REMARK VINA RESULT:      -9.0      3.484      7.216
REMARK  3 active torsions:
REMARK  status: ('A' for Active; 'I' for Inactive)
REMARK    1  A    between atoms: C2_3  and  C22_24 
REMARK    2  A    between atoms: C3_4  and  C4_5 
REMARK    3  A    between atoms: C13_14  and  O1_15 
ROOT
HETATM    1  N1  UNL     1      21.807   7.568  50.718  1.00  0.00    -0.191 NA
HETATM    2  C1  UNL     1      22.417   6.584  50.845  1.00  0.00     0.104 C 
HETATM    3  C2  UNL     1      23.160   5.337  50.996  1.00  0.00     0.108 C 
HETATM    4  C3  UNL     1      22.845   4.436  51.877  1.00  0.00     0.034 C 
ENDROOT
BRANCH   3   5
HETATM    5  C22 UNL     1      24.278   5.240  50.042  1.00  0.00     0.324 A 
HETATM    6  N2  UNL     1      25.622   5.670  50.341  1.00  0.00     0.102 N 
HETATM    7  H17 UNL     1      26.246   6.082  51.079  1.00  0.00     0.325 HD
HETATM    8  H18 UNL     1      25.895   6.078  51.262  1.00  0.00     0.325 HD
HETATM    9  O2  UNL     1      25.060   5.055  49.070  1.00  0.00    -0.125 OA
ENDBRANCH   3   5
BRANCH   4  10
HETATM   10  C4  UNL     1      23.313   3.128  52.321  1.00  0.00    -0.051 C 
HETATM   11  C5  UNL     1      22.343   2.194  52.134  1.00  0.00     0.022 C 
HETATM   12  C6  UNL     1      22.234   0.758  52.498  1.00  0.00     0.005 C 
HETATM   13  C7  UNL     1      20.899   0.233  52.533  1.00  0.00    -0.024 A 
HETATM   14  C13 UNL     1      23.149  -0.183  52.828  1.00  0.00     0.065 C 
HETATM   15  C8  UNL     1      20.157   0.594  51.402  1.00  0.00     0.012 A 
HETATM   16  C12 UNL     1      20.257  -0.512  53.473  1.00  0.00     0.012 A 
HETATM   17  C9  UNL     1      18.826   0.217  51.235  1.00  0.00     0.001 A 
HETATM   18  C10 UNL     1      18.210  -0.542  52.219  1.00  0.00     0.000 A 
HETATM   19  C11 UNL     1      18.944  -0.903  53.343  1.00  0.00     0.001 A 
HETATM   20  C14 UNL     1      24.530  -0.089  52.919  1.00  0.00     0.089 C 
HETATM   21  C15 UNL     1      25.599  -0.936  53.139  1.00  0.00    -0.011 C 
HETATM   22  C20 UNL     1      24.692   0.977  54.027  1.00  0.00    -0.004 C 
HETATM   23  C16 UNL     1      26.900  -0.493  53.051  1.00  0.00    -0.003 C 
HETATM   24  C17 UNL     1      27.455   0.885  52.796  1.00  0.00     0.000 C 
HETATM   25  C18 UNL     1      26.729   2.029  53.009  1.00  0.00     0.007 C 
HETATM   26  C19 UNL     1      25.272   1.993  53.393  1.00  0.00    -0.057 C 
HETATM   27  C21 UNL     1      24.709   3.257  52.855  1.00  0.00     0.076 C 
BRANCH  14  28
HETATM   28  O1  UNL     1      22.672  -1.425  53.119  1.00  0.00    -0.363 OA
HETATM   29  H8  UNL     1      22.353  -1.745  54.047  1.00  0.00     0.217 HD
ENDBRANCH  14  28
ENDBRANCH   4  10
TORSDOF 3
ENDMDL
MODEL 8
REMARK VINA RESULT:      -9.0      3.556      5.477
REMARK  3 active torsions:
REMARK  status: ('A' for Active; 'I' for Inactive)
REMARK    1  A    between atoms: C2_3  and  C22_24 
REMARK    2  A    between atoms: C3_4  and  C4_5 
REMARK    3  A    between atoms: C13_14  and  O1_15 
ROOT
HETATM    1  N1  UNL     1      29.004   5.105  48.181  1.00  0.00    -0.191 NA
HETATM    2  C1  UNL     1      27.954   4.949  48.660  1.00  0.00     0.104 C 
HETATM    3  C2  UNL     1      26.649   4.741  49.280  1.00  0.00     0.108 C 
HETATM    4  C3  UNL     1      26.146   3.558  49.472  1.00  0.00     0.034 C 
ENDROOT
BRANCH   3   5
HETATM    5  C22 UNL     1      26.004   6.011  49.651  1.00  0.00     0.324 A 
HETATM    6  N2  UNL     1      26.713   7.263  49.767  1.00  0.00     0.102 N 
HETATM    7  H17 UNL     1      27.649   7.729  49.671  1.00  0.00     0.325 HD
HETATM    8  H18 UNL     1      27.738   7.352  49.590  1.00  0.00     0.325 HD
HETATM    9  O2  UNL     1      25.240   6.959  49.979  1.00  0.00    -0.125 OA
ENDBRANCH   3   5
BRANCH   4  10
HETATM   10  C4  UNL     1      24.936   2.961  50.027  1.00  0.00    -0.051 C 
HETATM   11  C5  UNL     1      23.926   3.019  49.120  1.00  0.00     0.022 C 
HETATM   12  C6  UNL     1      22.484   2.671  49.183  1.00  0.00     0.005 C 
HETATM   13  C7  UNL     1      21.659   3.282  48.181  1.00  0.00    -0.024 A 
HETATM   14  C13 UNL     1      21.759   1.889  50.017  1.00  0.00     0.065 C 
HETATM   15  C8  UNL     1      22.215   3.181  46.901  1.00  0.00     0.012 A 
HETATM   16  C12 UNL     1      20.475   3.946  48.283  1.00  0.00     0.012 A 
HETATM   17  C9  UNL     1      21.599   3.728  45.778  1.00  0.00     0.001 A 
HETATM   18  C10 UNL     1      20.393   4.397  45.926  1.00  0.00     0.000 A 
HETATM   19  C11 UNL     1      19.837   4.499  47.196  1.00  0.00     0.001 A 
HETATM   20  C14 UNL     1      22.165   1.135  51.108  1.00  0.00     0.089 C 
HETATM   21  C15 UNL     1      21.605   0.230  51.989  1.00  0.00    -0.011 C 
HETATM   22  C20 UNL     1      22.736   2.227  52.041  1.00  0.00    -0.004 C 
HETATM   23  C16 UNL     1      22.368  -0.432  52.925  1.00  0.00    -0.003 C 
HETATM   24  C17 UNL     1      23.833  -0.317  53.260  1.00  0.00     0.000 C 
HETATM   25  C18 UNL     1      24.582   0.788  52.943  1.00  0.00     0.007 C 
HETATM   26  C19 UNL     1      24.029   1.921  52.117  1.00  0.00    -0.057 C 
HETATM   27  C21 UNL     1      25.210   2.497  51.426  1.00  0.00     0.076 C 
BRANCH  14  28
HETATM   28  O1  UNL     1      20.421   1.809  49.774  1.00  0.00    -0.363 OA
HETATM   29  H8  UNL     1      19.749   1.221  50.292  1.00  0.00     0.217 HD
ENDBRANCH  14  28
ENDBRANCH   4  10
TORSDOF 3
ENDMDL
MODEL 9
REMARK VINA RESULT:      -8.8      3.489      7.154
REMARK  3 active torsions:
REMARK  status: ('A' for Active; 'I' for Inactive)
REMARK    1  A    between atoms: C2_3  and  C22_24 
REMARK    2  A    between atoms: C3_4  and  C4_5 
REMARK    3  A    between atoms: C13_14  and  O1_15 
ROOT
HETATM    1  N1  UNL     1      23.084   5.951  47.419  1.00  0.00    -0.191 NA
HETATM    2  C1  UNL     1      23.327   5.459  48.446  1.00  0.00     0.104 C 
HETATM    3  C2  UNL     1      23.653   4.833  49.723  1.00  0.00     0.108 C 
HETATM    4  C3  UNL     1      23.767   3.546  49.863  1.00  0.00     0.034 C 
ENDROOT
BRANCH   3   5
HETATM    5  C22 UNL     1      23.835   5.825  50.796  1.00  0.00     0.324 A 
HETATM    6  N2  UNL     1      22.988   5.904  51.962  1.00  0.00     0.102 N 
HETATM    7  H17 UNL     1      22.168   5.473  52.456  1.00  0.00     0.325 HD
HETATM    8  H18 UNL     1      22.188   5.256  52.126  1.00  0.00     0.325 HD
HETATM    9  O2  UNL     1      24.187   6.753  51.573  1.00  0.00    -0.125 OA
ENDBRANCH   3   5
BRANCH   4  10
HETATM   10  C4  UNL     1      24.063   2.581  50.918  1.00  0.00    -0.051 C 
HETATM   11  C5  UNL     1      22.985   1.784  51.138  1.00  0.00     0.022 C 
HETATM   12  C6  UNL     1      22.691   0.731  52.143  1.00  0.00     0.005 C 
HETATM   13  C7  UNL     1      21.300   0.434  52.335  1.00  0.00    -0.024 A 
HETATM   14  C13 UNL     1      23.477  -0.019  52.951  1.00  0.00     0.065 C 
HETATM   15  C8  UNL     1      20.621   0.271  51.122  1.00  0.00     0.012 A 
HETATM   16  C12 UNL     1      20.560   0.317  53.471  1.00  0.00     0.012 A 
HETATM   17  C9  UNL     1      19.255   0.003  51.065  1.00  0.00     0.001 A 
HETATM   18  C10 UNL     1      18.538  -0.108  52.248  1.00  0.00     0.000 A 
HETATM   19  C11 UNL     1      19.210   0.053  53.454  1.00  0.00     0.001 A 
HETATM   20  C14 UNL     1      24.857  -0.038  53.082  1.00  0.00     0.089 C 
HETATM   21  C15 UNL     1      25.808  -0.777  53.760  1.00  0.00    -0.011 C 
HETATM   22  C20 UNL     1      25.142   1.409  53.544  1.00  0.00    -0.004 C 
HETATM   23  C16 UNL     1      27.156  -0.573  53.560  1.00  0.00    -0.003 C 
HETATM   24  C17 UNL     1      27.883   0.436  52.709  1.00  0.00     0.000 C 
HETATM   25  C18 UNL     1      27.305   1.607  52.290  1.00  0.00     0.007 C 
HETATM   26  C19 UNL     1      25.852   1.917  52.540  1.00  0.00    -0.057 C 
HETATM   27  C21 UNL     1      25.458   2.807  51.419  1.00  0.00     0.076 C 
BRANCH  14  28
HETATM   28  O1  UNL     1      22.844  -0.902  53.774  1.00  0.00    -0.363 OA
HETATM   29  H8  UNL     1      22.231  -0.652  54.567  1.00  0.00     0.217 HD
ENDBRANCH  14  28
ENDBRANCH   4  10
TORSDOF 3
ENDMDL
