MODEL 1
REMARK VINA RESULT:      -8.1      0.000      0.000
REMARK  4 active torsions:
REMARK  status: ('A' for Active; 'I' for Inactive)
REMARK    1  A    between atoms: C3_3  and  C4_4 
REMARK       I    between atoms: C4_4  and  N1_6 
REMARK    2  A    between atoms: N1_6  and  C5_7 
REMARK    3  A    between atoms: C10_14  and  N4_15 
REMARK    4  A    between atoms: N4_15  and  C11_16 
ROOT
HETATM    1  C1  UNL     1      16.664  -1.083  52.273  1.00  0.00     0.112 C 
HETATM    2  C2  UNL     1      18.025  -0.780  52.727  1.00  0.00    -0.101 C 
HETATM    3  C3  UNL     1      19.157  -0.522  53.119  1.00  0.00    -0.006 C 
ENDROOT
BRANCH   3   4
HETATM    4  C4  UNL     1      20.476  -0.203  53.590  1.00  0.00     0.300 C 
HETATM    5  O1  UNL     1      20.711   0.987  53.926  1.00  0.00    -0.258 OA
HETATM    6  N1  UNL     1      21.410  -1.285  53.634  1.00  0.00    -0.316 N 
HETATM    7  H4  UNL     1      21.132  -2.246  53.336  1.00  0.00     0.170 HD
BRANCH   6   8
HETATM    8  C5  UNL     1      22.736  -1.042  54.091  1.00  0.00     0.036 A 
HETATM    9  C6  UNL     1      23.132  -1.520  55.320  1.00  0.00     0.032 A 
HETATM   10  C7  UNL     1      24.423  -1.267  55.735  1.00  0.00     0.035 A 
HETATM   11  C8  UNL     1      25.275  -0.558  54.934  1.00  0.00     0.072 A 
HETATM   12  N2  UNL     1      26.514  -0.356  55.413  1.00  0.00    -0.241 NA
HETATM   13  C17 UNL     1      24.944  -0.055  53.702  1.00  0.00     0.041 A 
HETATM   14  C9  UNL     1      27.419   0.330  54.693  1.00  0.00     0.236 A 
HETATM   15  N3  UNL     1      27.038   0.794  53.502  1.00  0.00    -0.224 NA
HETATM   16  C10 UNL     1      25.852   0.649  52.948  1.00  0.00     0.142 A 
HETATM   17  C18 UNL     1      23.647  -0.336  53.337  1.00  0.00     0.047 A 
BRANCH  16  18
HETATM   18  N4  UNL     1      25.446   1.140  51.687  1.00  0.00    -0.340 N 
HETATM   19  H8  UNL     1      25.252   0.521  50.891  1.00  0.00     0.167 HD
BRANCH  18  20
HETATM   20  C11 UNL     1      25.236   2.478  51.276  1.00  0.00     0.035 A 
HETATM   21  C12 UNL     1      24.197   3.304  51.702  1.00  0.00     0.029 A 
HETATM   22  C13 UNL     1      24.020   4.594  51.287  1.00  0.00     0.004 A 
HETATM   23  C14 UNL     1      24.880   5.163  50.403  1.00  0.00     0.019 A 
HETATM   24  C15 UNL     1      25.929   4.398  49.943  1.00  0.00     0.013 A 
HETATM   25 BR1  UNL     1      27.112   5.239  48.704  1.00  0.00    -0.051 Br
HETATM   26  C16 UNL     1      26.068   3.102  50.390  1.00  0.00     0.048 A 
ENDBRANCH  18  20
ENDBRANCH  16  18
ENDBRANCH   6   8
ENDBRANCH   3   4
TORSDOF 4
ENDMDL
MODEL 2
REMARK VINA RESULT:      -8.0      1.981      2.699
REMARK  4 active torsions:
REMARK  status: ('A' for Active; 'I' for Inactive)
REMARK    1  A    between atoms: C3_3  and  C4_4 
REMARK       I    between atoms: C4_4  and  N1_6 
REMARK    2  A    between atoms: N1_6  and  C5_7 
REMARK    3  A    between atoms: C10_14  and  N4_15 
REMARK    4  A    between atoms: N4_15  and  C11_16 
ROOT
HETATM    1  C1  UNL     1      17.455   0.181  50.330  1.00  0.00     0.112 C 
HETATM    2  C2  UNL     1      18.755   0.521  50.918  1.00  0.00    -0.101 C 
HETATM    3  C3  UNL     1      19.835   0.803  51.422  1.00  0.00    -0.006 C 
ENDROOT
BRANCH   3   4
HETATM    4  C4  UNL     1      21.091   1.147  52.030  1.00  0.00     0.300 C 
HETATM    5  O1  UNL     1      21.143   2.196  52.725  1.00  0.00    -0.258 OA
HETATM    6  N1  UNL     1      22.178   0.251  51.783  1.00  0.00    -0.316 N 
HETATM    7  H4  UNL     1      22.048  -0.600  51.193  1.00  0.00     0.170 HD
BRANCH   6   8
HETATM    8  C5  UNL     1      23.452   0.529  52.354  1.00  0.00     0.036 A 
HETATM    9  C6  UNL     1      23.761   0.039  53.604  1.00  0.00     0.032 A 
HETATM   10  C7  UNL     1      25.003   0.326  54.130  1.00  0.00     0.035 A 
HETATM   11  C8  UNL     1      25.894   1.079  53.416  1.00  0.00     0.072 A 
HETATM   12  N2  UNL     1      27.081   1.312  54.000  1.00  0.00    -0.241 NA
HETATM   13  C17 UNL     1      25.649   1.595  52.169  1.00  0.00     0.041 A 
HETATM   14  C9  UNL     1      28.018   2.042  53.370  1.00  0.00     0.236 A 
HETATM   15  N3  UNL     1      27.722   2.518  52.161  1.00  0.00    -0.224 NA
HETATM   16  C10 UNL     1      26.592   2.344  51.506  1.00  0.00     0.142 A 
HETATM   17  C18 UNL     1      24.397   1.280  51.692  1.00  0.00     0.047 A 
BRANCH  16  18
HETATM   18  N4  UNL     1      26.275   2.847  50.224  1.00  0.00    -0.340 N 
HETATM   19  H8  UNL     1      25.867   2.259  49.487  1.00  0.00     0.167 HD
BRANCH  18  20
HETATM   20  C11 UNL     1      26.438   4.157  49.714  1.00  0.00     0.035 A 
HETATM   21  C12 UNL     1      27.450   4.571  48.849  1.00  0.00     0.029 A 
HETATM   22  C13 UNL     1      27.581   5.845  48.373  1.00  0.00     0.004 A 
HETATM   23  C14 UNL     1      26.700   6.814  48.729  1.00  0.00     0.019 A 
HETATM   24  C15 UNL     1      25.675   6.469  49.583  1.00  0.00     0.013 A 
HETATM   25 BR1  UNL     1      24.460   7.862  50.056  1.00  0.00    -0.051 Br
HETATM   26  C16 UNL     1      25.581   5.171  50.037  1.00  0.00     0.048 A 
ENDBRANCH  18  20
ENDBRANCH  16  18
ENDBRANCH   6   8
ENDBRANCH   3   4
TORSDOF 4
ENDMDL
MODEL 3
REMARK VINA RESULT:      -7.8      2.125      5.517
REMARK  4 active torsions:
REMARK  status: ('A' for Active; 'I' for Inactive)
REMARK    1  A    between atoms: C3_3  and  C4_4 
REMARK       I    between atoms: C4_4  and  N1_6 
REMARK    2  A    between atoms: N1_6  and  C5_7 
REMARK    3  A    between atoms: C10_14  and  N4_15 
REMARK    4  A    between atoms: N4_15  and  C11_16 
ROOT
HETATM    1  C1  UNL     1      30.491  -0.694  53.833  1.00  0.00     0.112 C 
HETATM    2  C2  UNL     1      29.040  -0.807  53.654  1.00  0.00    -0.101 C 
HETATM    3  C3  UNL     1      27.829  -0.906  53.491  1.00  0.00    -0.006 C 
ENDROOT
BRANCH   3   4
HETATM    4  C4  UNL     1      26.413  -1.016  53.278  1.00  0.00     0.300 C 
HETATM    5  O1  UNL     1      26.015  -1.591  52.232  1.00  0.00    -0.258 OA
HETATM    6  N1  UNL     1      25.577  -0.451  54.293  1.00  0.00    -0.316 N 
HETATM    7  H4  UNL     1      25.989   0.010  55.133  1.00  0.00     0.170 HD
BRANCH   6   8
HETATM    8  C5  UNL     1      24.162  -0.523  54.148  1.00  0.00     0.036 A 
HETATM    9  C6  UNL     1      23.418  -1.232  55.065  1.00  0.00     0.032 A 
HETATM   10  C7  UNL     1      22.050  -1.284  54.897  1.00  0.00     0.035 A 
HETATM   11  C8  UNL     1      21.463  -0.642  53.842  1.00  0.00     0.072 A 
HETATM   12  N2  UNL     1      20.127  -0.742  53.751  1.00  0.00    -0.241 NA
HETATM   13  C17 UNL     1      22.145   0.080  52.895  1.00  0.00     0.041 A 
HETATM   14  C9  UNL     1      19.466  -0.142  52.746  1.00  0.00     0.236 A 
HETATM   15  N3  UNL     1      20.183   0.545  51.857  1.00  0.00    -0.224 NA
HETATM   16  C10 UNL     1      21.491   0.702  51.859  1.00  0.00     0.142 A 
HETATM   17  C18 UNL     1      23.505   0.099  53.110  1.00  0.00     0.047 A 
BRANCH  16  18
HETATM   18  N4  UNL     1      22.254   1.429  50.918  1.00  0.00    -0.340 N 
HETATM   19  H8  UNL     1      22.497   1.050  49.995  1.00  0.00     0.167 HD
BRANCH  18  20
HETATM   20  C11 UNL     1      22.807   2.727  51.030  1.00  0.00     0.035 A 
HETATM   21  C12 UNL     1      22.327   3.745  51.853  1.00  0.00     0.029 A 
HETATM   22  C13 UNL     1      22.883   4.991  51.940  1.00  0.00     0.004 A 
HETATM   23  C14 UNL     1      23.974   5.316  51.201  1.00  0.00     0.019 A 
HETATM   24  C15 UNL     1      24.498   4.353  50.367  1.00  0.00     0.013 A 
HETATM   25 BR1  UNL     1      26.032   4.856  49.349  1.00  0.00    -0.051 Br
HETATM   26  C16 UNL     1      23.905   3.111  50.313  1.00  0.00     0.048 A 
ENDBRANCH  18  20
ENDBRANCH  16  18
ENDBRANCH   6   8
ENDBRANCH   3   4
TORSDOF 4
ENDMDL
MODEL 4
REMARK VINA RESULT:      -7.8      2.586      5.744
REMARK  4 active torsions:
REMARK  status: ('A' for Active; 'I' for Inactive)
REMARK    1  A    between atoms: C3_3  and  C4_4 
REMARK       I    between atoms: C4_4  and  N1_6 
REMARK    2  A    between atoms: N1_6  and  C5_7 
REMARK    3  A    between atoms: C10_14  and  N4_15 
REMARK    4  A    between atoms: N4_15  and  C11_16 
ROOT
HETATM    1  C1  UNL     1      30.337  -0.788  53.870  1.00  0.00     0.112 C 
HETATM    2  C2  UNL     1      28.951  -0.309  53.838  1.00  0.00    -0.101 C 
HETATM    3  C3  UNL     1      27.795   0.096  53.800  1.00  0.00    -0.006 C 
ENDROOT
BRANCH   3   4
HETATM    4  C4  UNL     1      26.447   0.590  53.742  1.00  0.00     0.300 C 
HETATM    5  O1  UNL     1      26.199   1.696  54.288  1.00  0.00    -0.258 OA
HETATM    6  N1  UNL     1      25.501  -0.237  53.057  1.00  0.00    -0.316 N 
HETATM    7  H4  UNL     1      25.792  -1.144  52.630  1.00  0.00     0.170 HD
BRANCH   6   8
HETATM    8  C5  UNL     1      24.146   0.189  52.960  1.00  0.00     0.036 A 
HETATM    9  C6  UNL     1      23.247  -0.172  53.939  1.00  0.00     0.032 A 
HETATM   10  C7  UNL     1      21.941   0.256  53.817  1.00  0.00     0.035 A 
HETATM   11  C8  UNL     1      21.566   1.019  52.745  1.00  0.00     0.072 A 
HETATM   12  N2  UNL     1      20.277   1.394  52.702  1.00  0.00    -0.241 NA
HETATM   13  C17 UNL     1      22.411   1.412  51.738  1.00  0.00     0.041 A 
HETATM   14  C9  UNL     1      19.820   2.145  51.685  1.00  0.00     0.236 A 
HETATM   15  N3  UNL     1      20.688   2.496  50.736  1.00  0.00    -0.224 NA
HETATM   16  C10 UNL     1      21.966   2.180  50.689  1.00  0.00     0.142 A 
HETATM   17  C18 UNL     1      23.700   0.958  51.909  1.00  0.00     0.047 A 
BRANCH  16  18
HETATM   18  N4  UNL     1      22.889   2.550  49.685  1.00  0.00    -0.340 N 
HETATM   19  H8  UNL     1      22.971   2.040  48.797  1.00  0.00     0.167 HD
BRANCH  18  20
HETATM   20  C11 UNL     1      23.826   3.611  49.680  1.00  0.00     0.035 A 
HETATM   21  C12 UNL     1      25.172   3.504  49.334  1.00  0.00     0.029 A 
HETATM   22  C13 UNL     1      26.053   4.549  49.340  1.00  0.00     0.004 A 
HETATM   23  C14 UNL     1      25.650   5.795  49.696  1.00  0.00     0.019 A 
HETATM   24  C15 UNL     1      24.330   5.968  50.050  1.00  0.00     0.013 A 
HETATM   25 BR1  UNL     1      23.808   7.736  50.543  1.00  0.00    -0.051 Br
HETATM   26  C16 UNL     1      23.477   4.885  50.029  1.00  0.00     0.048 A 
ENDBRANCH  18  20
ENDBRANCH  16  18
ENDBRANCH   6   8
ENDBRANCH   3   4
TORSDOF 4
ENDMDL
MODEL 5
REMARK VINA RESULT:      -7.7      3.025      6.224
REMARK  4 active torsions:
REMARK  status: ('A' for Active; 'I' for Inactive)
REMARK    1  A    between atoms: C3_3  and  C4_4 
REMARK       I    between atoms: C4_4  and  N1_6 
REMARK    2  A    between atoms: N1_6  and  C5_7 
REMARK    3  A    between atoms: C10_14  and  N4_15 
REMARK    4  A    between atoms: N4_15  and  C11_16 
ROOT
HETATM    1  C1  UNL     1      28.402   6.539  47.767  1.00  0.00     0.112 C 
HETATM    2  C2  UNL     1      27.723   5.459  48.490  1.00  0.00    -0.101 C 
HETATM    3  C3  UNL     1      27.144   4.564  49.095  1.00  0.00    -0.006 C 
ENDROOT
BRANCH   3   4
HETATM    4  C4  UNL     1      26.454   3.531  49.817  1.00  0.00     0.300 C 
HETATM    5  O1  UNL     1      25.488   2.957  49.249  1.00  0.00    -0.258 OA
HETATM    6  N1  UNL     1      26.938   3.250  51.134  1.00  0.00    -0.316 N 
HETATM    7  H4  UNL     1      27.747   3.775  51.531  1.00  0.00     0.170 HD
BRANCH   6   8
HETATM    8  C5  UNL     1      26.301   2.239  51.908  1.00  0.00     0.036 A 
HETATM    9  C6  UNL     1      27.067   1.338  52.613  1.00  0.00     0.032 A 
HETATM   10  C7  UNL     1      26.422   0.369  53.353  1.00  0.00     0.035 A 
HETATM   11  C8  UNL     1      25.055   0.319  53.375  1.00  0.00     0.072 A 
HETATM   12  N2  UNL     1      24.505  -0.654  54.119  1.00  0.00    -0.241 NA
HETATM   13  C17 UNL     1      24.235   1.185  52.696  1.00  0.00     0.041 A 
HETATM   14  C9  UNL     1      23.169  -0.778  54.199  1.00  0.00     0.236 A 
HETATM   15  N3  UNL     1      22.425   0.093  53.518  1.00  0.00    -0.224 NA
HETATM   16  C10 UNL     1      22.867   1.078  52.763  1.00  0.00     0.142 A 
HETATM   17  C18 UNL     1      24.930   2.130  51.975  1.00  0.00     0.047 A 
BRANCH  16  18
HETATM   18  N4  UNL     1      22.081   2.003  52.039  1.00  0.00    -0.340 N 
HETATM   19  H8  UNL     1      21.464   2.681  52.500  1.00  0.00     0.167 HD
BRANCH  18  20
HETATM   20  C11 UNL     1      21.979   2.183  50.639  1.00  0.00     0.035 A 
HETATM   21  C12 UNL     1      21.750   1.173  49.706  1.00  0.00     0.029 A 
HETATM   22  C13 UNL     1      21.656   1.377  48.358  1.00  0.00     0.004 A 
HETATM   23  C14 UNL     1      21.785   2.623  47.834  1.00  0.00     0.019 A 
HETATM   24  C15 UNL     1      22.013   3.666  48.705  1.00  0.00     0.013 A 
HETATM   25 BR1  UNL     1      22.187   5.399  47.924  1.00  0.00    -0.051 Br
HETATM   26  C16 UNL     1      22.099   3.413  50.056  1.00  0.00     0.048 A 
ENDBRANCH  18  20
ENDBRANCH  16  18
ENDBRANCH   6   8
ENDBRANCH   3   4
TORSDOF 4
ENDMDL
MODEL 6
REMARK VINA RESULT:      -7.6      3.533      7.529
REMARK  4 active torsions:
REMARK  status: ('A' for Active; 'I' for Inactive)
REMARK    1  A    between atoms: C3_3  and  C4_4 
REMARK       I    between atoms: C4_4  and  N1_6 
REMARK    2  A    between atoms: N1_6  and  C5_7 
REMARK    3  A    between atoms: C10_14  and  N4_15 
REMARK    4  A    between atoms: N4_15  and  C11_16 
ROOT
HETATM    1  C1  UNL     1      28.068   9.673  49.501  1.00  0.00     0.112 C 
HETATM    2  C2  UNL     1      27.126   8.589  49.798  1.00  0.00    -0.101 C 
HETATM    3  C3  UNL     1      26.332   7.686  50.035  1.00  0.00    -0.006 C 
ENDROOT
BRANCH   3   4
HETATM    4  C4  UNL     1      25.383   6.641  50.302  1.00  0.00     0.300 C 
HETATM    5  O1  UNL     1      24.272   6.963  50.797  1.00  0.00    -0.258 OA
HETATM    6  N1  UNL     1      25.800   5.312  49.976  1.00  0.00    -0.316 N 
HETATM    7  H4  UNL     1      26.743   5.131  49.567  1.00  0.00     0.170 HD
BRANCH   6   8
HETATM    8  C5  UNL     1      24.912   4.225  50.214  1.00  0.00     0.036 A 
HETATM    9  C6  UNL     1      23.904   3.959  49.314  1.00  0.00     0.032 A 
HETATM   10  C7  UNL     1      23.059   2.900  49.573  1.00  0.00     0.035 A 
HETATM   11  C8  UNL     1      23.231   2.144  50.700  1.00  0.00     0.072 A 
HETATM   12  N2  UNL     1      22.366   1.132  50.878  1.00  0.00    -0.241 NA
HETATM   13  C17 UNL     1      24.213   2.356  51.635  1.00  0.00     0.041 A 
HETATM   14  C9  UNL     1      22.461   0.337  51.957  1.00  0.00     0.236 A 
HETATM   15  N3  UNL     1      23.435   0.592  52.830  1.00  0.00    -0.224 NA
HETATM   16  C10 UNL     1      24.330   1.556  52.746  1.00  0.00     0.142 A 
HETATM   17  C18 UNL     1      25.027   3.423  51.328  1.00  0.00     0.047 A 
BRANCH  16  18
HETATM   18  N4  UNL     1      25.363   1.829  53.669  1.00  0.00    -0.340 N 
HETATM   19  H8  UNL     1      25.218   2.413  54.501  1.00  0.00     0.167 HD
BRANCH  18  20
HETATM   20  C11 UNL     1      26.711   1.399  53.653  1.00  0.00     0.035 A 
HETATM   21  C12 UNL     1      27.825   2.211  53.857  1.00  0.00     0.029 A 
HETATM   22  C13 UNL     1      29.117   1.766  53.835  1.00  0.00     0.004 A 
HETATM   23  C14 UNL     1      29.396   0.457  53.606  1.00  0.00     0.019 A 
HETATM   24  C15 UNL     1      28.338  -0.399  53.396  1.00  0.00     0.013 A 
HETATM   25 BR1  UNL     1      28.778  -2.228  53.078  1.00  0.00    -0.051 Br
HETATM   26  C16 UNL     1      27.052   0.095  53.428  1.00  0.00     0.048 A 
ENDBRANCH  18  20
ENDBRANCH  16  18
ENDBRANCH   6   8
ENDBRANCH   3   4
TORSDOF 4
ENDMDL
MODEL 7
REMARK VINA RESULT:      -7.6      5.321     10.126
REMARK  4 active torsions:
REMARK  status: ('A' for Active; 'I' for Inactive)
REMARK    1  A    between atoms: C3_3  and  C4_4 
REMARK       I    between atoms: C4_4  and  N1_6 
REMARK    2  A    between atoms: N1_6  and  C5_7 
REMARK    3  A    between atoms: C10_14  and  N4_15 
REMARK    4  A    between atoms: N4_15  and  C11_16 
ROOT
HETATM    1  C1  UNL     1      34.937   3.367  46.936  1.00  0.00     0.112 C 
HETATM    2  C2  UNL     1      33.729   3.981  47.499  1.00  0.00    -0.101 C 
HETATM    3  C3  UNL     1      32.716   4.496  47.956  1.00  0.00    -0.006 C 
ENDROOT
BRANCH   3   4
HETATM    4  C4  UNL     1      31.528   5.116  48.474  1.00  0.00     0.300 C 
HETATM    5  O1  UNL     1      31.532   5.488  49.677  1.00  0.00    -0.258 OA
HETATM    6  N1  UNL     1      30.437   5.253  47.559  1.00  0.00    -0.316 N 
HETATM    7  H4  UNL     1      30.517   4.916  46.575  1.00  0.00     0.170 HD
BRANCH   6   8
HETATM    8  C5  UNL     1      29.227   5.858  48.004  1.00  0.00     0.036 A 
HETATM    9  C6  UNL     1      29.082   7.225  47.930  1.00  0.00     0.032 A 
HETATM   10  C7  UNL     1      27.899   7.782  48.369  1.00  0.00     0.035 A 
HETATM   11  C8  UNL     1      26.905   6.982  48.863  1.00  0.00     0.072 A 
HETATM   12  N2  UNL     1      25.786   7.603  49.270  1.00  0.00    -0.241 NA
HETATM   13  C17 UNL     1      26.987   5.616  48.964  1.00  0.00     0.041 A 
HETATM   14  C9  UNL     1      24.758   6.895  49.769  1.00  0.00     0.236 A 
HETATM   15  N3  UNL     1      24.895   5.571  49.842  1.00  0.00    -0.224 NA
HETATM   16  C10 UNL     1      25.948   4.872  49.471  1.00  0.00     0.142 A 
HETATM   17  C18 UNL     1      28.187   5.113  48.513  1.00  0.00     0.047 A 
BRANCH  16  18
HETATM   18  N4  UNL     1      26.098   3.469  49.547  1.00  0.00    -0.340 N 
HETATM   19  H8  UNL     1      26.483   2.913  48.775  1.00  0.00     0.167 HD
BRANCH  18  20
HETATM   20  C11 UNL     1      25.777   2.594  50.613  1.00  0.00     0.035 A 
HETATM   21  C12 UNL     1      26.695   1.873  51.375  1.00  0.00     0.029 A 
HETATM   22  C13 UNL     1      26.354   1.035  52.399  1.00  0.00     0.004 A 
HETATM   23  C14 UNL     1      25.053   0.853  52.744  1.00  0.00     0.019 A 
HETATM   24  C15 UNL     1      24.096   1.538  52.028  1.00  0.00     0.013 A 
HETATM   25 BR1  UNL     1      22.283   1.251  52.548  1.00  0.00    -0.051 Br
HETATM   26  C16 UNL     1      24.487   2.373  51.004  1.00  0.00     0.048 A 
ENDBRANCH  18  20
ENDBRANCH  16  18
ENDBRANCH   6   8
ENDBRANCH   3   4
TORSDOF 4
ENDMDL
MODEL 8
REMARK VINA RESULT:      -7.5      3.381      6.862
REMARK  4 active torsions:
REMARK  status: ('A' for Active; 'I' for Inactive)
REMARK    1  A    between atoms: C3_3  and  C4_4 
REMARK       I    between atoms: C4_4  and  N1_6 
REMARK    2  A    between atoms: N1_6  and  C5_7 
REMARK    3  A    between atoms: C10_14  and  N4_15 
REMARK    4  A    between atoms: N4_15  and  C11_16 
ROOT
HETATM    1  C1  UNL     1      27.781   6.504  47.836  1.00  0.00     0.112 C 
HETATM    2  C2  UNL     1      27.231   5.423  48.661  1.00  0.00    -0.101 C 
HETATM    3  C3  UNL     1      26.784   4.514  49.350  1.00  0.00    -0.006 C 
ENDROOT
BRANCH   3   4
HETATM    4  C4  UNL     1      26.274   3.433  50.148  1.00  0.00     0.300 C 
HETATM    5  O1  UNL     1      25.242   2.836  49.744  1.00  0.00    -0.258 OA
HETATM    6  N1  UNL     1      27.001   3.134  51.344  1.00  0.00    -0.316 N 
HETATM    7  H4  UNL     1      27.850   3.681  51.606  1.00  0.00     0.170 HD
BRANCH   6   8
HETATM    8  C5  UNL     1      26.553   2.076  52.183  1.00  0.00     0.036 A 
HETATM    9  C6  UNL     1      27.475   1.279  52.825  1.00  0.00     0.032 A 
HETATM   10  C7  UNL     1      27.010   0.261  53.632  1.00  0.00     0.035 A 
HETATM   11  C8  UNL     1      25.665   0.061  53.779  1.00  0.00     0.072 A 
HETATM   12  N2  UNL     1      25.296  -0.951  54.581  1.00  0.00    -0.241 NA
HETATM   13  C17 UNL     1      24.696   0.818  53.169  1.00  0.00     0.041 A 
HETATM   14  C9  UNL     1      23.995  -1.219  54.785  1.00  0.00     0.236 A 
HETATM   15  N3  UNL     1      23.100  -0.450  54.165  1.00  0.00    -0.224 NA
HETATM   16  C10 UNL     1      23.360   0.562  53.362  1.00  0.00     0.142 A 
HETATM   17  C18 UNL     1      25.214   1.818  52.377  1.00  0.00     0.047 A 
BRANCH  16  18
HETATM   18  N4  UNL     1      22.414   1.379  52.703  1.00  0.00    -0.340 N 
HETATM   19  H8  UNL     1      22.535   2.395  52.608  1.00  0.00     0.167 HD
BRANCH  18  20
HETATM   20  C11 UNL     1      21.196   1.012  52.082  1.00  0.00     0.035 A 
HETATM   21  C12 UNL     1      20.795   1.384  50.800  1.00  0.00     0.029 A 
HETATM   22  C13 UNL     1      19.611   1.013  50.227  1.00  0.00     0.004 A 
HETATM   23  C14 UNL     1      18.728   0.233  50.900  1.00  0.00     0.019 A 
HETATM   24  C15 UNL     1      19.066  -0.169  52.174  1.00  0.00     0.013 A 
HETATM   25 BR1  UNL     1      17.795  -1.264  53.083  1.00  0.00    -0.051 Br
HETATM   26  C16 UNL     1      20.271   0.229  52.711  1.00  0.00     0.048 A 
ENDBRANCH  18  20
ENDBRANCH  16  18
ENDBRANCH   6   8
ENDBRANCH   3   4
TORSDOF 4
ENDMDL
MODEL 9
REMARK VINA RESULT:      -7.3      2.749      5.774
REMARK  4 active torsions:
REMARK  status: ('A' for Active; 'I' for Inactive)
REMARK    1  A    between atoms: C3_3  and  C4_4 
REMARK       I    between atoms: C4_4  and  N1_6 
REMARK    2  A    between atoms: N1_6  and  C5_7 
REMARK    3  A    between atoms: C10_14  and  N4_15 
REMARK    4  A    between atoms: N4_15  and  C11_16 
ROOT
HETATM    1  C1  UNL     1      29.060  -0.541  54.024  1.00  0.00     0.112 C 
HETATM    2  C2  UNL     1      27.659  -0.186  53.776  1.00  0.00    -0.101 C 
HETATM    3  C3  UNL     1      26.484   0.100  53.576  1.00  0.00    -0.006 C 
ENDROOT
BRANCH   3   4
HETATM    4  C4  UNL     1      25.102   0.412  53.343  1.00  0.00     0.300 C 
HETATM    5  O1  UNL     1      24.794   1.614  53.131  1.00  0.00    -0.258 OA
HETATM    6  N1  UNL     1      24.192  -0.692  53.374  1.00  0.00    -0.316 N 
HETATM    7  H4  UNL     1      24.531  -1.662  53.557  1.00  0.00     0.170 HD
BRANCH   6   8
HETATM    8  C5  UNL     1      22.805  -0.457  53.151  1.00  0.00     0.036 A 
HETATM    9  C6  UNL     1      21.900  -0.715  54.157  1.00  0.00     0.032 A 
HETATM   10  C7  UNL     1      20.564  -0.478  53.911  1.00  0.00     0.035 A 
HETATM   11  C8  UNL     1      20.165   0.001  52.693  1.00  0.00     0.072 A 
HETATM   12  N2  UNL     1      18.847   0.205  52.535  1.00  0.00    -0.241 NA
HETATM   13  C17 UNL     1      21.014   0.278  51.651  1.00  0.00     0.041 A 
HETATM   14  C9  UNL     1      18.365   0.674  51.371  1.00  0.00     0.236 A 
HETATM   15  N3  UNL     1      19.238   0.924  50.395  1.00  0.00    -0.224 NA
HETATM   16  C10 UNL     1      20.544   0.759  50.452  1.00  0.00     0.142 A 
HETATM   17  C18 UNL     1      22.333   0.024  51.950  1.00  0.00     0.047 A 
BRANCH  16  18
HETATM   18  N4  UNL     1      21.473   1.022  49.421  1.00  0.00    -0.340 N 
HETATM   19  H8  UNL     1      21.883   0.277  48.845  1.00  0.00     0.167 HD
BRANCH  18  20
HETATM   20  C11 UNL     1      22.000   2.263  48.990  1.00  0.00     0.035 A 
HETATM   21  C12 UNL     1      21.403   3.123  48.069  1.00  0.00     0.029 A 
HETATM   22  C13 UNL     1      21.937   4.317  47.673  1.00  0.00     0.004 A 
HETATM   23  C14 UNL     1      23.123   4.747  48.174  1.00  0.00     0.019 A 
HETATM   24  C15 UNL     1      23.765   3.943  49.090  1.00  0.00     0.013 A 
HETATM   25 BR1  UNL     1      25.428   4.588  49.767  1.00  0.00    -0.051 Br
HETATM   26  C16 UNL     1      23.188   2.747  49.461  1.00  0.00     0.048 A 
ENDBRANCH  18  20
ENDBRANCH  16  18
ENDBRANCH   6   8
ENDBRANCH   3   4
TORSDOF 4
ENDMDL
