MODEL 1
REMARK VINA RESULT:      -9.8      0.000      0.000
REMARK  3 active torsions:
REMARK  status: ('A' for Active; 'I' for Inactive)
REMARK    1  A    between atoms: C3_7  and  S1_8 
REMARK    2  A    between atoms: S1_8  and  C4_9 
REMARK    3  A    between atoms: C13_20  and  C14_21 
ROOT
HETATM    1  O1  UNL     1      25.750  -1.024  54.806  1.00  0.00    -0.265 OA
HETATM    2  C1  UNL     1      25.463  -0.166  53.940  1.00  0.00     0.281 A 
HETATM    3  N1  UNL     1      24.165   0.124  53.869  1.00  0.00    -0.203 NA
HETATM    4  C2  UNL     1      23.710   1.023  52.992  1.00  0.00     0.239 A 
HETATM    5  N2  UNL     1      24.552   1.657  52.161  1.00  0.00    -0.225 N 
HETATM    6  N3  UNL     1      24.149   2.545  51.304  1.00  0.00    -0.159 NA
HETATM    7  C3  UNL     1      24.919   3.223  50.461  1.00  0.00     0.119 A 
HETATM    8  C10 UNL     1      26.288   2.934  50.522  1.00  0.00     0.043 A 
HETATM    9  C11 UNL     1      26.761   1.998  51.416  1.00  0.00     0.036 A 
HETATM   10  C12 UNL     1      25.859   1.365  52.234  1.00  0.00     0.076 A 
HETATM   11  C13 UNL     1      26.366   0.457  53.109  1.00  0.00     0.076 A 
ENDROOT
BRANCH   7  12
HETATM   12  S1  UNL     1      24.475   4.454  49.255  1.00  0.00    -0.066 SA
BRANCH  12  13
HETATM   13  C4  UNL     1      25.650   5.792  49.217  1.00  0.00     0.045 A 
HETATM   14  C5  UNL     1      26.781   5.978  48.451  1.00  0.00     0.025 A 
HETATM   15  C6  UNL     1      27.554   7.108  48.591  1.00  0.00     0.044 A 
HETATM   16  C7  UNL     1      27.236   8.109  49.505  1.00  0.00     0.119 A 
HETATM   17  F1  UNL     1      28.076   9.164  49.545  1.00  0.00    -0.206 F 
HETATM   18  C8  UNL     1      26.107   7.923  50.269  1.00  0.00     0.086 A 
HETATM   19  C9  UNL     1      25.318   6.783  50.136  1.00  0.00     0.136 A 
HETATM   20  F2  UNL     1      24.248   6.796  50.984  1.00  0.00    -0.205 F 
ENDBRANCH  12  13
ENDBRANCH   7  12
BRANCH  11  21
HETATM   21  C14 UNL     1      27.741   0.030  53.315  1.00  0.00     0.026 A 
HETATM   22  C15 UNL     1      28.822   0.649  53.791  1.00  0.00     0.048 A 
HETATM   23 CL1  UNL     1      29.284   2.221  54.423  1.00  0.00    -0.083 Cl
HETATM   24  C16 UNL     1      29.938  -0.300  53.763  1.00  0.00     0.038 A 
HETATM   25  C17 UNL     1      29.471  -1.420  53.229  1.00  0.00     0.000 A 
HETATM   26  C18 UNL     1      28.172  -1.344  52.978  1.00  0.00     0.058 A 
HETATM   27 CL2  UNL     1      27.173  -2.643  52.363  1.00  0.00    -0.082 Cl
ENDBRANCH  11  21
TORSDOF 3
ENDMDL
MODEL 2
REMARK VINA RESULT:      -9.3      4.302      7.657
REMARK  3 active torsions:
REMARK  status: ('A' for Active; 'I' for Inactive)
REMARK    1  A    between atoms: C3_7  and  S1_8 
REMARK    2  A    between atoms: S1_8  and  C4_9 
REMARK    3  A    between atoms: C13_20  and  C14_21 
ROOT
HETATM    1  O1  UNL     1      22.945   5.121  47.871  1.00  0.00    -0.265 OA
HETATM    2  C1  UNL     1      23.180   4.245  48.735  1.00  0.00     0.281 A 
HETATM    3  N1  UNL     1      22.384   3.180  48.661  1.00  0.00    -0.203 NA
HETATM    4  C2  UNL     1      22.516   2.164  49.519  1.00  0.00     0.239 A 
HETATM    5  N2  UNL     1      23.458   2.193  50.475  1.00  0.00    -0.225 N 
HETATM    6  N3  UNL     1      23.625   1.220  51.318  1.00  0.00    -0.159 NA
HETATM    7  C3  UNL     1      24.538   1.167  52.281  1.00  0.00     0.119 A 
HETATM    8  C10 UNL     1      25.387   2.279  52.373  1.00  0.00     0.043 A 
HETATM    9  C11 UNL     1      25.246   3.335  51.500  1.00  0.00     0.036 A 
HETATM   10  C12 UNL     1      24.258   3.266  50.549  1.00  0.00     0.076 A 
HETATM   11  C13 UNL     1      24.159   4.323  49.699  1.00  0.00     0.076 A 
ENDROOT
BRANCH   7  12
HETATM   12  S1  UNL     1      24.854  -0.107  53.481  1.00  0.00    -0.066 SA
BRANCH  12  13
HETATM   13  C4  UNL     1      26.597  -0.310  53.783  1.00  0.00     0.045 A 
HETATM   14  C5  UNL     1      27.430   0.294  54.700  1.00  0.00     0.025 A 
HETATM   15  C6  UNL     1      28.769  -0.021  54.756  1.00  0.00     0.044 A 
HETATM   16  C7  UNL     1      29.343  -0.955  53.897  1.00  0.00     0.119 A 
HETATM   17  F1  UNL     1      30.665  -1.172  54.055  1.00  0.00    -0.206 F 
HETATM   18  C8  UNL     1      28.511  -1.558  52.982  1.00  0.00     0.086 A 
HETATM   19  C9  UNL     1      27.155  -1.247  52.917  1.00  0.00     0.136 A 
HETATM   20  F2  UNL     1      26.511  -1.954  51.943  1.00  0.00    -0.205 F 
ENDBRANCH  12  13
ENDBRANCH   7  12
BRANCH  11  21
HETATM   21  C14 UNL     1      24.940   5.548  49.642  1.00  0.00     0.026 A 
HETATM   22  C15 UNL     1      26.168   5.821  49.202  1.00  0.00     0.048 A 
HETATM   23 CL1  UNL     1      27.535   4.994  48.472  1.00  0.00    -0.083 Cl
HETATM   24  C16 UNL     1      26.415   7.252  49.403  1.00  0.00     0.038 A 
HETATM   25  C17 UNL     1      25.335   7.744  49.994  1.00  0.00     0.000 A 
HETATM   26  C18 UNL     1      24.387   6.829  50.134  1.00  0.00     0.058 A 
HETATM   27 CL2  UNL     1      22.784   7.108  50.779  1.00  0.00    -0.082 Cl
ENDBRANCH  11  21
TORSDOF 3
ENDMDL
MODEL 3
REMARK VINA RESULT:      -9.2      4.311      7.601
REMARK  3 active torsions:
REMARK  status: ('A' for Active; 'I' for Inactive)
REMARK    1  A    between atoms: C3_7  and  S1_8 
REMARK    2  A    between atoms: S1_8  and  C4_9 
REMARK    3  A    between atoms: C13_20  and  C14_21 
ROOT
HETATM    1  O1  UNL     1      22.855   5.140  47.827  1.00  0.00    -0.265 OA
HETATM    2  C1  UNL     1      23.094   4.269  48.695  1.00  0.00     0.281 A 
HETATM    3  N1  UNL     1      22.381   3.153  48.558  1.00  0.00    -0.203 NA
HETATM    4  C2  UNL     1      22.529   2.135  49.411  1.00  0.00     0.239 A 
HETATM    5  N2  UNL     1      23.403   2.214  50.427  1.00  0.00    -0.225 N 
HETATM    6  N3  UNL     1      23.584   1.242  51.268  1.00  0.00    -0.159 NA
HETATM    7  C3  UNL     1      24.435   1.238  52.287  1.00  0.00     0.119 A 
HETATM    8  C10 UNL     1      25.196   2.403  52.446  1.00  0.00     0.043 A 
HETATM    9  C11 UNL     1      25.038   3.461  51.578  1.00  0.00     0.036 A 
HETATM   10  C12 UNL     1      24.121   3.338  50.564  1.00  0.00     0.076 A 
HETATM   11  C13 UNL     1      24.002   4.399  49.721  1.00  0.00     0.076 A 
ENDROOT
BRANCH   7  12
HETATM   12  S1  UNL     1      24.762  -0.031  53.491  1.00  0.00    -0.066 SA
BRANCH  12  13
HETATM   13  C4  UNL     1      26.507  -0.231  53.779  1.00  0.00     0.045 A 
HETATM   14  C5  UNL     1      27.354   0.401  54.665  1.00  0.00     0.025 A 
HETATM   15  C6  UNL     1      28.692   0.083  54.717  1.00  0.00     0.044 A 
HETATM   16  C7  UNL     1      29.252  -0.884  53.885  1.00  0.00     0.119 A 
HETATM   17  F1  UNL     1      30.574  -1.101  54.035  1.00  0.00    -0.206 F 
HETATM   18  C8  UNL     1      28.407  -1.515  53.001  1.00  0.00     0.086 A 
HETATM   19  C9  UNL     1      27.051  -1.200  52.940  1.00  0.00     0.136 A 
HETATM   20  F2  UNL     1      26.393  -1.939  52.000  1.00  0.00    -0.205 F 
ENDBRANCH  12  13
ENDBRANCH   7  12
BRANCH  11  21
HETATM   21  C14 UNL     1      24.698   5.676  49.729  1.00  0.00     0.026 A 
HETATM   22  C15 UNL     1      24.324   6.911  50.064  1.00  0.00     0.048 A 
HETATM   23 CL1  UNL     1      22.903   7.757  50.656  1.00  0.00    -0.083 Cl
HETATM   24  C16 UNL     1      25.471   7.802  49.865  1.00  0.00     0.038 A 
HETATM   25  C17 UNL     1      26.453   7.055  49.380  1.00  0.00     0.000 A 
HETATM   26  C18 UNL     1      26.113   5.776  49.310  1.00  0.00     0.058 A 
HETATM   27 CL2  UNL     1      27.161   4.466  48.814  1.00  0.00    -0.082 Cl
ENDBRANCH  11  21
TORSDOF 3
ENDMDL
MODEL 4
REMARK VINA RESULT:      -9.0      4.686      7.599
REMARK  3 active torsions:
REMARK  status: ('A' for Active; 'I' for Inactive)
REMARK    1  A    between atoms: C3_7  and  S1_8 
REMARK    2  A    between atoms: S1_8  and  C4_9 
REMARK    3  A    between atoms: C13_20  and  C14_21 
ROOT
HETATM    1  O1  UNL     1      19.857   4.714  50.784  1.00  0.00    -0.265 OA
HETATM    2  C1  UNL     1      20.529   3.815  51.339  1.00  0.00     0.281 A 
HETATM    3  N1  UNL     1      19.868   3.141  52.279  1.00  0.00    -0.203 NA
HETATM    4  C2  UNL     1      20.457   2.151  52.956  1.00  0.00     0.239 A 
HETATM    5  N2  UNL     1      21.731   1.812  52.704  1.00  0.00    -0.225 N 
HETATM    6  N3  UNL     1      22.334   0.849  53.333  1.00  0.00    -0.159 NA
HETATM    7  C3  UNL     1      23.583   0.446  53.133  1.00  0.00     0.119 A 
HETATM    8  C10 UNL     1      24.294   1.141  52.146  1.00  0.00     0.043 A 
HETATM    9  C11 UNL     1      23.695   2.171  51.453  1.00  0.00     0.036 A 
HETATM   10  C12 UNL     1      22.396   2.491  51.758  1.00  0.00     0.076 A 
HETATM   11  C13 UNL     1      21.837   3.505  51.045  1.00  0.00     0.076 A 
ENDROOT
BRANCH   7  12
HETATM   12  S1  UNL     1      24.500  -0.853  53.930  1.00  0.00    -0.066 SA
BRANCH  12  13
HETATM   13  C4  UNL     1      26.242  -0.487  53.992  1.00  0.00     0.045 A 
HETATM   14  C5  UNL     1      26.951   0.391  54.783  1.00  0.00     0.025 A 
HETATM   15  C6  UNL     1      28.317   0.514  54.658  1.00  0.00     0.044 A 
HETATM   16  C7  UNL     1      29.042  -0.236  53.734  1.00  0.00     0.119 A 
HETATM   17  F1  UNL     1      30.373  -0.021  53.712  1.00  0.00    -0.206 F 
HETATM   18  C8  UNL     1      28.333  -1.113  52.945  1.00  0.00     0.086 A 
HETATM   19  C9  UNL     1      26.951  -1.244  53.064  1.00  0.00     0.136 A 
HETATM   20  F2  UNL     1      26.445  -2.164  52.192  1.00  0.00    -0.205 F 
ENDBRANCH  12  13
ENDBRANCH   7  12
BRANCH  11  21
HETATM   21  C14 UNL     1      22.412   4.332  49.996  1.00  0.00     0.026 A 
HETATM   22  C15 UNL     1      22.994   5.532  50.002  1.00  0.00     0.048 A 
HETATM   23 CL1  UNL     1      23.419   6.798  51.142  1.00  0.00    -0.083 Cl
HETATM   24  C16 UNL     1      23.382   5.856  48.626  1.00  0.00     0.038 A 
HETATM   25  C17 UNL     1      22.969   4.849  47.868  1.00  0.00     0.000 A 
HETATM   26  C18 UNL     1      22.429   3.876  48.589  1.00  0.00     0.058 A 
HETATM   27 CL2  UNL     1      21.854   2.344  47.969  1.00  0.00    -0.082 Cl
ENDBRANCH  11  21
TORSDOF 3
ENDMDL
MODEL 5
REMARK VINA RESULT:      -8.9      4.890      8.166
REMARK  3 active torsions:
REMARK  status: ('A' for Active; 'I' for Inactive)
REMARK    1  A    between atoms: C3_7  and  S1_8 
REMARK    2  A    between atoms: S1_8  and  C4_9 
REMARK    3  A    between atoms: C13_20  and  C14_21 
ROOT
HETATM    1  O1  UNL     1      24.532   5.966  48.287  1.00  0.00    -0.265 OA
HETATM    2  C1  UNL     1      24.699   4.994  49.060  1.00  0.00     0.281 A 
HETATM    3  N1  UNL     1      25.976   4.705  49.303  1.00  0.00    -0.203 NA
HETATM    4  C2  UNL     1      26.309   3.693  50.110  1.00  0.00     0.239 A 
HETATM    5  N2  UNL     1      25.361   2.945  50.697  1.00  0.00    -0.225 N 
HETATM    6  N3  UNL     1      25.645   1.962  51.497  1.00  0.00    -0.159 NA
HETATM    7  C3  UNL     1      24.768   1.187  52.124  1.00  0.00     0.119 A 
HETATM    8  C10 UNL     1      23.419   1.478  51.883  1.00  0.00     0.043 A 
HETATM    9  C11 UNL     1      23.071   2.512  51.041  1.00  0.00     0.036 A 
HETATM   10  C12 UNL     1      24.076   3.238  50.453  1.00  0.00     0.076 A 
HETATM   11  C13 UNL     1      23.692   4.256  49.637  1.00  0.00     0.076 A 
ENDROOT
BRANCH   7  12
HETATM   12  S1  UNL     1      25.045  -0.176  53.234  1.00  0.00    -0.066 SA
BRANCH  12  13
HETATM   13  C4  UNL     1      26.775  -0.388  53.598  1.00  0.00     0.045 A 
HETATM   14  C5  UNL     1      27.615   0.321  54.429  1.00  0.00     0.025 A 
HETATM   15  C6  UNL     1      28.942  -0.025  54.559  1.00  0.00     0.044 A 
HETATM   16  C7  UNL     1      29.495  -1.097  53.864  1.00  0.00     0.119 A 
HETATM   17  F1  UNL     1      30.805  -1.331  54.079  1.00  0.00    -0.206 F 
HETATM   18  C8  UNL     1      28.655  -1.805  53.035  1.00  0.00     0.086 A 
HETATM   19  C9  UNL     1      27.312  -1.463  52.895  1.00  0.00     0.136 A 
HETATM   20  F2  UNL     1      26.658  -2.289  52.028  1.00  0.00    -0.205 F 
ENDBRANCH  12  13
ENDBRANCH   7  12
BRANCH  11  21
HETATM   21  C14 UNL     1      22.357   4.703  49.272  1.00  0.00     0.026 A 
HETATM   22  C15 UNL     1      21.559   5.662  49.744  1.00  0.00     0.048 A 
HETATM   23 CL1  UNL     1      21.563   6.903  50.987  1.00  0.00    -0.083 Cl
HETATM   24  C16 UNL     1      20.317   5.643  48.968  1.00  0.00     0.038 A 
HETATM   25  C17 UNL     1      20.424   4.643  48.103  1.00  0.00     0.000 A 
HETATM   26  C18 UNL     1      21.612   4.058  48.169  1.00  0.00     0.058 A 
HETATM   27 CL2  UNL     1      22.173   2.766  47.131  1.00  0.00    -0.082 Cl
ENDBRANCH  11  21
TORSDOF 3
ENDMDL
MODEL 6
REMARK VINA RESULT:      -8.7      4.475      5.498
REMARK  3 active torsions:
REMARK  status: ('A' for Active; 'I' for Inactive)
REMARK    1  A    between atoms: C3_7  and  S1_8 
REMARK    2  A    between atoms: S1_8  and  C4_9 
REMARK    3  A    between atoms: C13_20  and  C14_21 
ROOT
HETATM    1  O1  UNL     1      24.921  -1.272  55.545  1.00  0.00    -0.265 OA
HETATM    2  C1  UNL     1      23.926  -0.987  54.840  1.00  0.00     0.281 A 
HETATM    3  N1  UNL     1      22.763  -1.384  55.354  1.00  0.00    -0.203 NA
HETATM    4  C2  UNL     1      21.614  -1.149  54.713  1.00  0.00     0.239 A 
HETATM    5  N2  UNL     1      21.606  -0.506  53.535  1.00  0.00    -0.225 N 
HETATM    6  N3  UNL     1      20.510  -0.248  52.888  1.00  0.00    -0.159 NA
HETATM    7  C3  UNL     1      20.418   0.392  51.729  1.00  0.00     0.119 A 
HETATM    8  C10 UNL     1      21.632   0.820  51.174  1.00  0.00     0.043 A 
HETATM    9  C11 UNL     1      22.820   0.568  51.824  1.00  0.00     0.036 A 
HETATM   10  C12 UNL     1      22.778  -0.106  53.019  1.00  0.00     0.076 A 
HETATM   11  C13 UNL     1      23.970  -0.325  53.635  1.00  0.00     0.076 A 
ENDROOT
BRANCH   7  12
HETATM   12  S1  UNL     1      18.979   0.797  50.764  1.00  0.00    -0.066 SA
BRANCH  12  13
HETATM   13  C4  UNL     1      19.201   2.310  49.852  1.00  0.00     0.045 A 
HETATM   14  C5  UNL     1      19.413   2.530  48.508  1.00  0.00     0.025 A 
HETATM   15  C6  UNL     1      19.561   3.807  48.014  1.00  0.00     0.044 A 
HETATM   16  C7  UNL     1      19.504   4.928  48.839  1.00  0.00     0.119 A 
HETATM   17  F1  UNL     1      19.664   6.120  48.230  1.00  0.00    -0.206 F 
HETATM   18  C8  UNL     1      19.292   4.707  50.180  1.00  0.00     0.086 A 
HETATM   19  C9  UNL     1      19.143   3.419  50.691  1.00  0.00     0.136 A 
HETATM   20  F2  UNL     1      18.942   3.422  52.041  1.00  0.00    -0.205 F 
ENDBRANCH  12  13
ENDBRANCH   7  12
BRANCH  11  21
HETATM   21  C14 UNL     1      25.314   0.040  53.216  1.00  0.00     0.026 A 
HETATM   22  C15 UNL     1      26.340  -0.667  52.741  1.00  0.00     0.048 A 
HETATM   23 CL1  UNL     1      26.737  -2.330  52.339  1.00  0.00    -0.083 Cl
HETATM   24  C16 UNL     1      27.451   0.256  52.491  1.00  0.00     0.038 A 
HETATM   25  C17 UNL     1      27.040   1.457  52.874  1.00  0.00     0.000 A 
HETATM   26  C18 UNL     1      25.775   1.445  53.270  1.00  0.00     0.058 A 
HETATM   27 CL2  UNL     1      24.843   2.843  53.758  1.00  0.00    -0.082 Cl
ENDBRANCH  11  21
TORSDOF 3
ENDMDL
MODEL 7
REMARK VINA RESULT:      -8.6      5.161      8.200
REMARK  3 active torsions:
REMARK  status: ('A' for Active; 'I' for Inactive)
REMARK    1  A    between atoms: C3_7  and  S1_8 
REMARK    2  A    between atoms: S1_8  and  C4_9 
REMARK    3  A    between atoms: C13_20  and  C14_21 
ROOT
HETATM    1  O1  UNL     1      21.776   5.853  50.154  1.00  0.00    -0.265 OA
HETATM    2  C1  UNL     1      22.266   4.899  50.801  1.00  0.00     0.281 A 
HETATM    3  N1  UNL     1      23.178   5.262  51.701  1.00  0.00    -0.203 NA
HETATM    4  C2  UNL     1      23.787   4.352  52.467  1.00  0.00     0.239 A 
HETATM    5  N2  UNL     1      23.492   3.048  52.347  1.00  0.00    -0.225 N 
HETATM    6  N3  UNL     1      24.053   2.136  53.081  1.00  0.00    -0.159 NA
HETATM    7  C3  UNL     1      23.806   0.832  53.033  1.00  0.00     0.119 A 
HETATM    8  C10 UNL     1      22.847   0.431  52.094  1.00  0.00     0.043 A 
HETATM    9  C11 UNL     1      22.225   1.364  51.292  1.00  0.00     0.036 A 
HETATM   10  C12 UNL     1      22.573   2.683  51.441  1.00  0.00     0.076 A 
HETATM   11  C13 UNL     1      21.930   3.575  50.640  1.00  0.00     0.076 A 
ENDROOT
BRANCH   7  12
HETATM   12  S1  UNL     1      24.510  -0.495  53.986  1.00  0.00    -0.066 SA
BRANCH  12  13
HETATM   13  C4  UNL     1      26.286  -0.385  54.056  1.00  0.00     0.045 A 
HETATM   14  C5  UNL     1      27.112   0.332  54.895  1.00  0.00     0.025 A 
HETATM   15  C6  UNL     1      28.482   0.267  54.766  1.00  0.00     0.044 A 
HETATM   16  C7  UNL     1      29.094  -0.518  53.791  1.00  0.00     0.119 A 
HETATM   17  F1  UNL     1      30.442  -0.493  53.771  1.00  0.00    -0.206 F 
HETATM   18  C8  UNL     1      28.268  -1.233  52.955  1.00  0.00     0.086 A 
HETATM   19  C9  UNL     1      26.881  -1.174  53.076  1.00  0.00     0.136 A 
HETATM   20  F2  UNL     1      26.250  -1.956  52.152  1.00  0.00    -0.205 F 
ENDBRANCH  12  13
ENDBRANCH   7  12
BRANCH  11  21
HETATM   21  C14 UNL     1      20.918   3.348  49.620  1.00  0.00     0.026 A 
HETATM   22  C15 UNL     1      20.989   3.076  48.317  1.00  0.00     0.048 A 
HETATM   23 CL1  UNL     1      22.204   2.833  47.073  1.00  0.00    -0.083 Cl
HETATM   24  C16 UNL     1      19.622   2.948  47.805  1.00  0.00     0.038 A 
HETATM   25  C17 UNL     1      18.810   3.195  48.824  1.00  0.00     0.000 A 
HETATM   26  C18 UNL     1      19.477   3.393  49.952  1.00  0.00     0.058 A 
HETATM   27 CL2  UNL     1      18.765   3.653  51.528  1.00  0.00    -0.082 Cl
ENDBRANCH  11  21
TORSDOF 3
ENDMDL
MODEL 8
REMARK VINA RESULT:      -8.5      2.343      3.536
REMARK  3 active torsions:
REMARK  status: ('A' for Active; 'I' for Inactive)
REMARK    1  A    between atoms: C3_7  and  S1_8 
REMARK    2  A    between atoms: S1_8  and  C4_9 
REMARK    3  A    between atoms: C13_20  and  C14_21 
ROOT
HETATM    1  O1  UNL     1      26.188  -1.623  53.251  1.00  0.00    -0.265 OA
HETATM    2  C1  UNL     1      25.952  -0.477  52.804  1.00  0.00     0.281 A 
HETATM    3  N1  UNL     1      26.933   0.031  52.061  1.00  0.00    -0.203 NA
HETATM    4  C2  UNL     1      26.822   1.246  51.516  1.00  0.00     0.239 A 
HETATM    5  N2  UNL     1      25.716   1.983  51.704  1.00  0.00    -0.225 N 
HETATM    6  N3  UNL     1      25.566   3.162  51.181  1.00  0.00    -0.159 NA
HETATM    7  C3  UNL     1      24.501   3.945  51.309  1.00  0.00     0.119 A 
HETATM    8  C10 UNL     1      23.457   3.425  52.085  1.00  0.00     0.043 A 
HETATM    9  C11 UNL     1      23.571   2.179  52.660  1.00  0.00     0.036 A 
HETATM   10  C12 UNL     1      24.728   1.470  52.452  1.00  0.00     0.076 A 
HETATM   11  C13 UNL     1      24.798   0.240  53.027  1.00  0.00     0.076 A 
ENDROOT
BRANCH   7  12
HETATM   12  S1  UNL     1      24.193   5.564  50.639  1.00  0.00    -0.066 SA
BRANCH  12  13
HETATM   13  C4  UNL     1      25.610   6.197  49.767  1.00  0.00     0.045 A 
HETATM   14  C5  UNL     1      26.531   5.562  48.961  1.00  0.00     0.025 A 
HETATM   15  C6  UNL     1      27.565   6.260  48.379  1.00  0.00     0.044 A 
HETATM   16  C7  UNL     1      27.732   7.629  48.575  1.00  0.00     0.119 A 
HETATM   17  F1  UNL     1      28.785   8.193  47.950  1.00  0.00    -0.206 F 
HETATM   18  C8  UNL     1      26.812   8.262  49.380  1.00  0.00     0.086 A 
HETATM   19  C9  UNL     1      25.763   7.565  49.973  1.00  0.00     0.136 A 
HETATM   20  F2  UNL     1      24.968   8.377  50.730  1.00  0.00    -0.205 F 
ENDBRANCH  12  13
ENDBRANCH   7  12
BRANCH  11  21
HETATM   21  C14 UNL     1      23.827  -0.457  53.855  1.00  0.00     0.026 A 
HETATM   22  C15 UNL     1      23.869  -0.928  55.102  1.00  0.00     0.048 A 
HETATM   23 CL1  UNL     1      24.991  -1.024  56.450  1.00  0.00    -0.083 Cl
HETATM   24  C16 UNL     1      22.571  -1.540  55.400  1.00  0.00     0.038 A 
HETATM   25  C17 UNL     1      21.842  -1.440  54.297  1.00  0.00     0.000 A 
HETATM   26  C18 UNL     1      22.475  -0.771  53.344  1.00  0.00     0.058 A 
HETATM   27 CL2  UNL     1      21.813  -0.348  51.781  1.00  0.00    -0.082 Cl
ENDBRANCH  11  21
TORSDOF 3
ENDMDL
MODEL 9
REMARK VINA RESULT:      -8.4      4.786      8.324
REMARK  3 active torsions:
REMARK  status: ('A' for Active; 'I' for Inactive)
REMARK    1  A    between atoms: C3_7  and  S1_8 
REMARK    2  A    between atoms: S1_8  and  C4_9 
REMARK    3  A    between atoms: C13_20  and  C14_21 
ROOT
HETATM    1  O1  UNL     1      28.347  10.417  48.653  1.00  0.00    -0.265 OA
HETATM    2  C1  UNL     1      27.715   9.379  48.959  1.00  0.00     0.281 A 
HETATM    3  N1  UNL     1      26.671   9.593  49.757  1.00  0.00    -0.203 NA
HETATM    4  C2  UNL     1      25.902   8.580  50.167  1.00  0.00     0.239 A 
HETATM    5  N2  UNL     1      26.165   7.321  49.781  1.00  0.00    -0.225 N 
HETATM    6  N3  UNL     1      25.434   6.312  50.149  1.00  0.00    -0.159 NA
HETATM    7  C3  UNL     1      25.619   5.045  49.800  1.00  0.00     0.119 A 
HETATM    8  C10 UNL     1      26.712   4.801  48.958  1.00  0.00     0.043 A 
HETATM    9  C11 UNL     1      27.516   5.840  48.543  1.00  0.00     0.036 A 
HETATM   10  C12 UNL     1      27.216   7.107  48.977  1.00  0.00     0.076 A 
HETATM   11  C13 UNL     1      28.026   8.107  48.537  1.00  0.00     0.076 A 
ENDROOT
BRANCH   7  12
HETATM   12  S1  UNL     1      24.685   3.596  50.241  1.00  0.00    -0.066 SA
BRANCH  12  13
HETATM   13  C4  UNL     1      25.528   2.618  51.468  1.00  0.00     0.045 A 
HETATM   14  C5  UNL     1      26.580   1.736  51.350  1.00  0.00     0.025 A 
HETATM   15  C6  UNL     1      27.080   1.077  52.452  1.00  0.00     0.044 A 
HETATM   16  C7  UNL     1      26.551   1.268  53.726  1.00  0.00     0.119 A 
HETATM   17  F1  UNL     1      27.130   0.563  54.719  1.00  0.00    -0.206 F 
HETATM   18  C8  UNL     1      25.500   2.149  53.842  1.00  0.00     0.086 A 
HETATM   19  C9  UNL     1      24.987   2.820  52.734  1.00  0.00     0.136 A 
HETATM   20  F2  UNL     1      23.951   3.644  53.066  1.00  0.00    -0.205 F 
ENDBRANCH  12  13
ENDBRANCH   7  12
BRANCH  11  21
HETATM   21  C14 UNL     1      29.192   8.047  47.670  1.00  0.00     0.026 A 
HETATM   22  C15 UNL     1      30.490   7.860  47.907  1.00  0.00     0.048 A 
HETATM   23 CL1  UNL     1      31.569   7.592  49.267  1.00  0.00    -0.083 Cl
HETATM   24  C16 UNL     1      31.197   7.896  46.623  1.00  0.00     0.038 A 
HETATM   25  C17 UNL     1      30.283   8.146  45.694  1.00  0.00     0.000 A 
HETATM   26  C18 UNL     1      29.061   8.202  46.204  1.00  0.00     0.058 A 
HETATM   27 CL2  UNL     1      27.583   8.418  45.293  1.00  0.00    -0.082 Cl
ENDBRANCH  11  21
TORSDOF 3
ENDMDL
