MODEL 1
REMARK VINA RESULT:      -6.7      0.000      0.000
REMARK  8 active torsions:
REMARK  status: ('A' for Active; 'I' for Inactive)
REMARK    1  A    between atoms: C2_2  and  C3_3 
REMARK    2  A    between atoms: C3_3  and  C4_4 
REMARK    3  A    between atoms: C4_4  and  N1_5 
REMARK    4  A    between atoms: N1_5  and  C5_6 
REMARK    5  A    between atoms: N1_5  and  C11_13 
REMARK    6  A    between atoms: C5_6  and  C6_7 
REMARK    7  A    between atoms: C11_13  and  N2_14 
REMARK    8  A    between atoms: C16_19  and  S1_20 
ROOT
HETATM    1  N1  UNL     1      24.326   1.421  53.253  1.00  0.00     0.120 N 
ENDROOT
BRANCH   1   2
HETATM    2  C4  UNL     1      22.932   1.208  53.057  1.00  0.00     0.275 C 
BRANCH   2   3
HETATM    3  C3  UNL     1      22.470  -0.210  53.053  1.00  0.00     0.030 C 
BRANCH   3   4
HETATM    4  C2  UNL     1      21.873  -0.487  54.443  1.00  0.00    -0.003 C 
HETATM    5  C1  UNL     1      22.840  -1.303  55.274  1.00  0.00     0.005 C 
ENDBRANCH   3   4
ENDBRANCH   2   3
ENDBRANCH   1   2
BRANCH   1   6
HETATM    6  C5  UNL     1      25.004   0.274  52.623  1.00  0.00     0.309 C 
BRANCH   6   7
HETATM    7  C6  UNL     1      26.337   0.044  53.217  1.00  0.00    -0.047 A 
HETATM    8  C7  UNL     1      27.500  -0.387  52.731  1.00  0.00     0.028 A 
HETATM    9  C8  UNL     1      28.468  -0.398  53.845  1.00  0.00     0.030 A 
HETATM   10 CL1  UNL     1      30.127  -0.897  53.651  1.00  0.00    -0.085 Cl
HETATM   11  C9  UNL     1      27.871   0.018  54.949  1.00  0.00     0.001 A 
HETATM   12  C10 UNL     1      26.441   0.345  54.664  1.00  0.00     0.065 A 
ENDBRANCH   6   7
ENDBRANCH   1   6
BRANCH   1  13
HETATM   13  C11 UNL     1      24.887   2.582  52.643  1.00  0.00     0.545 C 
BRANCH  13  14
HETATM   14  N2  UNL     1      25.000   2.546  51.213  1.00  0.00     0.137 N 
HETATM   15  C12 UNL     1      26.394   2.895  50.909  1.00  0.00     0.305 C 
HETATM   16  C13 UNL     1      26.506   3.409  49.507  1.00  0.00     0.015 C 
HETATM   17  C14 UNL     1      25.822   4.526  49.319  1.00  0.00    -0.029 C 
HETATM   18  C15 UNL     1      25.020   4.815  50.328  1.00  0.00     0.031 C 
HETATM   19  C16 UNL     1      24.194   3.605  50.626  1.00  0.00     0.308 C 
BRANCH  19  20
HETATM   20  S1  UNL     1      23.407   3.119  49.075  1.00  0.00    -0.143 SA
HETATM   21  H23 UNL     1      22.117   2.626  49.423  1.00  0.00     0.104 HD
ENDBRANCH  19  20
ENDBRANCH  13  14
ENDBRANCH   1  13
TORSDOF 8
ENDMDL
MODEL 2
REMARK VINA RESULT:      -6.6      2.579      4.978
REMARK  8 active torsions:
REMARK  status: ('A' for Active; 'I' for Inactive)
REMARK    1  A    between atoms: C2_2  and  C3_3 
REMARK    2  A    between atoms: C3_3  and  C4_4 
REMARK    3  A    between atoms: C4_4  and  N1_5 
REMARK    4  A    between atoms: N1_5  and  C5_6 
REMARK    5  A    between atoms: N1_5  and  C11_13 
REMARK    6  A    between atoms: C5_6  and  C6_7 
REMARK    7  A    between atoms: C11_13  and  N2_14 
REMARK    8  A    between atoms: C16_19  and  S1_20 
ROOT
HETATM    1  N1  UNL     1      24.236   0.419  52.665  1.00  0.00     0.120 N 
ENDROOT
BRANCH   1   2
HETATM    2  C4  UNL     1      22.976  -0.201  52.899  1.00  0.00     0.275 C 
BRANCH   2   3
HETATM    3  C3  UNL     1      21.921   0.651  53.521  1.00  0.00     0.030 C 
BRANCH   3   4
HETATM    4  C2  UNL     1      21.292  -0.176  54.656  1.00  0.00    -0.003 C 
HETATM    5  C1  UNL     1      22.065  -1.463  54.853  1.00  0.00     0.005 C 
ENDBRANCH   3   4
ENDBRANCH   2   3
ENDBRANCH   1   2
BRANCH   1   6
HETATM    6  C5  UNL     1      23.989   1.871  52.715  1.00  0.00     0.309 C 
BRANCH   6   7
HETATM    7  C6  UNL     1      24.490   2.545  51.500  1.00  0.00    -0.047 A 
HETATM    8  C7  UNL     1      25.649   3.118  51.175  1.00  0.00     0.028 A 
HETATM    9  C8  UNL     1      25.523   3.617  49.792  1.00  0.00     0.030 A 
HETATM   10 CL1  UNL     1      26.817   4.440  48.964  1.00  0.00    -0.085 Cl
HETATM   11  C9  UNL     1      24.316   3.336  49.333  1.00  0.00     0.001 A 
HETATM   12  C10 UNL     1      23.524   2.620  50.379  1.00  0.00     0.065 A 
ENDBRANCH   6   7
ENDBRANCH   1   6
BRANCH   1  13
HETATM   13  C11 UNL     1      25.259   0.170  53.627  1.00  0.00     0.545 C 
BRANCH  13  14
HETATM   14  N2  UNL     1      26.607   0.357  53.173  1.00  0.00     0.137 N 
HETATM   15  C12 UNL     1      27.197  -0.986  53.094  1.00  0.00     0.305 C 
HETATM   16  C13 UNL     1      28.690  -0.900  53.160  1.00  0.00     0.015 C 
HETATM   17  C14 UNL     1      29.120  -0.401  54.308  1.00  0.00    -0.029 C 
HETATM   18  C15 UNL     1      28.150   0.116  55.041  1.00  0.00     0.031 C 
HETATM   19  C16 UNL     1      27.377   1.065  54.183  1.00  0.00     0.308 C 
BRANCH  19  20
HETATM   20  S1  UNL     1      28.571   2.224  53.482  1.00  0.00    -0.143 SA
HETATM   21  H23 UNL     1      27.825   3.108  52.652  1.00  0.00     0.104 HD
ENDBRANCH  19  20
ENDBRANCH  13  14
ENDBRANCH   1  13
TORSDOF 8
ENDMDL
MODEL 3
REMARK VINA RESULT:      -6.5      2.097      4.800
REMARK  8 active torsions:
REMARK  status: ('A' for Active; 'I' for Inactive)
REMARK    1  A    between atoms: C2_2  and  C3_3 
REMARK    2  A    between atoms: C3_3  and  C4_4 
REMARK    3  A    between atoms: C4_4  and  N1_5 
REMARK    4  A    between atoms: N1_5  and  C5_6 
REMARK    5  A    between atoms: N1_5  and  C11_13 
REMARK    6  A    between atoms: C5_6  and  C6_7 
REMARK    7  A    between atoms: C11_13  and  N2_14 
REMARK    8  A    between atoms: C16_19  and  S1_20 
ROOT
HETATM    1  N1  UNL     1      25.232   1.847  52.471  1.00  0.00     0.120 N 
ENDROOT
BRANCH   1   2
HETATM    2  C4  UNL     1      25.525   2.955  51.627  1.00  0.00     0.275 C 
BRANCH   2   3
HETATM    3  C3  UNL     1      26.510   2.715  50.533  1.00  0.00     0.030 C 
BRANCH   3   4
HETATM    4  C2  UNL     1      26.104   3.628  49.362  1.00  0.00    -0.003 C 
HETATM    5  C1  UNL     1      27.274   4.492  48.944  1.00  0.00     0.005 C 
ENDBRANCH   3   4
ENDBRANCH   2   3
ENDBRANCH   1   2
BRANCH   1   6
HETATM    6  C5  UNL     1      26.135   1.968  53.629  1.00  0.00     0.309 C 
BRANCH   6   7
HETATM    7  C6  UNL     1      27.221   0.967  53.572  1.00  0.00    -0.047 A 
HETATM    8  C7  UNL     1      27.252  -0.346  53.350  1.00  0.00     0.028 A 
HETATM    9  C8  UNL     1      28.663  -0.773  53.425  1.00  0.00     0.030 A 
HETATM   10 CL1  UNL     1      29.163  -2.427  53.193  1.00  0.00    -0.085 Cl
HETATM   11  C9  UNL     1      29.425   0.275  53.686  1.00  0.00     0.001 A 
HETATM   12  C10 UNL     1      28.582   1.502  53.809  1.00  0.00     0.065 A 
ENDBRANCH   6   7
ENDBRANCH   1   6
BRANCH   1  13
HETATM   13  C11 UNL     1      23.915   1.791  53.017  1.00  0.00     0.545 C 
BRANCH  13  14
HETATM   14  N2  UNL     1      23.133   0.645  52.652  1.00  0.00     0.137 N 
HETATM   15  C12 UNL     1      22.401   1.026  51.435  1.00  0.00     0.305 C 
HETATM   16  C13 UNL     1      21.190   0.161  51.268  1.00  0.00     0.015 C 
HETATM   17  C14 UNL     1      20.320   0.308  52.254  1.00  0.00    -0.029 C 
HETATM   18  C15 UNL     1      20.804   1.001  53.269  1.00  0.00     0.031 C 
HETATM   19  C16 UNL     1      22.115   0.397  53.660  1.00  0.00     0.308 C 
BRANCH  19  20
HETATM   20  S1  UNL     1      21.812  -1.360  53.946  1.00  0.00    -0.143 SA
HETATM   21  H23 UNL     1      21.673  -1.952  52.659  1.00  0.00     0.104 HD
ENDBRANCH  19  20
ENDBRANCH  13  14
ENDBRANCH   1  13
TORSDOF 8
ENDMDL
MODEL 4
REMARK VINA RESULT:      -6.4      1.276      1.709
REMARK  8 active torsions:
REMARK  status: ('A' for Active; 'I' for Inactive)
REMARK    1  A    between atoms: C2_2  and  C3_3 
REMARK    2  A    between atoms: C3_3  and  C4_4 
REMARK    3  A    between atoms: C4_4  and  N1_5 
REMARK    4  A    between atoms: N1_5  and  C5_6 
REMARK    5  A    between atoms: N1_5  and  C11_13 
REMARK    6  A    between atoms: C5_6  and  C6_7 
REMARK    7  A    between atoms: C11_13  and  N2_14 
REMARK    8  A    between atoms: C16_19  and  S1_20 
ROOT
HETATM    1  N1  UNL     1      24.206   0.768  53.069  1.00  0.00     0.120 N 
ENDROOT
BRANCH   1   2
HETATM    2  C4  UNL     1      22.823   0.501  53.277  1.00  0.00     0.275 C 
BRANCH   2   3
HETATM    3  C3  UNL     1      22.403  -0.928  53.200  1.00  0.00     0.030 C 
BRANCH   3   4
HETATM    4  C2  UNL     1      21.324  -1.133  54.277  1.00  0.00    -0.003 C 
HETATM    5  C1  UNL     1      20.803   0.206  54.755  1.00  0.00     0.005 C 
ENDBRANCH   3   4
ENDBRANCH   2   3
ENDBRANCH   1   2
BRANCH   1   6
HETATM    6  C5  UNL     1      24.880  -0.543  53.090  1.00  0.00     0.309 C 
BRANCH   6   7
HETATM    7  C6  UNL     1      26.300  -0.412  53.478  1.00  0.00    -0.047 A 
HETATM    8  C7  UNL     1      27.447  -0.780  52.910  1.00  0.00     0.028 A 
HETATM    9  C8  UNL     1      28.540  -0.358  53.807  1.00  0.00     0.030 A 
HETATM   10 CL1  UNL     1      30.222  -0.642  53.447  1.00  0.00    -0.085 Cl
HETATM   11  C9  UNL     1      28.028   0.240  54.870  1.00  0.00     0.001 A 
HETATM   12  C10 UNL     1      26.537   0.268  54.772  1.00  0.00     0.065 A 
ENDBRANCH   6   7
ENDBRANCH   1   6
BRANCH   1  13
HETATM   13  C11 UNL     1      24.561   1.362  51.822  1.00  0.00     0.545 C 
BRANCH  13  14
HETATM   14  N2  UNL     1      23.724   2.440  51.379  1.00  0.00     0.137 N 
HETATM   15  C12 UNL     1      23.141   2.001  50.104  1.00  0.00     0.305 C 
HETATM   16  C13 UNL     1      22.704   3.186  49.300  1.00  0.00     0.015 C 
HETATM   17  C14 UNL     1      23.713   3.974  48.965  1.00  0.00    -0.029 C 
HETATM   18  C15 UNL     1      24.835   3.671  49.595  1.00  0.00     0.031 C 
HETATM   19  C16 UNL     1      24.539   3.602  51.059  1.00  0.00     0.308 C 
BRANCH  19  20
HETATM   20  S1  UNL     1      23.752   5.164  51.505  1.00  0.00    -0.143 SA
HETATM   21  H23 UNL     1      24.633   5.804  52.422  1.00  0.00     0.104 HD
ENDBRANCH  19  20
ENDBRANCH  13  14
ENDBRANCH   1  13
TORSDOF 8
ENDMDL
MODEL 5
REMARK VINA RESULT:      -6.4      2.035      4.805
REMARK  8 active torsions:
REMARK  status: ('A' for Active; 'I' for Inactive)
REMARK    1  A    between atoms: C2_2  and  C3_3 
REMARK    2  A    between atoms: C3_3  and  C4_4 
REMARK    3  A    between atoms: C4_4  and  N1_5 
REMARK    4  A    between atoms: N1_5  and  C5_6 
REMARK    5  A    between atoms: N1_5  and  C11_13 
REMARK    6  A    between atoms: C5_6  and  C6_7 
REMARK    7  A    between atoms: C11_13  and  N2_14 
REMARK    8  A    between atoms: C16_19  and  S1_20 
ROOT
HETATM    1  N1  UNL     1      23.865   3.026  51.794  1.00  0.00     0.120 N 
ENDROOT
BRANCH   1   2
HETATM    2  C4  UNL     1      24.603   3.982  51.041  1.00  0.00     0.275 C 
BRANCH   2   3
HETATM    3  C3  UNL     1      24.994   3.580  49.658  1.00  0.00     0.030 C 
BRANCH   3   4
HETATM    4  C2  UNL     1      26.517   3.362  49.673  1.00  0.00    -0.003 C 
HETATM    5  C1  UNL     1      27.214   4.492  48.945  1.00  0.00     0.005 C 
ENDBRANCH   3   4
ENDBRANCH   2   3
ENDBRANCH   1   2
BRANCH   1   6
HETATM    6  C5  UNL     1      24.559   2.905  53.089  1.00  0.00     0.309 C 
BRANCH   6   7
HETATM    7  C6  UNL     1      25.695   1.964  53.005  1.00  0.00    -0.047 A 
HETATM    8  C7  UNL     1      26.940   1.979  53.479  1.00  0.00     0.028 A 
HETATM    9  C8  UNL     1      27.592   0.727  53.048  1.00  0.00     0.030 A 
HETATM   10 CL1  UNL     1      29.240   0.332  53.452  1.00  0.00    -0.085 Cl
HETATM   11  C9  UNL     1      26.737   0.009  52.340  1.00  0.00     0.001 A 
HETATM   12  C10 UNL     1      25.430   0.726  52.236  1.00  0.00     0.065 A 
ENDBRANCH   6   7
ENDBRANCH   1   6
BRANCH   1  13
HETATM   13  C11 UNL     1      22.517   3.366  52.112  1.00  0.00     0.545 C 
BRANCH  13  14
HETATM   14  N2  UNL     1      21.508   2.786  51.273  1.00  0.00     0.137 N 
HETATM   15  C12 UNL     1      20.369   2.493  52.154  1.00  0.00     0.305 C 
HETATM   16  C13 UNL     1      19.503   1.434  51.544  1.00  0.00     0.015 C 
HETATM   17  C14 UNL     1      20.135   0.280  51.402  1.00  0.00    -0.029 C 
HETATM   18  C15 UNL     1      21.436   0.375  51.612  1.00  0.00     0.031 C 
HETATM   19  C16 UNL     1      21.960   1.497  50.773  1.00  0.00     0.308 C 
BRANCH  19  20
HETATM   20  S1  UNL     1      21.432   1.169  49.078  1.00  0.00    -0.143 SA
HETATM   21  H23 UNL     1      22.384   0.259  48.536  1.00  0.00     0.104 HD
ENDBRANCH  19  20
ENDBRANCH  13  14
ENDBRANCH   1  13
TORSDOF 8
ENDMDL
MODEL 6
REMARK VINA RESULT:      -6.3      1.533      1.997
REMARK  8 active torsions:
REMARK  status: ('A' for Active; 'I' for Inactive)
REMARK    1  A    between atoms: C2_2  and  C3_3 
REMARK    2  A    between atoms: C3_3  and  C4_4 
REMARK    3  A    between atoms: C4_4  and  N1_5 
REMARK    4  A    between atoms: N1_5  and  C5_6 
REMARK    5  A    between atoms: N1_5  and  C11_13 
REMARK    6  A    between atoms: C5_6  and  C6_7 
REMARK    7  A    between atoms: C11_13  and  N2_14 
REMARK    8  A    between atoms: C16_19  and  S1_20 
ROOT
HETATM    1  N1  UNL     1      24.176   0.636  53.108  1.00  0.00     0.120 N 
ENDROOT
BRANCH   1   2
HETATM    2  C4  UNL     1      22.796   0.344  53.298  1.00  0.00     0.275 C 
BRANCH   2   3
HETATM    3  C3  UNL     1      22.424  -1.100  53.354  1.00  0.00     0.030 C 
BRANCH   3   4
HETATM    4  C2  UNL     1      21.155  -1.198  54.219  1.00  0.00    -0.003 C 
HETATM    5  C1  UNL     1      20.748   0.176  54.707  1.00  0.00     0.005 C 
ENDBRANCH   3   4
ENDBRANCH   2   3
ENDBRANCH   1   2
BRANCH   1   6
HETATM    6  C5  UNL     1      24.881  -0.655  53.199  1.00  0.00     0.309 C 
BRANCH   6   7
HETATM    7  C6  UNL     1      26.302  -0.468  53.555  1.00  0.00    -0.047 A 
HETATM    8  C7  UNL     1      27.450  -0.834  52.986  1.00  0.00     0.028 A 
HETATM    9  C8  UNL     1      28.545  -0.339  53.843  1.00  0.00     0.030 A 
HETATM   10 CL1  UNL     1      30.228  -0.597  53.468  1.00  0.00    -0.085 Cl
HETATM   11  C9  UNL     1      28.035   0.297  54.883  1.00  0.00     0.001 A 
HETATM   12  C10 UNL     1      26.542   0.281  54.811  1.00  0.00     0.065 A 
ENDBRANCH   6   7
ENDBRANCH   1   6
BRANCH   1  13
HETATM   13  C11 UNL     1      24.544   1.186  51.844  1.00  0.00     0.545 C 
BRANCH  13  14
HETATM   14  N2  UNL     1      24.618   2.618  51.780  1.00  0.00     0.137 N 
HETATM   15  C12 UNL     1      24.278   3.100  53.126  1.00  0.00     0.305 C 
HETATM   16  C13 UNL     1      23.802   4.519  53.063  1.00  0.00     0.015 C 
HETATM   17  C14 UNL     1      22.690   4.651  52.358  1.00  0.00    -0.029 C 
HETATM   18  C15 UNL     1      22.374   3.558  51.684  1.00  0.00     0.031 C 
HETATM   19  C16 UNL     1      23.576   3.130  50.905  1.00  0.00     0.308 C 
BRANCH  19  20
HETATM   20  S1  UNL     1      24.102   4.558  49.935  1.00  0.00    -0.143 SA
HETATM   21  H23 UNL     1      24.566   4.043  48.691  1.00  0.00     0.104 HD
ENDBRANCH  19  20
ENDBRANCH  13  14
ENDBRANCH   1  13
TORSDOF 8
ENDMDL
MODEL 7
REMARK VINA RESULT:      -6.1      2.417      4.260
REMARK  8 active torsions:
REMARK  status: ('A' for Active; 'I' for Inactive)
REMARK    1  A    between atoms: C2_2  and  C3_3 
REMARK    2  A    between atoms: C3_3  and  C4_4 
REMARK    3  A    between atoms: C4_4  and  N1_5 
REMARK    4  A    between atoms: N1_5  and  C5_6 
REMARK    5  A    between atoms: N1_5  and  C11_13 
REMARK    6  A    between atoms: C5_6  and  C6_7 
REMARK    7  A    between atoms: C11_13  and  N2_14 
REMARK    8  A    between atoms: C16_19  and  S1_20 
ROOT
HETATM    1  N1  UNL     1      25.605   1.725  51.495  1.00  0.00     0.120 N 
ENDROOT
BRANCH   1   2
HETATM    2  C4  UNL     1      26.748   1.134  52.103  1.00  0.00     0.275 C 
BRANCH   2   3
HETATM    3  C3  UNL     1      26.832  -0.355  52.054  1.00  0.00     0.030 C 
BRANCH   3   4
HETATM    4  C2  UNL     1      27.653  -0.794  53.279  1.00  0.00    -0.003 C 
HETATM    5  C1  UNL     1      27.317   0.075  54.472  1.00  0.00     0.005 C 
ENDBRANCH   3   4
ENDBRANCH   2   3
ENDBRANCH   1   2
BRANCH   1   6
HETATM    6  C5  UNL     1      24.701   2.092  52.599  1.00  0.00     0.309 C 
BRANCH   6   7
HETATM    7  C6  UNL     1      23.649   1.073  52.795  1.00  0.00    -0.047 A 
HETATM    8  C7  UNL     1      23.476   0.084  53.670  1.00  0.00     0.028 A 
HETATM    9  C8  UNL     1      22.206  -0.588  53.333  1.00  0.00     0.030 A 
HETATM   10 CL1  UNL     1      21.589  -1.948  54.231  1.00  0.00    -0.085 Cl
HETATM   11  C9  UNL     1      21.662   0.005  52.284  1.00  0.00     0.001 A 
HETATM   12  C10 UNL     1      22.529   1.132  51.826  1.00  0.00     0.065 A 
ENDBRANCH   6   7
ENDBRANCH   1   6
BRANCH   1  13
HETATM   13  C11 UNL     1      25.823   2.930  50.762  1.00  0.00     0.545 C 
BRANCH  13  14
HETATM   14  N2  UNL     1      24.670   3.760  50.561  1.00  0.00     0.137 N 
HETATM   15  C12 UNL     1      24.123   3.379  49.251  1.00  0.00     0.305 C 
HETATM   16  C13 UNL     1      23.285   4.489  48.698  1.00  0.00     0.015 C 
HETATM   17  C14 UNL     1      23.984   5.590  48.473  1.00  0.00    -0.029 C 
HETATM   18  C15 UNL     1      25.199   5.544  48.990  1.00  0.00     0.031 C 
HETATM   19  C16 UNL     1      25.076   5.149  50.427  1.00  0.00     0.308 C 
BRANCH  19  20
HETATM   20  S1  UNL     1      23.913   6.304  51.185  1.00  0.00    -0.143 SA
HETATM   21  H23 UNL     1      22.613   5.789  50.918  1.00  0.00     0.104 HD
ENDBRANCH  19  20
ENDBRANCH  13  14
ENDBRANCH   1  13
TORSDOF 8
ENDMDL
MODEL 8
REMARK VINA RESULT:      -6.0      2.740      5.951
REMARK  8 active torsions:
REMARK  status: ('A' for Active; 'I' for Inactive)
REMARK    1  A    between atoms: C2_2  and  C3_3 
REMARK    2  A    between atoms: C3_3  and  C4_4 
REMARK    3  A    between atoms: C4_4  and  N1_5 
REMARK    4  A    between atoms: N1_5  and  C5_6 
REMARK    5  A    between atoms: N1_5  and  C11_13 
REMARK    6  A    between atoms: C5_6  and  C6_7 
REMARK    7  A    between atoms: C11_13  and  N2_14 
REMARK    8  A    between atoms: C16_19  and  S1_20 
ROOT
HETATM    1  N1  UNL     1      25.190   3.001  51.564  1.00  0.00     0.120 N 
ENDROOT
BRANCH   1   2
HETATM    2  C4  UNL     1      25.175   3.568  50.259  1.00  0.00     0.275 C 
BRANCH   2   3
HETATM    3  C3  UNL     1      26.470   3.569  49.518  1.00  0.00     0.030 C 
BRANCH   3   4
HETATM    4  C2  UNL     1      26.679   4.998  48.989  1.00  0.00    -0.003 C 
HETATM    5  C1  UNL     1      28.098   5.167  48.489  1.00  0.00     0.005 C 
ENDBRANCH   3   4
ENDBRANCH   2   3
ENDBRANCH   1   2
BRANCH   1   6
HETATM    6  C5  UNL     1      23.830   3.182  52.102  1.00  0.00     0.309 C 
BRANCH   6   7
HETATM    7  C6  UNL     1      23.140   1.887  52.268  1.00  0.00    -0.047 A 
HETATM    8  C7  UNL     1      23.118   0.973  53.237  1.00  0.00     0.028 A 
HETATM    9  C8  UNL     1      22.222  -0.115  52.799  1.00  0.00     0.030 A 
HETATM   10 CL1  UNL     1      21.901  -1.525  53.771  1.00  0.00    -0.085 Cl
HETATM   11  C9  UNL     1      21.739   0.171  51.601  1.00  0.00     0.001 A 
HETATM   12  C10 UNL     1      22.277   1.484  51.133  1.00  0.00     0.065 A 
ENDBRANCH   6   7
ENDBRANCH   1   6
BRANCH   1  13
HETATM   13  C11 UNL     1      25.453   1.601  51.648  1.00  0.00     0.545 C 
BRANCH  13  14
HETATM   14  N2  UNL     1      26.766   1.234  52.095  1.00  0.00     0.137 N 
HETATM   15  C12 UNL     1      26.742  -0.225  52.264  1.00  0.00     0.305 C 
HETATM   16  C13 UNL     1      27.824  -0.655  53.206  1.00  0.00     0.015 C 
HETATM   17  C14 UNL     1      27.664  -0.163  54.423  1.00  0.00    -0.029 C 
HETATM   18  C15 UNL     1      26.727   0.768  54.485  1.00  0.00     0.031 C 
HETATM   19  C16 UNL     1      27.009   1.779  53.421  1.00  0.00     0.308 C 
BRANCH  19  20
HETATM   20  S1  UNL     1      28.713   2.325  53.661  1.00  0.00    -0.143 SA
HETATM   21  H23 UNL     1      28.710   3.734  53.461  1.00  0.00     0.104 HD
ENDBRANCH  19  20
ENDBRANCH  13  14
ENDBRANCH   1  13
TORSDOF 8
ENDMDL
MODEL 9
REMARK VINA RESULT:      -6.0      3.503      5.708
REMARK  8 active torsions:
REMARK  status: ('A' for Active; 'I' for Inactive)
REMARK    1  A    between atoms: C2_2  and  C3_3 
REMARK    2  A    between atoms: C3_3  and  C4_4 
REMARK    3  A    between atoms: C4_4  and  N1_5 
REMARK    4  A    between atoms: N1_5  and  C5_6 
REMARK    5  A    between atoms: N1_5  and  C11_13 
REMARK    6  A    between atoms: C5_6  and  C6_7 
REMARK    7  A    between atoms: C11_13  and  N2_14 
REMARK    8  A    between atoms: C16_19  and  S1_20 
ROOT
HETATM    1  N1  UNL     1      24.520   2.530  52.117  1.00  0.00     0.120 N 
ENDROOT
BRANCH   1   2
HETATM    2  C4  UNL     1      24.123   3.829  51.693  1.00  0.00     0.275 C 
BRANCH   2   3
HETATM    3  C3  UNL     1      23.290   4.615  52.648  1.00  0.00     0.030 C 
BRANCH   3   4
HETATM    4  C2  UNL     1      22.124   5.209  51.837  1.00  0.00    -0.003 C 
HETATM    5  C1  UNL     1      20.963   4.238  51.805  1.00  0.00     0.005 C 
ENDBRANCH   3   4
ENDBRANCH   2   3
ENDBRANCH   1   2
BRANCH   1   6
HETATM    6  C5  UNL     1      23.858   1.583  51.202  1.00  0.00     0.309 C 
BRANCH   6   7
HETATM    7  C6  UNL     1      22.617   1.041  51.793  1.00  0.00    -0.047 A 
HETATM    8  C7  UNL     1      21.421   0.728  51.297  1.00  0.00     0.028 A 
HETATM    9  C8  UNL     1      20.598   0.224  52.413  1.00  0.00     0.030 A 
HETATM   10 CL1  UNL     1      18.949  -0.303  52.209  1.00  0.00    -0.085 Cl
HETATM   11  C9  UNL     1      21.309   0.248  53.528  1.00  0.00     0.001 A 
HETATM   12  C10 UNL     1      22.679   0.776  53.249  1.00  0.00     0.065 A 
ENDBRANCH   6   7
ENDBRANCH   1   6
BRANCH   1  13
HETATM   13  C11 UNL     1      25.912   2.230  52.038  1.00  0.00     0.545 C 
BRANCH  13  14
HETATM   14  N2  UNL     1      26.541   1.838  53.267  1.00  0.00     0.137 N 
HETATM   15  C12 UNL     1      27.966   2.157  53.112  1.00  0.00     0.305 C 
HETATM   16  C13 UNL     1      28.787   1.336  54.057  1.00  0.00     0.015 C 
HETATM   17  C14 UNL     1      28.695   0.039  53.814  1.00  0.00    -0.029 C 
HETATM   18  C15 UNL     1      27.739  -0.259  52.953  1.00  0.00     0.031 C 
HETATM   19  C16 UNL     1      26.477   0.393  53.419  1.00  0.00     0.308 C 
BRANCH  19  20
HETATM   20  S1  UNL     1      26.222  -0.130  55.128  1.00  0.00    -0.143 SA
HETATM   21  H23 UNL     1      27.515  -0.411  55.653  1.00  0.00     0.104 HD
ENDBRANCH  19  20
ENDBRANCH  13  14
ENDBRANCH   1  13
TORSDOF 8
ENDMDL
