MODEL 1
REMARK VINA RESULT:      -9.1      0.000      0.000
REMARK  3 active torsions:
REMARK  status: ('A' for Active; 'I' for Inactive)
REMARK    1  A    between atoms: O1_2  and  C2_3 
REMARK    2  A    between atoms: C7_8  and  N1_9 
REMARK    3  A    between atoms: C12_17  and  C13_18 
ROOT
HETATM    1  N1  UNL     1      22.895   3.839  50.386  1.00  0.00    -0.221 N 
HETATM    2  O2  UNL     1      22.225   2.746  50.820  1.00  0.00    -0.253 OA
HETATM    3  C8  UNL     1      22.023   1.783  49.857  1.00  0.00     0.325 C 
HETATM    4  N2  UNL     1      21.293   0.674  50.473  1.00  0.00    -0.361 N 
HETATM    5  C9  UNL     1      22.156   0.237  51.520  1.00  0.00     0.203 C 
HETATM    6  N3  UNL     1      22.524   0.569  52.712  1.00  0.00    -0.256 NA
HETATM    7  C10 UNL     1      23.465  -0.178  53.468  1.00  0.00     0.120 C 
HETATM    8  C11 UNL     1      24.760  -0.336  53.593  1.00  0.00     0.051 C 
HETATM    9  C12 UNL     1      25.830   0.326  52.863  1.00  0.00     0.065 C 
HETATM   10  N5  UNL     1      25.255   1.116  52.048  1.00  0.00    -0.273 NA
HETATM   11  C18 UNL     1      25.949   1.927  51.171  1.00  0.00     0.113 A 
HETATM   12  C19 UNL     1      26.417   2.901  50.219  1.00  0.00     0.041 A 
HETATM   13  C20 UNL     1      26.387   3.958  49.333  1.00  0.00    -0.010 A 
HETATM   14  C21 UNL     1      25.109   4.500  49.223  1.00  0.00     0.025 A 
HETATM   15  C22 UNL     1      24.278   3.764  50.072  1.00  0.00     0.054 A 
HETATM   16  C23 UNL     1      25.037   2.803  50.679  1.00  0.00     0.068 A 
HETATM   17  H10 UNL     1      20.384   0.164  50.356  1.00  0.00     0.162 HD
ENDROOT
BRANCH   1  18
HETATM   18  C7  UNL     1      22.336   5.133  50.199  1.00  0.00     0.096 A 
HETATM   19  C2  UNL     1      21.636   5.493  49.071  1.00  0.00     0.097 A 
HETATM   20  C3  UNL     1      21.131   6.779  48.987  1.00  0.00     0.039 A 
HETATM   21  C4  UNL     1      21.303   7.710  49.988  1.00  0.00     0.003 A 
HETATM   22  C5  UNL     1      22.005   7.358  51.123  1.00  0.00     0.002 A 
HETATM   23  C6  UNL     1      22.514   6.057  51.208  1.00  0.00     0.035 A 
BRANCH  19  24
HETATM   24  O1  UNL     1      21.492   4.519  48.097  1.00  0.00    -0.354 OA
HETATM   25  C1  UNL     1      22.204   4.735  46.877  1.00  0.00     0.210 C 
ENDBRANCH  19  24
ENDBRANCH   1  18
BRANCH   9  26
HETATM   26  C13 UNL     1      27.192  -0.038  53.203  1.00  0.00     0.010 A 
HETATM   27  C14 UNL     1      28.119   0.867  53.667  1.00  0.00     0.017 A 
HETATM   28  C15 UNL     1      29.393   0.449  53.969  1.00  0.00     0.020 A 
HETATM   29  C16 UNL     1      29.816  -0.853  53.833  1.00  0.00     0.116 A 
HETATM   30  N4  UNL     1      28.906  -1.720  53.380  1.00  0.00    -0.272 NA
HETATM   31  C17 UNL     1      27.679  -1.313  53.091  1.00  0.00     0.130 A 
ENDBRANCH   9  26
TORSDOF 3
ENDMDL
MODEL 2
REMARK VINA RESULT:      -9.1      2.250      4.270
REMARK  3 active torsions:
REMARK  status: ('A' for Active; 'I' for Inactive)
REMARK    1  A    between atoms: O1_2  and  C2_3 
REMARK    2  A    between atoms: C7_8  and  N1_9 
REMARK    3  A    between atoms: C12_17  and  C13_18 
ROOT
HETATM    1  N1  UNL     1      21.246   2.297  51.726  1.00  0.00    -0.221 N 
HETATM    2  O2  UNL     1      22.152   3.255  51.419  1.00  0.00    -0.253 OA
HETATM    3  C8  UNL     1      22.428   4.128  52.448  1.00  0.00     0.325 C 
HETATM    4  N2  UNL     1      23.414   5.096  51.967  1.00  0.00    -0.361 N 
HETATM    5  C9  UNL     1      24.534   4.291  51.608  1.00  0.00     0.203 C 
HETATM    6  N3  UNL     1      24.940   3.509  50.664  1.00  0.00    -0.256 NA
HETATM    7  C10 UNL     1      26.201   2.860  50.683  1.00  0.00     0.120 C 
HETATM    8  C11 UNL     1      26.784   1.805  51.199  1.00  0.00     0.051 C 
HETATM    9  C12 UNL     1      26.215   0.788  52.068  1.00  0.00     0.065 C 
HETATM   10  N5  UNL     1      25.001   1.124  52.246  1.00  0.00    -0.273 NA
HETATM   11  C18 UNL     1      24.125   0.394  53.025  1.00  0.00     0.113 A 
HETATM   12  C19 UNL     1      23.010  -0.202  53.716  1.00  0.00     0.041 A 
HETATM   13  C20 UNL     1      21.707  -0.431  54.106  1.00  0.00    -0.010 A 
HETATM   14  C21 UNL     1      20.819   0.428  53.463  1.00  0.00     0.025 A 
HETATM   15  C22 UNL     1      21.578   1.246  52.622  1.00  0.00     0.054 A 
HETATM   16  C23 UNL     1      22.891   0.889  52.755  1.00  0.00     0.068 A 
HETATM   17  H10 UNL     1      23.503   6.132  51.829  1.00  0.00     0.162 HD
ENDROOT
BRANCH   1  18
HETATM   18  C7  UNL     1      19.918   2.219  51.221  1.00  0.00     0.096 A 
HETATM   19  C2  UNL     1      19.572   1.452  50.134  1.00  0.00     0.097 A 
HETATM   20  C3  UNL     1      18.251   1.445  49.723  1.00  0.00     0.039 A 
HETATM   21  C4  UNL     1      17.272   2.176  50.360  1.00  0.00     0.003 A 
HETATM   22  C5  UNL     1      17.611   2.949  51.452  1.00  0.00     0.002 A 
HETATM   23  C6  UNL     1      18.947   2.956  51.867  1.00  0.00     0.035 A 
BRANCH  19  24
HETATM   24  O1  UNL     1      20.595   0.737  49.533  1.00  0.00    -0.354 OA
HETATM   25  C1  UNL     1      21.291   1.399  48.474  1.00  0.00     0.210 C 
ENDBRANCH  19  24
ENDBRANCH   1  18
BRANCH   9  26
HETATM   26  C13 UNL     1      27.091  -0.286  52.499  1.00  0.00     0.010 A 
HETATM   27  C14 UNL     1      28.289  -0.068  53.138  1.00  0.00     0.017 A 
HETATM   28  C15 UNL     1      29.067  -1.136  53.518  1.00  0.00     0.020 A 
HETATM   29  C16 UNL     1      28.716  -2.447  53.294  1.00  0.00     0.116 A 
HETATM   30  N4  UNL     1      27.551  -2.643  52.672  1.00  0.00    -0.272 NA
HETATM   31  C17 UNL     1      26.803  -1.611  52.308  1.00  0.00     0.130 A 
ENDBRANCH   9  26
TORSDOF 3
ENDMDL
MODEL 3
REMARK VINA RESULT:      -8.6      1.900      2.649
REMARK  3 active torsions:
REMARK  status: ('A' for Active; 'I' for Inactive)
REMARK    1  A    between atoms: O1_2  and  C2_3 
REMARK    2  A    between atoms: C7_8  and  N1_9 
REMARK    3  A    between atoms: C12_17  and  C13_18 
ROOT
HETATM    1  N1  UNL     1      23.582   5.292  48.811  1.00  0.00    -0.221 N 
HETATM    2  O2  UNL     1      22.664   4.306  48.943  1.00  0.00    -0.253 OA
HETATM    3  C8  UNL     1      22.676   3.378  47.927  1.00  0.00     0.325 C 
HETATM    4  N2  UNL     1      21.637   2.387  48.208  1.00  0.00    -0.361 N 
HETATM    5  C9  UNL     1      22.022   1.836  49.465  1.00  0.00     0.203 C 
HETATM    6  N3  UNL     1      22.002   2.116  50.725  1.00  0.00    -0.256 NA
HETATM    7  C10 UNL     1      22.518   1.247  51.721  1.00  0.00     0.120 C 
HETATM    8  C11 UNL     1      23.659   0.908  52.270  1.00  0.00     0.051 C 
HETATM    9  C12 UNL     1      24.992   1.408  51.976  1.00  0.00     0.065 C 
HETATM   10  N5  UNL     1      24.842   2.268  51.050  1.00  0.00    -0.273 NA
HETATM   11  C18 UNL     1      25.897   2.969  50.498  1.00  0.00     0.113 A 
HETATM   12  C19 UNL     1      26.789   3.864  49.806  1.00  0.00     0.041 A 
HETATM   13  C20 UNL     1      27.206   4.910  49.010  1.00  0.00    -0.010 A 
HETATM   14  C21 UNL     1      26.128   5.627  48.498  1.00  0.00     0.025 A 
HETATM   15  C22 UNL     1      24.966   5.021  48.981  1.00  0.00     0.054 A 
HETATM   16  C23 UNL     1      25.335   3.964  49.766  1.00  0.00     0.068 A 
HETATM   17  H10 UNL     1      20.762   2.011  47.767  1.00  0.00     0.162 HD
ENDROOT
BRANCH   1  18
HETATM   18  C7  UNL     1      23.301   6.652  48.504  1.00  0.00     0.096 A 
HETATM   19  C2  UNL     1      22.960   7.582  49.457  1.00  0.00     0.097 A 
HETATM   20  C3  UNL     1      22.706   8.881  49.053  1.00  0.00     0.039 A 
HETATM   21  C4  UNL     1      22.780   9.276  47.735  1.00  0.00     0.003 A 
HETATM   22  C5  UNL     1      23.121   8.348  46.771  1.00  0.00     0.002 A 
HETATM   23  C6  UNL     1      23.378   7.035  47.181  1.00  0.00     0.035 A 
BRANCH  19  24
HETATM   24  O1  UNL     1      22.901   7.132  50.766  1.00  0.00    -0.354 OA
HETATM   25  C1  UNL     1      21.609   6.755  51.246  1.00  0.00     0.210 C 
ENDBRANCH  19  24
ENDBRANCH   1  18
BRANCH   9  26
HETATM   26  C13 UNL     1      26.095   0.856  52.741  1.00  0.00     0.010 A 
HETATM   27  C14 UNL     1      26.778  -0.277  52.364  1.00  0.00     0.017 A 
HETATM   28  C15 UNL     1      27.813  -0.742  53.141  1.00  0.00     0.020 A 
HETATM   29  C16 UNL     1      28.223  -0.131  54.304  1.00  0.00     0.116 A 
HETATM   30  N4  UNL     1      27.549   0.967  54.656  1.00  0.00    -0.272 NA
HETATM   31  C17 UNL     1      26.552   1.412  53.906  1.00  0.00     0.130 A 
ENDBRANCH   9  26
TORSDOF 3
ENDMDL
MODEL 4
REMARK VINA RESULT:      -8.6      5.727      7.927
REMARK  3 active torsions:
REMARK  status: ('A' for Active; 'I' for Inactive)
REMARK    1  A    between atoms: O1_2  and  C2_3 
REMARK    2  A    between atoms: C7_8  and  N1_9 
REMARK    3  A    between atoms: C12_17  and  C13_18 
ROOT
HETATM    1  N1  UNL     1      26.439   7.992  48.212  1.00  0.00    -0.221 N 
HETATM    2  O2  UNL     1      27.414   8.919  48.366  1.00  0.00    -0.253 OA
HETATM    3  C8  UNL     1      27.754   9.174  49.676  1.00  0.00     0.325 C 
HETATM    4  N2  UNL     1      28.809  10.187  49.679  1.00  0.00    -0.361 N 
HETATM    5  C9  UNL     1      29.867   9.581  48.940  1.00  0.00     0.203 C 
HETATM    6  N3  UNL     1      30.213   9.321  47.724  1.00  0.00    -0.256 NA
HETATM    7  C10 UNL     1      31.422   8.661  47.386  1.00  0.00     0.120 C 
HETATM    8  C11 UNL     1      31.925   7.453  47.316  1.00  0.00     0.051 C 
HETATM    9  C12 UNL     1      31.283   6.183  47.615  1.00  0.00     0.065 C 
HETATM   10  N5  UNL     1      30.097   6.472  47.975  1.00  0.00    -0.273 NA
HETATM   11  C18 UNL     1      29.170   5.517  48.342  1.00  0.00     0.113 A 
HETATM   12  C19 UNL     1      28.014   4.737  48.706  1.00  0.00     0.041 A 
HETATM   13  C20 UNL     1      26.698   4.435  48.986  1.00  0.00    -0.010 A 
HETATM   14  C21 UNL     1      25.876   5.552  48.862  1.00  0.00     0.025 A 
HETATM   15  C22 UNL     1      26.693   6.622  48.486  1.00  0.00     0.054 A 
HETATM   16  C23 UNL     1      27.976   6.160  48.386  1.00  0.00     0.068 A 
HETATM   17  H10 UNL     1      28.975  11.155  50.049  1.00  0.00     0.162 HD
ENDROOT
BRANCH   1  18
HETATM   18  C7  UNL     1      25.110   8.251  47.779  1.00  0.00     0.096 A 
HETATM   19  C2  UNL     1      24.099   8.619  48.636  1.00  0.00     0.097 A 
HETATM   20  C3  UNL     1      22.839   8.850  48.113  1.00  0.00     0.039 A 
HETATM   21  C4  UNL     1      22.559   8.724  46.770  1.00  0.00     0.003 A 
HETATM   22  C5  UNL     1      23.567   8.355  45.902  1.00  0.00     0.002 A 
HETATM   23  C6  UNL     1      24.841   8.123  46.432  1.00  0.00     0.035 A 
BRANCH  19  24
HETATM   24  O1  UNL     1      24.436   8.731  49.975  1.00  0.00    -0.354 OA
HETATM   25  C1  UNL     1      23.797   7.814  50.866  1.00  0.00     0.210 C 
ENDBRANCH  19  24
ENDBRANCH   1  18
BRANCH   9  26
HETATM   26  C13 UNL     1      32.077   4.980  47.451  1.00  0.00     0.010 A 
HETATM   27  C14 UNL     1      31.616   3.858  46.801  1.00  0.00     0.017 A 
HETATM   28  C15 UNL     1      32.426   2.754  46.685  1.00  0.00     0.020 A 
HETATM   29  C16 UNL     1      33.705   2.694  47.190  1.00  0.00     0.116 A 
HETATM   30  N4  UNL     1      34.137   3.790  47.818  1.00  0.00    -0.272 NA
HETATM   31  C17 UNL     1      33.354   4.853  47.929  1.00  0.00     0.130 A 
ENDBRANCH   9  26
TORSDOF 3
ENDMDL
MODEL 5
REMARK VINA RESULT:      -8.1      6.660      8.700
REMARK  3 active torsions:
REMARK  status: ('A' for Active; 'I' for Inactive)
REMARK    1  A    between atoms: O1_2  and  C2_3 
REMARK    2  A    between atoms: C7_8  and  N1_9 
REMARK    3  A    between atoms: C12_17  and  C13_18 
ROOT
HETATM    1  N1  UNL     1      27.292   8.463  48.016  1.00  0.00    -0.221 N 
HETATM    2  O2  UNL     1      28.247   9.393  48.250  1.00  0.00    -0.253 OA
HETATM    3  C8  UNL     1      28.535   9.591  49.581  1.00  0.00     0.325 C 
HETATM    4  N2  UNL     1      29.575  10.616  49.671  1.00  0.00    -0.361 N 
HETATM    5  C9  UNL     1      30.668  10.057  48.946  1.00  0.00     0.203 C 
HETATM    6  N3  UNL     1      31.062   9.858  47.733  1.00  0.00    -0.256 NA
HETATM    7  C10 UNL     1      32.292   9.229  47.411  1.00  0.00     0.120 C 
HETATM    8  C11 UNL     1      32.814   8.032  47.304  1.00  0.00     0.051 C 
HETATM    9  C12 UNL     1      32.179   6.742  47.521  1.00  0.00     0.065 C 
HETATM   10  N5  UNL     1      30.977   6.999  47.848  1.00  0.00    -0.273 NA
HETATM   11  C18 UNL     1      30.049   6.017  48.136  1.00  0.00     0.113 A 
HETATM   12  C19 UNL     1      28.891   5.208  48.420  1.00  0.00     0.041 A 
HETATM   13  C20 UNL     1      27.570   4.877  48.636  1.00  0.00    -0.010 A 
HETATM   14  C21 UNL     1      26.738   5.989  48.532  1.00  0.00     0.025 A 
HETATM   15  C22 UNL     1      27.554   7.084  48.236  1.00  0.00     0.054 A 
HETATM   16  C23 UNL     1      28.846   6.643  48.164  1.00  0.00     0.068 A 
HETATM   17  H10 UNL     1      29.714  11.567  50.091  1.00  0.00     0.162 HD
ENDROOT
BRANCH   1  18
HETATM   18  C7  UNL     1      25.976   8.726  47.546  1.00  0.00     0.096 A 
HETATM   19  C2  UNL     1      25.653   8.784  46.210  1.00  0.00     0.097 A 
HETATM   20  C3  UNL     1      24.341   9.046  45.857  1.00  0.00     0.039 A 
HETATM   21  C4  UNL     1      23.349   9.251  46.790  1.00  0.00     0.003 A 
HETATM   22  C5  UNL     1      23.663   9.194  48.133  1.00  0.00     0.002 A 
HETATM   23  C6  UNL     1      24.990   8.929  48.489  1.00  0.00     0.035 A 
BRANCH  19  24
HETATM   24  O1  UNL     1      26.689   8.571  45.315  1.00  0.00    -0.354 OA
HETATM   25  C1  UNL     1      26.321   8.457  43.939  1.00  0.00     0.210 C 
ENDBRANCH  19  24
ENDBRANCH   1  18
BRANCH   9  26
HETATM   26  C13 UNL     1      32.995   5.557  47.331  1.00  0.00     0.010 A 
HETATM   27  C14 UNL     1      32.784   4.654  46.315  1.00  0.00     0.017 A 
HETATM   28  C15 UNL     1      33.599   3.553  46.199  1.00  0.00     0.020 A 
HETATM   29  C16 UNL     1      34.641   3.285  47.057  1.00  0.00     0.116 A 
HETATM   30  N4  UNL     1      34.832   4.171  48.038  1.00  0.00    -0.272 NA
HETATM   31  C17 UNL     1      34.045   5.231  48.148  1.00  0.00     0.130 A 
ENDBRANCH   9  26
TORSDOF 3
ENDMDL
MODEL 6
REMARK VINA RESULT:      -8.1      4.818      7.221
REMARK  3 active torsions:
REMARK  status: ('A' for Active; 'I' for Inactive)
REMARK    1  A    between atoms: O1_2  and  C2_3 
REMARK    2  A    between atoms: C7_8  and  N1_9 
REMARK    3  A    between atoms: C12_17  and  C13_18 
ROOT
HETATM    1  N1  UNL     1      27.490   8.459  48.313  1.00  0.00    -0.221 N 
HETATM    2  O2  UNL     1      26.216   8.917  48.305  1.00  0.00    -0.253 OA
HETATM    3  C8  UNL     1      25.535   8.686  47.131  1.00  0.00     0.325 C 
HETATM    4  N2  UNL     1      24.186   9.233  47.275  1.00  0.00    -0.361 N 
HETATM    5  C9  UNL     1      23.643   8.515  48.380  1.00  0.00     0.203 C 
HETATM    6  N3  UNL     1      23.695   8.479  49.669  1.00  0.00    -0.256 NA
HETATM    7  C10 UNL     1      22.954   7.555  50.450  1.00  0.00     0.120 C 
HETATM    8  C11 UNL     1      23.007   6.310  50.859  1.00  0.00     0.051 C 
HETATM    9  C12 UNL     1      24.028   5.310  50.592  1.00  0.00     0.065 C 
HETATM   10  N5  UNL     1      24.893   5.886  49.858  1.00  0.00    -0.273 NA
HETATM   11  C18 UNL     1      26.027   5.250  49.392  1.00  0.00     0.113 A 
HETATM   12  C19 UNL     1      27.295   4.852  48.834  1.00  0.00     0.041 A 
HETATM   13  C20 UNL     1      28.530   4.962  48.231  1.00  0.00    -0.010 A 
HETATM   14  C21 UNL     1      28.838   6.285  47.926  1.00  0.00     0.025 A 
HETATM   15  C22 UNL     1      27.759   7.065  48.350  1.00  0.00     0.054 A 
HETATM   16  C23 UNL     1      26.823   6.231  48.896  1.00  0.00     0.068 A 
HETATM   17  H10 UNL     1      23.571   9.951  46.821  1.00  0.00     0.162 HD
ENDROOT
BRANCH   1  18
HETATM   18  C7  UNL     1      28.661   9.266  48.287  1.00  0.00     0.096 A 
HETATM   19  C2  UNL     1      29.158   9.832  47.137  1.00  0.00     0.097 A 
HETATM   20  C3  UNL     1      30.304  10.602  47.220  1.00  0.00     0.039 A 
HETATM   21  C4  UNL     1      30.965  10.822  48.408  1.00  0.00     0.003 A 
HETATM   22  C5  UNL     1      30.474  10.257  49.568  1.00  0.00     0.002 A 
HETATM   23  C6  UNL     1      29.314   9.479  49.483  1.00  0.00     0.035 A 
BRANCH  19  24
HETATM   24  O1  UNL     1      28.454   9.580  45.971  1.00  0.00    -0.354 OA
HETATM   25  C1  UNL     1      29.048   8.651  45.062  1.00  0.00     0.210 C 
ENDBRANCH  19  24
ENDBRANCH   1  18
BRANCH   9  26
HETATM   26  C13 UNL     1      23.841   3.995  51.174  1.00  0.00     0.010 A 
HETATM   27  C14 UNL     1      24.056   3.724  52.505  1.00  0.00     0.017 A 
HETATM   28  C15 UNL     1      23.857   2.451  52.985  1.00  0.00     0.020 A 
HETATM   29  C16 UNL     1      23.446   1.399  52.200  1.00  0.00     0.116 A 
HETATM   30  N4  UNL     1      23.242   1.678  50.910  1.00  0.00    -0.272 NA
HETATM   31  C17 UNL     1      23.434   2.905  50.450  1.00  0.00     0.130 A 
ENDBRANCH   9  26
TORSDOF 3
ENDMDL
MODEL 7
REMARK VINA RESULT:      -7.8      2.326      7.725
REMARK  3 active torsions:
REMARK  status: ('A' for Active; 'I' for Inactive)
REMARK    1  A    between atoms: O1_2  and  C2_3 
REMARK    2  A    between atoms: C7_8  and  N1_9 
REMARK    3  A    between atoms: C12_17  and  C13_18 
ROOT
HETATM    1  N1  UNL     1      23.550   1.720  51.443  1.00  0.00    -0.221 N 
HETATM    2  O2  UNL     1      22.767   1.295  50.424  1.00  0.00    -0.253 OA
HETATM    3  C8  UNL     1      21.419   1.297  50.704  1.00  0.00     0.325 C 
HETATM    4  N2  UNL     1      20.710   0.817  49.518  1.00  0.00    -0.361 N 
HETATM    5  C9  UNL     1      21.066   1.756  48.505  1.00  0.00     0.203 C 
HETATM    6  N3  UNL     1      22.046   2.051  47.719  1.00  0.00    -0.256 NA
HETATM    7  C10 UNL     1      22.003   3.129  46.798  1.00  0.00     0.120 C 
HETATM    8  C11 UNL     1      22.166   4.429  46.760  1.00  0.00     0.051 C 
HETATM    9  C12 UNL     1      22.505   5.334  47.846  1.00  0.00     0.065 C 
HETATM   10  N5  UNL     1      22.615   4.603  48.882  1.00  0.00    -0.273 NA
HETATM   11  C18 UNL     1      22.932   5.109  50.128  1.00  0.00     0.113 A 
HETATM   12  C19 UNL     1      23.303   5.360  51.498  1.00  0.00     0.041 A 
HETATM   13  C20 UNL     1      23.690   5.106  52.797  1.00  0.00    -0.010 A 
HETATM   14  C21 UNL     1      23.854   3.742  53.027  1.00  0.00     0.025 A 
HETATM   15  C22 UNL     1      23.561   3.087  51.828  1.00  0.00     0.054 A 
HETATM   16  C23 UNL     1      23.229   4.032  50.898  1.00  0.00     0.068 A 
HETATM   17  H10 UNL     1      20.068   0.034  49.242  1.00  0.00     0.162 HD
ENDROOT
BRANCH   1  18
HETATM   18  C7  UNL     1      24.418   0.901  52.218  1.00  0.00     0.096 A 
HETATM   19  C2  UNL     1      23.987   0.152  53.287  1.00  0.00     0.097 A 
HETATM   20  C3  UNL     1      24.913  -0.613  53.975  1.00  0.00     0.039 A 
HETATM   21  C4  UNL     1      26.246  -0.651  53.631  1.00  0.00     0.003 A 
HETATM   22  C5  UNL     1      26.687   0.098  52.559  1.00  0.00     0.002 A 
HETATM   23  C6  UNL     1      25.751   0.870  51.863  1.00  0.00     0.035 A 
BRANCH  19  24
HETATM   24  O1  UNL     1      22.637   0.227  53.589  1.00  0.00    -0.354 OA
HETATM   25  C1  UNL     1      21.966  -1.017  53.798  1.00  0.00     0.210 C 
ENDBRANCH  19  24
ENDBRANCH   1  18
BRANCH   9  26
HETATM   26  C13 UNL     1      22.627   6.744  47.527  1.00  0.00     0.010 A 
HETATM   27  C14 UNL     1      23.830   7.351  47.250  1.00  0.00     0.017 A 
HETATM   28  C15 UNL     1      23.867   8.693  46.955  1.00  0.00     0.020 A 
HETATM   29  C16 UNL     1      22.749   9.493  46.918  1.00  0.00     0.116 A 
HETATM   30  N4  UNL     1      21.588   8.890  47.189  1.00  0.00    -0.272 NA
HETATM   31  C17 UNL     1      21.556   7.596  47.473  1.00  0.00     0.130 A 
ENDBRANCH   9  26
TORSDOF 3
ENDMDL
MODEL 8
REMARK VINA RESULT:      -7.7      4.523      7.139
REMARK  3 active torsions:
REMARK  status: ('A' for Active; 'I' for Inactive)
REMARK    1  A    between atoms: O1_2  and  C2_3 
REMARK    2  A    between atoms: C7_8  and  N1_9 
REMARK    3  A    between atoms: C12_17  and  C13_18 
ROOT
HETATM    1  N1  UNL     1      24.379   6.208  49.060  1.00  0.00    -0.221 N 
HETATM    2  O2  UNL     1      24.801   7.489  49.169  1.00  0.00    -0.253 OA
HETATM    3  C8  UNL     1      25.183   7.856  50.440  1.00  0.00     0.325 C 
HETATM    4  N2  UNL     1      25.610   9.255  50.398  1.00  0.00    -0.361 N 
HETATM    5  C9  UNL     1      26.695   9.252  49.472  1.00  0.00     0.203 C 
HETATM    6  N3  UNL     1      26.922   9.214  48.202  1.00  0.00    -0.256 NA
HETATM    7  C10 UNL     1      28.228   9.232  47.648  1.00  0.00     0.120 C 
HETATM    8  C11 UNL     1      29.229   8.423  47.400  1.00  0.00     0.051 C 
HETATM    9  C12 UNL     1      29.330   6.996  47.663  1.00  0.00     0.065 C 
HETATM   10  N5  UNL     1      28.226   6.665  48.202  1.00  0.00    -0.273 NA
HETATM   11  C18 UNL     1      27.941   5.373  48.599  1.00  0.00     0.113 A 
HETATM   12  C19 UNL     1      27.374   4.124  49.039  1.00  0.00     0.041 A 
HETATM   13  C20 UNL     1      26.428   3.215  49.462  1.00  0.00    -0.010 A 
HETATM   14  C21 UNL     1      25.163   3.792  49.551  1.00  0.00     0.025 A 
HETATM   15  C22 UNL     1      25.297   5.130  49.171  1.00  0.00     0.054 A 
HETATM   16  C23 UNL     1      26.609   5.353  48.860  1.00  0.00     0.068 A 
HETATM   17  H10 UNL     1      25.349  10.175  50.829  1.00  0.00     0.162 HD
ENDROOT
BRANCH   1  18
HETATM   18  C7  UNL     1      23.037   5.794  48.833  1.00  0.00     0.096 A 
HETATM   19  C2  UNL     1      22.110   5.665  49.840  1.00  0.00     0.097 A 
HETATM   20  C3  UNL     1      20.829   5.256  49.513  1.00  0.00     0.039 A 
HETATM   21  C4  UNL     1      20.449   4.973  48.219  1.00  0.00     0.003 A 
HETATM   22  C5  UNL     1      21.373   5.100  47.202  1.00  0.00     0.002 A 
HETATM   23  C6  UNL     1      22.668   5.514  47.534  1.00  0.00     0.035 A 
BRANCH  19  24
HETATM   24  O1  UNL     1      22.545   5.962  51.121  1.00  0.00    -0.354 OA
HETATM   25  C1  UNL     1      22.505   4.891  52.067  1.00  0.00     0.210 C 
ENDBRANCH  19  24
ENDBRANCH   1  18
BRANCH   9  26
HETATM   26  C13 UNL     1      30.565   6.335  47.285  1.00  0.00     0.010 A 
HETATM   27  C14 UNL     1      30.945   5.110  47.784  1.00  0.00     0.017 A 
HETATM   28  C15 UNL     1      32.130   4.545  47.380  1.00  0.00     0.020 A 
HETATM   29  C16 UNL     1      32.988   5.139  46.482  1.00  0.00     0.116 A 
HETATM   30  N4  UNL     1      32.605   6.327  46.008  1.00  0.00    -0.272 NA
HETATM   31  C17 UNL     1      31.462   6.870  46.400  1.00  0.00     0.130 A 
ENDBRANCH   9  26
TORSDOF 3
ENDMDL
MODEL 9
REMARK VINA RESULT:      -7.6      9.111     12.723
REMARK  3 active torsions:
REMARK  status: ('A' for Active; 'I' for Inactive)
REMARK    1  A    between atoms: O1_2  and  C2_3 
REMARK    2  A    between atoms: C7_8  and  N1_9 
REMARK    3  A    between atoms: C12_17  and  C13_18 
ROOT
HETATM    1  N1  UNL     1      32.519   6.647  46.891  1.00  0.00    -0.221 N 
HETATM    2  O2  UNL     1      31.255   6.407  47.312  1.00  0.00    -0.253 OA
HETATM    3  C8  UNL     1      31.091   6.455  48.678  1.00  0.00     0.325 C 
HETATM    4  N2  UNL     1      29.686   6.177  48.975  1.00  0.00    -0.361 N 
HETATM    5  C9  UNL     1      28.983   7.216  48.297  1.00  0.00     0.203 C 
HETATM    6  N3  UNL     1      28.597   7.549  47.111  1.00  0.00    -0.256 NA
HETATM    7  C10 UNL     1      27.873   8.738  46.837  1.00  0.00     0.120 C 
HETATM    8  C11 UNL     1      28.074  10.020  46.648  1.00  0.00     0.051 C 
HETATM    9  C12 UNL     1      29.329  10.754  46.663  1.00  0.00     0.065 C 
HETATM   10  N5  UNL     1      30.232   9.890  46.904  1.00  0.00    -0.273 NA
HETATM   11  C18 UNL     1      31.572  10.210  46.997  1.00  0.00     0.113 A 
HETATM   12  C19 UNL     1      33.010  10.258  47.083  1.00  0.00     0.041 A 
HETATM   13  C20 UNL     1      34.314   9.815  47.139  1.00  0.00    -0.010 A 
HETATM   14  C21 UNL     1      34.388   8.425  47.081  1.00  0.00     0.025 A 
HETATM   15  C22 UNL     1      33.078   7.950  46.983  1.00  0.00     0.054 A 
HETATM   16  C23 UNL     1      32.236   9.026  46.982  1.00  0.00     0.068 A 
HETATM   17  H10 UNL     1      29.113   5.478  49.507  1.00  0.00     0.162 HD
ENDROOT
BRANCH   1  18
HETATM   18  C7  UNL     1      33.404   5.684  46.333  1.00  0.00     0.096 A 
HETATM   19  C2  UNL     1      34.208   4.871  47.097  1.00  0.00     0.097 A 
HETATM   20  C3  UNL     1      35.033   3.965  46.456  1.00  0.00     0.039 A 
HETATM   21  C4  UNL     1      35.081   3.847  45.084  1.00  0.00     0.003 A 
HETATM   22  C5  UNL     1      34.278   4.659  44.309  1.00  0.00     0.002 A 
HETATM   23  C6  UNL     1      33.443   5.574  44.959  1.00  0.00     0.035 A 
BRANCH  19  24
HETATM   24  O1  UNL     1      34.120   5.031  48.471  1.00  0.00    -0.354 OA
HETATM   25  C1  UNL     1      35.309   5.464  49.134  1.00  0.00     0.210 C 
ENDBRANCH  19  24
ENDBRANCH   1  18
BRANCH   9  26
HETATM   26  C13 UNL     1      29.268  12.183  46.421  1.00  0.00     0.010 A 
HETATM   27  C14 UNL     1      29.183  13.113  47.431  1.00  0.00     0.017 A 
HETATM   28  C15 UNL     1      29.129  14.452  47.126  1.00  0.00     0.020 A 
HETATM   29  C16 UNL     1      29.154  14.939  45.839  1.00  0.00     0.116 A 
HETATM   30  N4  UNL     1      29.236  14.023  44.869  1.00  0.00    -0.272 NA
HETATM   31  C17 UNL     1      29.288  12.734  45.167  1.00  0.00     0.130 A 
ENDBRANCH   9  26
TORSDOF 3
ENDMDL
