MODEL 1
REMARK VINA RESULT:      -8.5      0.000      0.000
REMARK  6 active torsions:
REMARK  status: ('A' for Active; 'I' for Inactive)
REMARK    1  A    between atoms: C1_2  and  O2_3 
REMARK    2  A    between atoms: C1_2  and  C2_4 
REMARK    3  A    between atoms: C2_4  and  C3_5 
REMARK       I    between atoms: C3_5  and  N1_7 
REMARK    4  A    between atoms: N1_7  and  C4_8 
REMARK    5  A    between atoms: C9_15  and  N4_16 
REMARK    6  A    between atoms: N4_16  and  P1_17 
ROOT
HETATM    1  C4  UNL     1      24.978  -0.717  54.027  1.00  0.00     0.035 A 
HETATM    2  C5  UNL     1      24.298  -1.267  55.116  1.00  0.00     0.032 A 
HETATM    3  C6  UNL     1      22.915  -1.136  55.257  1.00  0.00     0.035 A 
HETATM    4  C7  UNL     1      22.228  -0.440  54.282  1.00  0.00     0.072 A 
HETATM    5  N2  UNL     1      20.893  -0.258  54.327  1.00  0.00    -0.241 NA
HETATM    6  C8  UNL     1      20.242   0.423  53.366  1.00  0.00     0.236 A 
HETATM    7  N3  UNL     1      20.918   0.944  52.325  1.00  0.00    -0.222 NA
HETATM    8  C9  UNL     1      22.252   0.813  52.198  1.00  0.00     0.162 A 
HETATM    9  C15 UNL     1      22.898   0.109  53.196  1.00  0.00     0.043 A 
HETATM   10  C16 UNL     1      24.262  -0.026  53.067  1.00  0.00     0.047 A 
ENDROOT
BRANCH   1  11
HETATM   11  N1  UNL     1      26.361  -0.987  54.114  1.00  0.00    -0.327 N 
HETATM   12  C3  UNL     1      27.209   0.073  54.587  1.00  0.00     0.232 C 
HETATM   13  O3  UNL     1      26.700   1.191  54.903  1.00  0.00    -0.273 OA
HETATM   14  H4  UNL     1      26.945  -1.819  53.905  1.00  0.00     0.169 HD
BRANCH  12  15
HETATM   15  C2  UNL     1      28.646   0.195  54.815  1.00  0.00     0.212 C 
BRANCH  15  16
HETATM   16  C1  UNL     1      29.224   1.514  54.459  1.00  0.00     0.148 C 
HETATM   17  O1  UNL     1      29.813   2.491  55.036  1.00  0.00    -0.650 OA
BRANCH  16  18
HETATM   18  O2  UNL     1      29.085   1.762  53.101  1.00  0.00    -0.776 OA
HETATM   19  H1  UNL     1      29.831   1.948  52.454  1.00  0.00     0.167 HD
ENDBRANCH  16  18
ENDBRANCH  15  16
ENDBRANCH  12  15
ENDBRANCH   1  11
BRANCH   8  20
HETATM   20  N4  UNL     1      22.980   1.370  51.085  1.00  0.00    -0.246 NA
BRANCH  20  21
HETATM   21  P1  UNL     1      22.531   2.846  50.673  1.00  0.00    -0.013 P 
HETATM   22  C10 UNL     1      23.858   3.681  49.799  1.00  0.00     0.041 A 
HETATM   23  C11 UNL     1      24.536   4.772  50.123  1.00  0.00     0.012 A 
HETATM   24 BR1  UNL     1      25.925   5.493  49.030  1.00  0.00    -0.051 Br
HETATM   25  C12 UNL     1      24.152   5.384  51.366  1.00  0.00     0.015 A 
HETATM   26  C13 UNL     1      23.216   4.954  52.171  1.00  0.00    -0.019 A 
HETATM   27  C14 UNL     1      22.247   3.802  52.183  1.00  0.00     0.080 A 
HETATM   28  H8  UNL     1      21.359   2.824  49.924  1.00  0.00     0.081 HD
ENDBRANCH  20  21
ENDBRANCH   8  20
TORSDOF 6
ENDMDL
MODEL 2
REMARK VINA RESULT:      -8.2      1.610      2.138
REMARK  6 active torsions:
REMARK  status: ('A' for Active; 'I' for Inactive)
REMARK    1  A    between atoms: C1_2  and  O2_3 
REMARK    2  A    between atoms: C1_2  and  C2_4 
REMARK    3  A    between atoms: C2_4  and  C3_5 
REMARK       I    between atoms: C3_5  and  N1_7 
REMARK    4  A    between atoms: N1_7  and  C4_8 
REMARK    5  A    between atoms: C9_15  and  N4_16 
REMARK    6  A    between atoms: N4_16  and  P1_17 
ROOT
HETATM    1  C4  UNL     1      24.809   0.461  53.010  1.00  0.00     0.035 A 
HETATM    2  C5  UNL     1      23.857  -0.455  53.462  1.00  0.00     0.032 A 
HETATM    3  C6  UNL     1      22.494  -0.150  53.466  1.00  0.00     0.035 A 
HETATM    4  C7  UNL     1      22.107   1.094  53.008  1.00  0.00     0.072 A 
HETATM    5  N2  UNL     1      20.816   1.483  52.973  1.00  0.00    -0.241 NA
HETATM    6  C8  UNL     1      20.461   2.701  52.522  1.00  0.00     0.236 A 
HETATM    7  N3  UNL     1      21.396   3.566  52.091  1.00  0.00    -0.222 NA
HETATM    8  C9  UNL     1      22.708   3.264  52.091  1.00  0.00     0.162 A 
HETATM    9  C15 UNL     1      23.049   2.009  52.557  1.00  0.00     0.043 A 
HETATM   10  C16 UNL     1      24.391   1.698  52.557  1.00  0.00     0.047 A 
ENDROOT
BRANCH   1  11
HETATM   11  N1  UNL     1      26.109  -0.084  53.106  1.00  0.00    -0.327 N 
HETATM   12  C3  UNL     1      26.921   0.346  54.210  1.00  0.00     0.232 C 
HETATM   13  O3  UNL     1      26.457   1.181  55.044  1.00  0.00    -0.273 OA
HETATM   14  H4  UNL     1      26.647  -0.761  52.532  1.00  0.00     0.169 HD
BRANCH  12  15
HETATM   15  C2  UNL     1      28.277   0.031  54.652  1.00  0.00     0.212 C 
BRANCH  15  16
HETATM   16  C1  UNL     1      29.270   1.113  54.439  1.00  0.00     0.148 C 
HETATM   17  O1  UNL     1      29.533   2.277  54.895  1.00  0.00    -0.650 OA
BRANCH  16  18
HETATM   18  O2  UNL     1      30.180   0.758  53.454  1.00  0.00    -0.776 OA
HETATM   19  H1  UNL     1      30.376   1.274  52.614  1.00  0.00     0.167 HD
ENDBRANCH  16  18
ENDBRANCH  15  16
ENDBRANCH  12  15
ENDBRANCH   1  11
BRANCH   8  20
HETATM   20  N4  UNL     1      23.714   4.188  51.631  1.00  0.00    -0.246 NA
BRANCH  20  21
HETATM   21  P1  UNL     1      23.833   4.301  50.042  1.00  0.00    -0.013 P 
HETATM   22  C10 UNL     1      25.556   4.412  49.551  1.00  0.00     0.041 A 
HETATM   23  C11 UNL     1      26.203   5.387  48.930  1.00  0.00     0.012 A 
HETATM   24 BR1  UNL     1      28.060   5.291  48.501  1.00  0.00    -0.051 Br
HETATM   25  C12 UNL     1      25.404   6.535  48.596  1.00  0.00     0.015 A 
HETATM   26  C13 UNL     1      24.131   6.680  48.856  1.00  0.00    -0.019 A 
HETATM   27  C14 UNL     1      23.062   5.851  49.517  1.00  0.00     0.080 A 
HETATM   28  H8  UNL     1      23.189   3.239  49.414  1.00  0.00     0.081 HD
ENDBRANCH  20  21
ENDBRANCH   8  20
TORSDOF 6
ENDMDL
MODEL 3
REMARK VINA RESULT:      -7.8      1.900      2.310
REMARK  6 active torsions:
REMARK  status: ('A' for Active; 'I' for Inactive)
REMARK    1  A    between atoms: C1_2  and  O2_3 
REMARK    2  A    between atoms: C1_2  and  C2_4 
REMARK    3  A    between atoms: C2_4  and  C3_5 
REMARK       I    between atoms: C3_5  and  N1_7 
REMARK    4  A    between atoms: N1_7  and  C4_8 
REMARK    5  A    between atoms: C9_15  and  N4_16 
REMARK    6  A    between atoms: N4_16  and  P1_17 
ROOT
HETATM    1  C4  UNL     1      24.857   0.471  52.869  1.00  0.00     0.035 A 
HETATM    2  C5  UNL     1      24.089  -0.532  53.465  1.00  0.00     0.032 A 
HETATM    3  C6  UNL     1      22.706  -0.404  53.610  1.00  0.00     0.035 A 
HETATM    4  C7  UNL     1      22.110   0.752  53.147  1.00  0.00     0.072 A 
HETATM    5  N2  UNL     1      20.783   0.970  53.241  1.00  0.00    -0.241 NA
HETATM    6  C8  UNL     1      20.222   2.105  52.782  1.00  0.00     0.236 A 
HETATM    7  N3  UNL     1      20.982   3.057  52.212  1.00  0.00    -0.222 NA
HETATM    8  C9  UNL     1      22.315   2.925  52.076  1.00  0.00     0.162 A 
HETATM    9  C15 UNL     1      22.868   1.752  52.554  1.00  0.00     0.043 A 
HETATM   10  C16 UNL     1      24.231   1.617  52.415  1.00  0.00     0.047 A 
ENDROOT
BRANCH   1  11
HETATM   11  N1  UNL     1      26.221   0.104  52.841  1.00  0.00    -0.327 N 
HETATM   12  C3  UNL     1      27.076   0.673  53.846  1.00  0.00     0.232 C 
HETATM   13  O3  UNL     1      26.590   1.468  54.707  1.00  0.00    -0.273 OA
HETATM   14  H4  UNL     1      26.784  -0.517  52.229  1.00  0.00     0.169 HD
BRANCH  12  15
HETATM   15  C2  UNL     1      28.498   0.552  54.151  1.00  0.00     0.212 C 
BRANCH  15  16
HETATM   16  C1  UNL     1      29.211   1.842  54.323  1.00  0.00     0.148 C 
HETATM   17  O1  UNL     1      29.945   2.424  55.192  1.00  0.00    -0.650 OA
BRANCH  16  18
HETATM   18  O2  UNL     1      29.027   2.657  53.216  1.00  0.00    -0.776 OA
HETATM   19  H1  UNL     1      28.416   3.454  53.162  1.00  0.00     0.167 HD
ENDBRANCH  16  18
ENDBRANCH  15  16
ENDBRANCH  12  15
ENDBRANCH   1  11
BRANCH   8  20
HETATM   20  N4  UNL     1      23.134   3.943  51.466  1.00  0.00    -0.246 NA
BRANCH  20  21
HETATM   21  P1  UNL     1      22.331   4.982  50.556  1.00  0.00    -0.013 P 
HETATM   22  C10 UNL     1      21.977   4.264  48.950  1.00  0.00     0.041 A 
HETATM   23  C11 UNL     1      22.372   4.642  47.743  1.00  0.00     0.012 A 
HETATM   24 BR1  UNL     1      21.869   3.718  46.151  1.00  0.00    -0.051 Br
HETATM   25  C12 UNL     1      23.213   5.808  47.713  1.00  0.00     0.015 A 
HETATM   26  C13 UNL     1      23.604   6.494  48.754  1.00  0.00    -0.019 A 
HETATM   27  C14 UNL     1      23.395   6.411  50.243  1.00  0.00     0.080 A 
HETATM   28  H8  UNL     1      21.170   5.413  51.192  1.00  0.00     0.081 HD
ENDBRANCH  20  21
ENDBRANCH   8  20
TORSDOF 6
ENDMDL
MODEL 4
REMARK VINA RESULT:      -7.6      2.066      2.670
REMARK  6 active torsions:
REMARK  status: ('A' for Active; 'I' for Inactive)
REMARK    1  A    between atoms: C1_2  and  O2_3 
REMARK    2  A    between atoms: C1_2  and  C2_4 
REMARK    3  A    between atoms: C2_4  and  C3_5 
REMARK       I    between atoms: C3_5  and  N1_7 
REMARK    4  A    between atoms: N1_7  and  C4_8 
REMARK    5  A    between atoms: C9_15  and  N4_16 
REMARK    6  A    between atoms: N4_16  and  P1_17 
ROOT
HETATM    1  C4  UNL     1      24.734   1.534  52.586  1.00  0.00     0.035 A 
HETATM    2  C5  UNL     1      23.828   0.655  53.182  1.00  0.00     0.032 A 
HETATM    3  C6  UNL     1      22.593   0.370  52.596  1.00  0.00     0.035 A 
HETATM    4  C7  UNL     1      22.286   0.988  51.400  1.00  0.00     0.072 A 
HETATM    5  N2  UNL     1      21.119   0.779  50.755  1.00  0.00    -0.241 NA
HETATM    6  C8  UNL     1      20.840   1.391  49.589  1.00  0.00     0.236 A 
HETATM    7  N3  UNL     1      21.729   2.235  49.034  1.00  0.00    -0.222 NA
HETATM    8  C9  UNL     1      22.917   2.503  49.607  1.00  0.00     0.162 A 
HETATM    9  C15 UNL     1      23.182   1.863  50.802  1.00  0.00     0.043 A 
HETATM   10  C16 UNL     1      24.398   2.137  51.388  1.00  0.00     0.047 A 
ENDROOT
BRANCH   1  11
HETATM   11  N1  UNL     1      25.903   1.653  53.370  1.00  0.00    -0.327 N 
HETATM   12  C3  UNL     1      27.040   0.867  52.977  1.00  0.00     0.232 C 
HETATM   13  O3  UNL     1      26.961   0.111  51.962  1.00  0.00    -0.273 OA
HETATM   14  H4  UNL     1      26.148   2.206  54.213  1.00  0.00     0.169 HD
BRANCH  12  15
HETATM   15  C2  UNL     1      28.392   0.709  53.506  1.00  0.00     0.212 C 
BRANCH  15  16
HETATM   16  C1  UNL     1      29.023   1.961  53.992  1.00  0.00     0.148 C 
HETATM   17  O1  UNL     1      29.664   2.377  55.015  1.00  0.00    -0.650 OA
BRANCH  16  18
HETATM   18  O2  UNL     1      28.871   2.980  53.063  1.00  0.00    -0.776 OA
HETATM   19  H1  UNL     1      28.005   3.417  52.798  1.00  0.00     0.167 HD
ENDBRANCH  16  18
ENDBRANCH  15  16
ENDBRANCH  12  15
ENDBRANCH   1  11
BRANCH   8  20
HETATM   20  N4  UNL     1      23.873   3.407  49.015  1.00  0.00    -0.246 NA
BRANCH  20  21
HETATM   21  P1  UNL     1      23.409   4.935  48.988  1.00  0.00    -0.013 P 
HETATM   22  C10 UNL     1      24.824   6.013  48.749  1.00  0.00     0.041 A 
HETATM   23  C11 UNL     1      25.327   6.947  49.542  1.00  0.00     0.012 A 
HETATM   24 BR1  UNL     1      26.858   7.987  49.080  1.00  0.00    -0.051 Br
HETATM   25  C12 UNL     1      24.634   7.128  50.789  1.00  0.00     0.015 A 
HETATM   26  C13 UNL     1      23.582   6.458  51.181  1.00  0.00    -0.019 A 
HETATM   27  C14 UNL     1      22.728   5.357  50.611  1.00  0.00     0.080 A 
HETATM   28  H8  UNL     1      22.434   5.147  48.019  1.00  0.00     0.081 HD
ENDBRANCH  20  21
ENDBRANCH   8  20
TORSDOF 6
ENDMDL
MODEL 5
REMARK VINA RESULT:      -7.6      4.332      7.221
REMARK  6 active torsions:
REMARK  status: ('A' for Active; 'I' for Inactive)
REMARK    1  A    between atoms: C1_2  and  O2_3 
REMARK    2  A    between atoms: C1_2  and  C2_4 
REMARK    3  A    between atoms: C2_4  and  C3_5 
REMARK       I    between atoms: C3_5  and  N1_7 
REMARK    4  A    between atoms: N1_7  and  C4_8 
REMARK    5  A    between atoms: C9_15  and  N4_16 
REMARK    6  A    between atoms: N4_16  and  P1_17 
ROOT
HETATM    1  C4  UNL     1      27.079   6.103  48.849  1.00  0.00     0.035 A 
HETATM    2  C5  UNL     1      26.071   6.920  48.332  1.00  0.00     0.032 A 
HETATM    3  C6  UNL     1      24.731   6.529  48.351  1.00  0.00     0.035 A 
HETATM    4  C7  UNL     1      24.423   5.299  48.897  1.00  0.00     0.072 A 
HETATM    5  N2  UNL     1      23.160   4.830  48.961  1.00  0.00    -0.241 NA
HETATM    6  C8  UNL     1      22.881   3.628  49.499  1.00  0.00     0.236 A 
HETATM    7  N3  UNL     1      23.869   2.858  49.990  1.00  0.00    -0.222 NA
HETATM    8  C9  UNL     1      25.158   3.244  49.969  1.00  0.00     0.162 A 
HETATM    9  C15 UNL     1      25.420   4.481  49.412  1.00  0.00     0.043 A 
HETATM   10  C16 UNL     1      26.739   4.876  49.390  1.00  0.00     0.047 A 
ENDROOT
BRANCH   1  11
HETATM   11  N1  UNL     1      28.341   6.721  48.713  1.00  0.00    -0.327 N 
HETATM   12  C3  UNL     1      29.426   5.904  48.245  1.00  0.00     0.232 C 
HETATM   13  O3  UNL     1      29.221   4.682  47.975  1.00  0.00    -0.273 OA
HETATM   14  H4  UNL     1      28.690   7.684  48.882  1.00  0.00     0.169 HD
BRANCH  12  15
HETATM   15  C2  UNL     1      30.840   6.154  47.979  1.00  0.00     0.212 C 
BRANCH  15  16
HETATM   16  C1  UNL     1      31.746   5.899  49.126  1.00  0.00     0.148 C 
HETATM   17  O1  UNL     1      32.993   5.963  49.396  1.00  0.00    -0.650 OA
BRANCH  16  18
HETATM   18  O2  UNL     1      31.030   5.459  50.230  1.00  0.00    -0.776 OA
HETATM   19  H1  UNL     1      31.362   4.828  50.939  1.00  0.00     0.167 HD
ENDBRANCH  16  18
ENDBRANCH  15  16
ENDBRANCH  12  15
ENDBRANCH   1  11
BRANCH   8  20
HETATM   20  N4  UNL     1      26.220   2.421  50.494  1.00  0.00    -0.246 NA
BRANCH  20  21
HETATM   21  P1  UNL     1      26.115   2.126  52.060  1.00  0.00    -0.013 P 
HETATM   22  C10 UNL     1      27.629   1.369  52.656  1.00  0.00     0.041 A 
HETATM   23  C11 UNL     1      27.830   0.175  53.193  1.00  0.00     0.012 A 
HETATM   24 BR1  UNL     1      29.547  -0.432  53.763  1.00  0.00    -0.051 Br
HETATM   25  C12 UNL     1      26.654  -0.644  53.320  1.00  0.00     0.015 A 
HETATM   26  C13 UNL     1      25.446  -0.305  52.954  1.00  0.00    -0.019 A 
HETATM   27  C14 UNL     1      24.807   0.906  52.328  1.00  0.00     0.080 A 
HETATM   28  H8  UNL     1      25.807   3.283  52.770  1.00  0.00     0.081 HD
ENDBRANCH  20  21
ENDBRANCH   8  20
TORSDOF 6
ENDMDL
MODEL 6
REMARK VINA RESULT:      -7.4      3.850      5.956
REMARK  6 active torsions:
REMARK  status: ('A' for Active; 'I' for Inactive)
REMARK    1  A    between atoms: C1_2  and  O2_3 
REMARK    2  A    between atoms: C1_2  and  C2_4 
REMARK    3  A    between atoms: C2_4  and  C3_5 
REMARK       I    between atoms: C3_5  and  N1_7 
REMARK    4  A    between atoms: N1_7  and  C4_8 
REMARK    5  A    between atoms: C9_15  and  N4_16 
REMARK    6  A    between atoms: N4_16  and  P1_17 
ROOT
HETATM    1  C4  UNL     1      26.108   1.928  51.576  1.00  0.00     0.035 A 
HETATM    2  C5  UNL     1      27.237   1.868  52.396  1.00  0.00     0.032 A 
HETATM    3  C6  UNL     1      27.248   1.114  53.571  1.00  0.00     0.035 A 
HETATM    4  C7  UNL     1      26.101   0.423  53.908  1.00  0.00     0.072 A 
HETATM    5  N2  UNL     1      26.011  -0.332  55.022  1.00  0.00    -0.241 NA
HETATM    6  C8  UNL     1      24.883  -0.998  55.332  1.00  0.00     0.236 A 
HETATM    7  N3  UNL     1      23.807  -0.925  54.527  1.00  0.00    -0.222 NA
HETATM    8  C9  UNL     1      23.806  -0.196  53.395  1.00  0.00     0.162 A 
HETATM    9  C15 UNL     1      24.975   0.479  53.098  1.00  0.00     0.043 A 
HETATM   10  C16 UNL     1      24.974   1.225  51.941  1.00  0.00     0.047 A 
ENDROOT
BRANCH   1  11
HETATM   11  N1  UNL     1      26.349   2.751  50.454  1.00  0.00    -0.327 N 
HETATM   12  C3  UNL     1      25.651   4.005  50.397  1.00  0.00     0.232 C 
HETATM   13  O3  UNL     1      24.859   4.327  51.334  1.00  0.00    -0.273 OA
HETATM   14  H4  UNL     1      26.947   2.657  49.612  1.00  0.00     0.169 HD
BRANCH  12  15
HETATM   15  C2  UNL     1      25.624   5.106  49.438  1.00  0.00     0.212 C 
BRANCH  15  16
HETATM   16  C1  UNL     1      25.069   6.378  49.962  1.00  0.00     0.148 C 
HETATM   17  O1  UNL     1      24.008   7.081  49.847  1.00  0.00    -0.650 OA
BRANCH  16  18
HETATM   18  O2  UNL     1      25.963   6.983  50.833  1.00  0.00    -0.776 OA
HETATM   19  H1  UNL     1      25.902   7.922  51.187  1.00  0.00     0.167 HD
ENDBRANCH  16  18
ENDBRANCH  15  16
ENDBRANCH  12  15
ENDBRANCH   1  11
BRANCH   8  20
HETATM   20  N4  UNL     1      22.655  -0.114  52.530  1.00  0.00    -0.246 NA
BRANCH  20  21
HETATM   21  P1  UNL     1      21.359   0.524  53.211  1.00  0.00    -0.013 P 
HETATM   22  C10 UNL     1      20.139  -0.748  53.546  1.00  0.00     0.041 A 
HETATM   23  C11 UNL     1      18.911  -0.897  53.071  1.00  0.00     0.012 A 
HETATM   24 BR1  UNL     1      17.772  -2.344  53.571  1.00  0.00    -0.051 Br
HETATM   25  C12 UNL     1      18.488   0.117  52.143  1.00  0.00     0.015 A 
HETATM   26  C13 UNL     1      19.205   1.137  51.748  1.00  0.00    -0.019 A 
HETATM   27  C14 UNL     1      20.590   1.657  52.029  1.00  0.00     0.080 A 
HETATM   28  H8  UNL     1      21.693   1.230  54.363  1.00  0.00     0.081 HD
ENDBRANCH  20  21
ENDBRANCH   8  20
TORSDOF 6
ENDMDL
MODEL 7
REMARK VINA RESULT:      -7.4      3.027      5.017
REMARK  6 active torsions:
REMARK  status: ('A' for Active; 'I' for Inactive)
REMARK    1  A    between atoms: C1_2  and  O2_3 
REMARK    2  A    between atoms: C1_2  and  C2_4 
REMARK    3  A    between atoms: C2_4  and  C3_5 
REMARK       I    between atoms: C3_5  and  N1_7 
REMARK    4  A    between atoms: N1_7  and  C4_8 
REMARK    5  A    between atoms: C9_15  and  N4_16 
REMARK    6  A    between atoms: N4_16  and  P1_17 
ROOT
HETATM    1  C4  UNL     1      25.790   2.108  51.732  1.00  0.00     0.035 A 
HETATM    2  C5  UNL     1      26.674   2.515  50.730  1.00  0.00     0.032 A 
HETATM    3  C6  UNL     1      26.395   3.609  49.908  1.00  0.00     0.035 A 
HETATM    4  C7  UNL     1      25.208   4.285  50.112  1.00  0.00     0.072 A 
HETATM    5  N2  UNL     1      24.847   5.353  49.371  1.00  0.00    -0.241 NA
HETATM    6  C8  UNL     1      23.686   5.999  49.586  1.00  0.00     0.236 A 
HETATM    7  N3  UNL     1      22.850   5.589  50.557  1.00  0.00    -0.222 NA
HETATM    8  C9  UNL     1      23.127   4.533  51.345  1.00  0.00     0.162 A 
HETATM    9  C15 UNL     1      24.325   3.886  51.106  1.00  0.00     0.043 A 
HETATM   10  C16 UNL     1      24.609   2.807  51.911  1.00  0.00     0.047 A 
ENDROOT
BRANCH   1  11
HETATM   11  N1  UNL     1      26.299   0.985  52.420  1.00  0.00    -0.327 N 
HETATM   12  C3  UNL     1      27.128   1.237  53.566  1.00  0.00     0.232 C 
HETATM   13  O3  UNL     1      27.372   2.432  53.915  1.00  0.00    -0.273 OA
HETATM   14  H4  UNL     1      26.209  -0.040  52.285  1.00  0.00     0.169 HD
BRANCH  12  15
HETATM   15  C2  UNL     1      27.827   0.379  54.518  1.00  0.00     0.212 C 
BRANCH  15  16
HETATM   16  C1  UNL     1      29.173  -0.069  54.083  1.00  0.00     0.148 C 
HETATM   17  O1  UNL     1      29.833  -1.158  53.970  1.00  0.00    -0.650 OA
BRANCH  16  18
HETATM   18  O2  UNL     1      29.945   1.012  53.681  1.00  0.00    -0.776 OA
HETATM   19  H1  UNL     1      30.291   1.180  52.752  1.00  0.00     0.167 HD
ENDBRANCH  16  18
ENDBRANCH  15  16
ENDBRANCH  12  15
ENDBRANCH   1  11
BRANCH   8  20
HETATM   20  N4  UNL     1      22.234   4.090  52.386  1.00  0.00    -0.246 NA
BRANCH  20  21
HETATM   21  P1  UNL     1      20.995   3.223  51.871  1.00  0.00    -0.013 P 
HETATM   22  C10 UNL     1      20.791   1.759  52.888  1.00  0.00     0.041 A 
HETATM   23  C11 UNL     1      20.876   0.477  52.563  1.00  0.00     0.012 A 
HETATM   24 BR1  UNL     1      20.618  -0.932  53.823  1.00  0.00    -0.051 Br
HETATM   25  C12 UNL     1      21.179   0.216  51.182  1.00  0.00     0.015 A 
HETATM   26  C13 UNL     1      21.370   1.122  50.258  1.00  0.00    -0.019 A 
HETATM   27  C14 UNL     1      21.367   2.626  50.204  1.00  0.00     0.080 A 
HETATM   28  H8  UNL     1      19.831   3.985  51.830  1.00  0.00     0.081 HD
ENDBRANCH  20  21
ENDBRANCH   8  20
TORSDOF 6
ENDMDL
MODEL 8
REMARK VINA RESULT:      -7.3      1.891      2.295
REMARK  6 active torsions:
REMARK  status: ('A' for Active; 'I' for Inactive)
REMARK    1  A    between atoms: C1_2  and  O2_3 
REMARK    2  A    between atoms: C1_2  and  C2_4 
REMARK    3  A    between atoms: C2_4  and  C3_5 
REMARK       I    between atoms: C3_5  and  N1_7 
REMARK    4  A    between atoms: N1_7  and  C4_8 
REMARK    5  A    between atoms: C9_15  and  N4_16 
REMARK    6  A    between atoms: N4_16  and  P1_17 
ROOT
HETATM    1  C4  UNL     1      23.866  -0.719  54.111  1.00  0.00     0.035 A 
HETATM    2  C5  UNL     1      23.009  -1.356  55.011  1.00  0.00     0.032 A 
HETATM    3  C6  UNL     1      21.625  -1.357  54.826  1.00  0.00     0.035 A 
HETATM    4  C7  UNL     1      21.119  -0.704  53.720  1.00  0.00     0.072 A 
HETATM    5  N2  UNL     1      19.798  -0.648  53.454  1.00  0.00    -0.241 NA
HETATM    6  C8  UNL     1      19.325  -0.006  52.369  1.00  0.00     0.236 A 
HETATM    7  N3  UNL     1      20.170   0.601  51.516  1.00  0.00    -0.222 NA
HETATM    8  C9  UNL     1      21.503   0.597  51.702  1.00  0.00     0.162 A 
HETATM    9  C15 UNL     1      21.965  -0.068  52.822  1.00  0.00     0.043 A 
HETATM   10  C16 UNL     1      23.329  -0.073  53.013  1.00  0.00     0.047 A 
ENDROOT
BRANCH   1  11
HETATM   11  N1  UNL     1      25.211  -0.862  54.517  1.00  0.00    -0.327 N 
HETATM   12  C3  UNL     1      26.069   0.281  54.362  1.00  0.00     0.232 C 
HETATM   13  O3  UNL     1      25.602   1.355  53.877  1.00  0.00    -0.273 OA
HETATM   14  H4  UNL     1      25.758  -1.643  54.926  1.00  0.00     0.169 HD
BRANCH  12  15
HETATM   15  C2  UNL     1      27.477   0.535  54.652  1.00  0.00     0.212 C 
BRANCH  15  16
HETATM   16  C1  UNL     1      28.122   1.543  53.775  1.00  0.00     0.148 C 
HETATM   17  O1  UNL     1      28.866   1.576  52.736  1.00  0.00    -0.650 OA
BRANCH  16  18
HETATM   18  O2  UNL     1      27.835   2.829  54.209  1.00  0.00    -0.776 OA
HETATM   19  H1  UNL     1      28.489   3.480  54.607  1.00  0.00     0.167 HD
ENDBRANCH  16  18
ENDBRANCH  15  16
ENDBRANCH  12  15
ENDBRANCH   1  11
BRANCH   8  20
HETATM   20  N4  UNL     1      22.412   1.246  50.791  1.00  0.00    -0.246 NA
BRANCH  20  21
HETATM   21  P1  UNL     1      22.147   2.809  50.593  1.00  0.00    -0.013 P 
HETATM   22  C10 UNL     1      21.133   3.091  49.139  1.00  0.00     0.041 A 
HETATM   23  C11 UNL     1      21.410   3.747  48.022  1.00  0.00     0.012 A 
HETATM   24 BR1  UNL     1      20.165   3.925  46.587  1.00  0.00    -0.051 Br
HETATM   25  C12 UNL     1      22.727   4.324  47.962  1.00  0.00     0.015 A 
HETATM   26  C13 UNL     1      23.636   4.247  48.898  1.00  0.00    -0.019 A 
HETATM   27  C14 UNL     1      23.730   3.622  50.265  1.00  0.00     0.080 A 
HETATM   28  H8  UNL     1      21.578   3.371  51.732  1.00  0.00     0.081 HD
ENDBRANCH  20  21
ENDBRANCH   8  20
TORSDOF 6
ENDMDL
MODEL 9
REMARK VINA RESULT:      -7.2      2.920      4.947
REMARK  6 active torsions:
REMARK  status: ('A' for Active; 'I' for Inactive)
REMARK    1  A    between atoms: C1_2  and  O2_3 
REMARK    2  A    between atoms: C1_2  and  C2_4 
REMARK    3  A    between atoms: C2_4  and  C3_5 
REMARK       I    between atoms: C3_5  and  N1_7 
REMARK    4  A    between atoms: N1_7  and  C4_8 
REMARK    5  A    between atoms: C9_15  and  N4_16 
REMARK    6  A    between atoms: N4_16  and  P1_17 
ROOT
HETATM    1  C4  UNL     1      25.313   1.243  52.153  1.00  0.00     0.035 A 
HETATM    2  C5  UNL     1      25.983   2.059  51.239  1.00  0.00     0.032 A 
HETATM    3  C6  UNL     1      25.316   3.054  50.521  1.00  0.00     0.035 A 
HETATM    4  C7  UNL     1      23.962   3.211  50.739  1.00  0.00     0.072 A 
HETATM    5  N2  UNL     1      23.229   4.143  50.096  1.00  0.00    -0.241 NA
HETATM    6  C8  UNL     1      21.909   4.280  50.324  1.00  0.00     0.236 A 
HETATM    7  N3  UNL     1      21.285   3.483  51.209  1.00  0.00    -0.222 NA
HETATM    8  C9  UNL     1      21.937   2.526  51.897  1.00  0.00     0.162 A 
HETATM    9  C15 UNL     1      23.290   2.403  51.647  1.00  0.00     0.043 A 
HETATM   10  C16 UNL     1      23.957   1.425  52.350  1.00  0.00     0.047 A 
ENDROOT
BRANCH   1  11
HETATM   11  N1  UNL     1      26.205   0.321  52.746  1.00  0.00    -0.327 N 
HETATM   12  C3  UNL     1      26.960   0.774  53.881  1.00  0.00     0.232 C 
HETATM   13  O3  UNL     1      26.805   1.959  54.306  1.00  0.00    -0.273 OA
HETATM   14  H4  UNL     1      26.458  -0.664  52.541  1.00  0.00     0.169 HD
BRANCH  12  15
HETATM   15  C2  UNL     1      27.955   0.151  54.749  1.00  0.00     0.212 C 
BRANCH  15  16
HETATM   16  C1  UNL     1      29.275  -0.087  54.115  1.00  0.00     0.148 C 
HETATM   17  O1  UNL     1      30.091  -1.053  53.932  1.00  0.00    -0.650 OA
BRANCH  16  18
HETATM   18  O2  UNL     1      29.770   1.082  53.557  1.00  0.00    -0.776 OA
HETATM   19  H1  UNL     1      29.932   1.250  52.579  1.00  0.00     0.167 HD
ENDBRANCH  16  18
ENDBRANCH  15  16
ENDBRANCH  12  15
ENDBRANCH   1  11
BRANCH   8  20
HETATM   20  N4  UNL     1      21.272   1.668  52.846  1.00  0.00    -0.246 NA
BRANCH  20  21
HETATM   21  P1  UNL     1      20.814   0.257  52.256  1.00  0.00    -0.013 P 
HETATM   22  C10 UNL     1      19.432   0.468  51.131  1.00  0.00     0.041 A 
HETATM   23  C11 UNL     1      18.192   0.006  51.208  1.00  0.00     0.012 A 
HETATM   24 BR1  UNL     1      16.869   0.359  49.880  1.00  0.00    -0.051 Br
HETATM   25  C12 UNL     1      17.908  -0.787  52.373  1.00  0.00     0.015 A 
HETATM   26  C13 UNL     1      18.755  -1.073  53.327  1.00  0.00    -0.019 A 
HETATM   27  C14 UNL     1      20.198  -0.762  53.619  1.00  0.00     0.080 A 
HETATM   28  H8  UNL     1      21.877  -0.401  51.644  1.00  0.00     0.081 HD
ENDBRANCH  20  21
ENDBRANCH   8  20
TORSDOF 6
ENDMDL
