MODEL 1
REMARK VINA RESULT:      -8.2      0.000      0.000
REMARK  3 active torsions:
REMARK  status: ('A' for Active; 'I' for Inactive)
REMARK    1  A    between atoms: C2_2  and  N1_4 
REMARK    2  A    between atoms: C4_6  and  C5_7 
REMARK    3  A    between atoms: C14_17  and  N4_18 
ROOT
HETATM    1  N1  UNL     1      25.304   3.735  50.281  1.00  0.00    -0.247 N 
HETATM    2  N2  UNL     1      26.184   2.911  50.762  1.00  0.00    -0.167 NA
HETATM    3  C4  UNL     1      25.672   2.065  51.628  1.00  0.00     0.121 A 
HETATM    4  C13 UNL     1      24.365   2.424  51.659  1.00  0.00     0.084 A 
HETATM    5  C14 UNL     1      23.200   2.026  52.281  1.00  0.00     0.118 A 
HETATM    6  N5  UNL     1      21.986   2.576  52.107  1.00  0.00    -0.229 NA
HETATM    7  C15 UNL     1      21.834   3.625  51.245  1.00  0.00     0.237 A 
HETATM    8  N6  UNL     1      22.919   4.082  50.590  1.00  0.00    -0.222 NA
HETATM    9  C16 UNL     1      24.093   3.500  50.803  1.00  0.00     0.163 A 
ENDROOT
BRANCH   3  10
HETATM   10  C5  UNL     1      26.291   1.002  52.329  1.00  0.00     0.063 C 
HETATM   11  C6  UNL     1      26.488  -0.362  52.314  1.00  0.00     0.040 C 
HETATM   12  C7  UNL     1      27.574  -0.596  53.351  1.00  0.00    -0.042 C 
HETATM   13  C8  UNL     1      28.754  -1.145  53.246  1.00  0.00    -0.018 C 
HETATM   14  C12 UNL     1      26.874   0.240  54.477  1.00  0.00     0.161 C 
HETATM   15  C9  UNL     1      29.794  -0.096  53.607  1.00  0.00     0.029 C 
HETATM   16  C10 UNL     1      29.472   1.158  54.209  1.00  0.00     0.023 C 
HETATM   17  C11 UNL     1      28.356   2.109  53.750  1.00  0.00     0.123 C 
HETATM   18  N3  UNL     1      27.195   1.306  53.429  1.00  0.00    -0.375 N 
ENDBRANCH   3  10
BRANCH   1  19
HETATM   19  C2  UNL     1      25.700   4.726  49.320  1.00  0.00     0.104 C 
HETATM   20  C1  UNL     1      27.161   4.563  48.903  1.00  0.00     0.034 C 
HETATM   21  C3  UNL     1      25.599   6.086  49.987  1.00  0.00     0.034 C 
ENDBRANCH   1  19
BRANCH   5  22
HETATM   22  N4  UNL     1      23.203   0.935  53.168  1.00  0.00    -0.286 NA
HETATM   23  H18 UNL     1      23.026   1.380  54.083  1.00  0.00     0.125 HD
HETATM   24  H19 UNL     1      23.028   1.274  54.160  1.00  0.00     0.125 HD
ENDBRANCH   5  22
TORSDOF 3
ENDMDL
MODEL 2
REMARK VINA RESULT:      -8.0      2.333      3.413
REMARK  3 active torsions:
REMARK  status: ('A' for Active; 'I' for Inactive)
REMARK    1  A    between atoms: C2_2  and  N1_4 
REMARK    2  A    between atoms: C4_6  and  C5_7 
REMARK    3  A    between atoms: C14_17  and  N4_18 
ROOT
HETATM    1  N1  UNL     1      22.379   1.158  51.417  1.00  0.00    -0.247 N 
HETATM    2  N2  UNL     1      23.657   1.048  51.619  1.00  0.00    -0.167 NA
HETATM    3  C4  UNL     1      23.945   0.351  52.695  1.00  0.00     0.121 A 
HETATM    4  C13 UNL     1      22.721   0.017  53.173  1.00  0.00     0.084 A 
HETATM    5  C14 UNL     1      22.182  -0.699  54.221  1.00  0.00     0.118 A 
HETATM    6  N5  UNL     1      20.872  -0.889  54.455  1.00  0.00    -0.229 NA
HETATM    7  C15 UNL     1      19.947  -0.348  53.607  1.00  0.00     0.237 A 
HETATM    8  N6  UNL     1      20.381   0.368  52.553  1.00  0.00    -0.222 NA
HETATM    9  C16 UNL     1      21.687   0.523  52.373  1.00  0.00     0.163 A 
ENDROOT
BRANCH   3  10
HETATM   10  C5  UNL     1      25.206  -0.020  53.221  1.00  0.00     0.063 C 
HETATM   11  C6  UNL     1      26.129  -1.043  53.255  1.00  0.00     0.040 C 
HETATM   12  C7  UNL     1      27.371  -0.408  53.859  1.00  0.00    -0.042 C 
HETATM   13  C8  UNL     1      28.585  -0.289  53.392  1.00  0.00    -0.018 C 
HETATM   14  C12 UNL     1      26.624   0.225  55.082  1.00  0.00     0.161 C 
HETATM   15  C9  UNL     1      28.899   1.193  53.271  1.00  0.00     0.029 C 
HETATM   16  C10 UNL     1      28.084   2.220  53.837  1.00  0.00     0.023 C 
HETATM   17  C11 UNL     1      26.555   2.313  53.721  1.00  0.00     0.123 C 
HETATM   18  N3  UNL     1      26.017   0.980  53.901  1.00  0.00    -0.375 N 
ENDBRANCH   3  10
BRANCH   1  19
HETATM   19  C2  UNL     1      21.893   1.890  50.280  1.00  0.00     0.104 C 
HETATM   20  C1  UNL     1      21.379   0.961  49.182  1.00  0.00     0.034 C 
HETATM   21  C3  UNL     1      23.066   2.647  49.682  1.00  0.00     0.034 C 
ENDBRANCH   1  19
BRANCH   5  22
HETATM   22  N4  UNL     1      23.020  -1.340  55.150  1.00  0.00    -0.286 NA
HETATM   23  H18 UNL     1      23.378  -0.555  55.718  1.00  0.00     0.125 HD
HETATM   24  H19 UNL     1      23.455  -0.622  55.801  1.00  0.00     0.125 HD
ENDBRANCH   5  22
TORSDOF 3
ENDMDL
MODEL 3
REMARK VINA RESULT:      -7.7      2.007      6.451
REMARK  3 active torsions:
REMARK  status: ('A' for Active; 'I' for Inactive)
REMARK    1  A    between atoms: C2_2  and  N1_4 
REMARK    2  A    between atoms: C4_6  and  C5_7 
REMARK    3  A    between atoms: C14_17  and  N4_18 
ROOT
HETATM    1  N1  UNL     1      23.336   0.006  53.329  1.00  0.00    -0.247 N 
HETATM    2  N2  UNL     1      22.800   1.168  53.114  1.00  0.00    -0.167 NA
HETATM    3  C4  UNL     1      23.667   2.060  52.690  1.00  0.00     0.121 A 
HETATM    4  C13 UNL     1      24.825   1.356  52.650  1.00  0.00     0.084 A 
HETATM    5  C14 UNL     1      26.145   1.559  52.304  1.00  0.00     0.118 A 
HETATM    6  N5  UNL     1      27.121   0.637  52.349  1.00  0.00    -0.229 NA
HETATM    7  C15 UNL     1      26.836  -0.634  52.764  1.00  0.00     0.237 A 
HETATM    8  N6  UNL     1      25.571  -0.925  53.121  1.00  0.00    -0.222 NA
HETATM    9  C16 UNL     1      24.648   0.027  53.057  1.00  0.00     0.163 A 
ENDROOT
BRANCH   3  10
HETATM   10  C5  UNL     1      23.465   3.410  52.312  1.00  0.00     0.063 C 
HETATM   11  C6  UNL     1      23.500   4.704  52.784  1.00  0.00     0.040 C 
HETATM   12  C7  UNL     1      23.413   5.563  51.534  1.00  0.00    -0.042 C 
HETATM   13  C8  UNL     1      24.224   6.472  51.061  1.00  0.00    -0.018 C 
HETATM   14  C12 UNL     1      22.173   4.814  50.936  1.00  0.00     0.161 C 
HETATM   15  C9  UNL     1      24.714   6.003  49.701  1.00  0.00     0.029 C 
HETATM   16  C10 UNL     1      24.148   4.898  48.996  1.00  0.00     0.023 C 
HETATM   17  C11 UNL     1      23.834   3.520  49.599  1.00  0.00     0.123 C 
HETATM   18  N3  UNL     1      23.253   3.733  50.909  1.00  0.00    -0.375 N 
ENDBRANCH   3  10
BRANCH   1  19
HETATM   19  C2  UNL     1      22.524  -1.083  53.796  1.00  0.00     0.104 C 
HETATM   20  C1  UNL     1      21.033  -0.771  53.679  1.00  0.00     0.034 C 
HETATM   21  C3  UNL     1      22.804  -1.268  55.276  1.00  0.00     0.034 C 
ENDBRANCH   1  19
BRANCH   5  22
HETATM   22  N4  UNL     1      26.571   2.810  51.826  1.00  0.00    -0.286 NA
HETATM   23  H18 UNL     1      26.676   2.645  50.812  1.00  0.00     0.125 HD
HETATM   24  H19 UNL     1      26.716   2.765  50.774  1.00  0.00     0.125 HD
ENDBRANCH   5  22
TORSDOF 3
ENDMDL
MODEL 4
REMARK VINA RESULT:      -7.6      1.881      5.825
REMARK  3 active torsions:
REMARK  status: ('A' for Active; 'I' for Inactive)
REMARK    1  A    between atoms: C2_2  and  N1_4 
REMARK    2  A    between atoms: C4_6  and  C5_7 
REMARK    3  A    between atoms: C14_17  and  N4_18 
ROOT
HETATM    1  N1  UNL     1      24.589   0.237  53.507  1.00  0.00    -0.247 N 
HETATM    2  N2  UNL     1      24.790   1.430  53.036  1.00  0.00    -0.167 NA
HETATM    3  C4  UNL     1      23.673   2.057  52.741  1.00  0.00     0.121 A 
HETATM    4  C13 UNL     1      22.723   1.147  53.071  1.00  0.00     0.084 A 
HETATM    5  C14 UNL     1      21.347   1.048  53.079  1.00  0.00     0.118 A 
HETATM    6  N5  UNL     1      20.637  -0.014  53.493  1.00  0.00    -0.229 NA
HETATM    7  C15 UNL     1      21.284  -1.124  53.960  1.00  0.00     0.237 A 
HETATM    8  N6  UNL     1      22.631  -1.118  53.990  1.00  0.00    -0.222 NA
HETATM    9  C16 UNL     1      23.280  -0.039  53.568  1.00  0.00     0.163 A 
ENDROOT
BRANCH   3  10
HETATM   10  C5  UNL     1      23.476   3.370  52.250  1.00  0.00     0.063 C 
HETATM   11  C6  UNL     1      23.247   4.671  52.642  1.00  0.00     0.040 C 
HETATM   12  C7  UNL     1      23.472   5.490  51.381  1.00  0.00    -0.042 C 
HETATM   13  C8  UNL     1      24.303   6.466  51.132  1.00  0.00    -0.018 C 
HETATM   14  C12 UNL     1      22.550   4.605  50.474  1.00  0.00     0.161 C 
HETATM   15  C9  UNL     1      25.229   6.021  50.011  1.00  0.00     0.029 C 
HETATM   16  C10 UNL     1      25.010   4.848  49.227  1.00  0.00     0.023 C 
HETATM   17  C11 UNL     1      24.652   3.459  49.776  1.00  0.00     0.123 C 
HETATM   18  N3  UNL     1      23.679   3.639  50.833  1.00  0.00    -0.375 N 
ENDBRANCH   3  10
BRANCH   1  19
HETATM   19  C2  UNL     1      25.708  -0.583  53.881  1.00  0.00     0.104 C 
HETATM   20  C1  UNL     1      26.676   0.160  54.800  1.00  0.00     0.034 C 
HETATM   21  C3  UNL     1      26.485  -0.908  52.618  1.00  0.00     0.034 C 
ENDBRANCH   1  19
BRANCH   5  22
HETATM   22  N4  UNL     1      20.553   2.129  52.659  1.00  0.00    -0.286 NA
HETATM   23  H18 UNL     1      21.189   2.937  52.761  1.00  0.00     0.125 HD
HETATM   24  H19 UNL     1      21.109   3.033  52.721  1.00  0.00     0.125 HD
ENDBRANCH   5  22
TORSDOF 3
ENDMDL
MODEL 5
REMARK VINA RESULT:      -7.5      1.483      5.552
REMARK  3 active torsions:
REMARK  status: ('A' for Active; 'I' for Inactive)
REMARK    1  A    between atoms: C2_2  and  N1_4 
REMARK    2  A    between atoms: C4_6  and  C5_7 
REMARK    3  A    between atoms: C14_17  and  N4_18 
ROOT
HETATM    1  N1  UNL     1      26.865   0.739  53.887  1.00  0.00    -0.247 N 
HETATM    2  N2  UNL     1      26.706   1.741  53.077  1.00  0.00    -0.167 NA
HETATM    3  C4  UNL     1      25.457   1.896  52.697  1.00  0.00     0.121 A 
HETATM    4  C13 UNL     1      24.820   0.890  53.346  1.00  0.00     0.084 A 
HETATM    5  C14 UNL     1      23.538   0.401  53.485  1.00  0.00     0.118 A 
HETATM    6  N5  UNL     1      23.173  -0.649  54.240  1.00  0.00    -0.229 NA
HETATM    7  C15 UNL     1      24.116  -1.328  54.958  1.00  0.00     0.237 A 
HETATM    8  N6  UNL     1      25.398  -0.920  54.885  1.00  0.00    -0.222 NA
HETATM    9  C16 UNL     1      25.699   0.123  54.122  1.00  0.00     0.163 A 
ENDROOT
BRANCH   3  10
HETATM   10  C5  UNL     1      24.882   2.885  51.863  1.00  0.00     0.063 C 
HETATM   11  C6  UNL     1      23.995   3.940  51.853  1.00  0.00     0.040 C 
HETATM   12  C7  UNL     1      24.243   4.627  50.521  1.00  0.00    -0.042 C 
HETATM   13  C8  UNL     1      24.597   5.854  50.242  1.00  0.00    -0.018 C 
HETATM   14  C12 UNL     1      24.153   3.316  49.668  1.00  0.00     0.161 C 
HETATM   15  C9  UNL     1      25.935   5.805  49.523  1.00  0.00     0.029 C 
HETATM   16  C10 UNL     1      26.519   4.601  49.025  1.00  0.00     0.023 C 
HETATM   17  C11 UNL     1      26.643   3.280  49.800  1.00  0.00     0.123 C 
HETATM   18  N3  UNL     1      25.401   3.070  50.515  1.00  0.00    -0.375 N 
ENDBRANCH   3  10
BRANCH   1  19
HETATM   19  C2  UNL     1      28.172   0.432  54.398  1.00  0.00     0.104 C 
HETATM   20  C1  UNL     1      29.119   1.626  54.292  1.00  0.00     0.034 C 
HETATM   21  C3  UNL     1      28.766  -0.660  53.526  1.00  0.00     0.034 C 
ENDBRANCH   1  19
BRANCH   5  22
HETATM   22  N4  UNL     1      22.462   1.025  52.829  1.00  0.00    -0.286 NA
HETATM   23  H18 UNL     1      22.894   1.879  52.439  1.00  0.00     0.125 HD
HETATM   24  H19 UNL     1      22.789   1.932  52.380  1.00  0.00     0.125 HD
ENDBRANCH   5  22
TORSDOF 3
ENDMDL
MODEL 6
REMARK VINA RESULT:      -7.4      2.117      6.167
REMARK  3 active torsions:
REMARK  status: ('A' for Active; 'I' for Inactive)
REMARK    1  A    between atoms: C2_2  and  N1_4 
REMARK    2  A    between atoms: C4_6  and  C5_7 
REMARK    3  A    between atoms: C14_17  and  N4_18 
ROOT
HETATM    1  N1  UNL     1      24.700  -0.054  53.192  1.00  0.00    -0.247 N 
HETATM    2  N2  UNL     1      24.798   0.790  52.211  1.00  0.00    -0.167 NA
HETATM    3  C4  UNL     1      23.643   1.324  51.879  1.00  0.00     0.121 A 
HETATM    4  C13 UNL     1      22.783   0.739  52.749  1.00  0.00     0.084 A 
HETATM    5  C14 UNL     1      21.439   0.779  53.055  1.00  0.00     0.118 A 
HETATM    6  N5  UNL     1      20.829   0.072  54.022  1.00  0.00    -0.229 NA
HETATM    7  C15 UNL     1      21.560  -0.776  54.805  1.00  0.00     0.237 A 
HETATM    8  N6  UNL     1      22.884  -0.880  54.580  1.00  0.00    -0.222 NA
HETATM    9  C16 UNL     1      23.431  -0.157  53.610  1.00  0.00     0.163 A 
ENDROOT
BRANCH   3  10
HETATM   10  C5  UNL     1      23.348   2.304  50.901  1.00  0.00     0.063 C 
HETATM   11  C6  UNL     1      22.931   2.470  49.598  1.00  0.00     0.040 C 
HETATM   12  C7  UNL     1      22.604   3.950  49.493  1.00  0.00    -0.042 C 
HETATM   13  C8  UNL     1      21.496   4.562  49.172  1.00  0.00    -0.018 C 
HETATM   14  C12 UNL     1      23.958   4.436  50.116  1.00  0.00     0.161 C 
HETATM   15  C9  UNL     1      21.058   5.398  50.364  1.00  0.00     0.029 C 
HETATM   16  C10 UNL     1      21.888   5.648  51.499  1.00  0.00     0.023 C 
HETATM   17  C11 UNL     1      22.699   4.591  52.263  1.00  0.00     0.123 C 
HETATM   18  N3  UNL     1      23.301   3.706  51.288  1.00  0.00    -0.375 N 
ENDBRANCH   3  10
BRANCH   1  19
HETATM   19  C2  UNL     1      25.872  -0.727  53.678  1.00  0.00     0.104 C 
HETATM   20  C1  UNL     1      26.648   0.130  54.676  1.00  0.00     0.034 C 
HETATM   21  C3  UNL     1      26.801  -0.949  52.498  1.00  0.00     0.034 C 
ENDBRANCH   1  19
BRANCH   5  22
HETATM   22  N4  UNL     1      20.574   1.636  52.352  1.00  0.00    -0.286 NA
HETATM   23  H18 UNL     1      21.197   2.070  51.652  1.00  0.00     0.125 HD
HETATM   24  H19 UNL     1      21.111   2.148  51.591  1.00  0.00     0.125 HD
ENDBRANCH   5  22
TORSDOF 3
ENDMDL
MODEL 7
REMARK VINA RESULT:      -7.4      1.938      6.509
REMARK  3 active torsions:
REMARK  status: ('A' for Active; 'I' for Inactive)
REMARK    1  A    between atoms: C2_2  and  N1_4 
REMARK    2  A    between atoms: C4_6  and  C5_7 
REMARK    3  A    between atoms: C14_17  and  N4_18 
ROOT
HETATM    1  N1  UNL     1      23.807   0.136  52.805  1.00  0.00    -0.247 N 
HETATM    2  N2  UNL     1      23.371   1.058  52.002  1.00  0.00    -0.167 NA
HETATM    3  C4  UNL     1      24.312   1.896  51.628  1.00  0.00     0.121 A 
HETATM    4  C13 UNL     1      25.407   1.422  52.271  1.00  0.00     0.084 A 
HETATM    5  C14 UNL     1      26.750   1.720  52.380  1.00  0.00     0.118 A 
HETATM    6  N5  UNL     1      27.651   1.040  53.109  1.00  0.00    -0.229 NA
HETATM    7  C15 UNL     1      27.257  -0.056  53.825  1.00  0.00     0.237 A 
HETATM    8  N6  UNL     1      25.962  -0.423  53.778  1.00  0.00    -0.222 NA
HETATM    9  C16 UNL     1      25.117   0.287  53.041  1.00  0.00     0.163 A 
ENDROOT
BRANCH   3  10
HETATM   10  C5  UNL     1      24.242   2.996  50.739  1.00  0.00     0.063 C 
HETATM   11  C6  UNL     1      24.329   3.345  49.409  1.00  0.00     0.040 C 
HETATM   12  C7  UNL     1      23.811   4.773  49.360  1.00  0.00    -0.042 C 
HETATM   13  C8  UNL     1      22.818   5.302  48.696  1.00  0.00    -0.018 C 
HETATM   14  C12 UNL     1      24.718   5.290  50.529  1.00  0.00     0.161 C 
HETATM   15  C9  UNL     1      21.821   5.854  49.701  1.00  0.00     0.029 C 
HETATM   16  C10 UNL     1      22.100   5.989  51.095  1.00  0.00     0.023 C 
HETATM   17  C11 UNL     1      22.732   4.911  51.989  1.00  0.00     0.123 C 
HETATM   18  N3  UNL     1      23.806   4.291  51.240  1.00  0.00    -0.375 N 
ENDBRANCH   3  10
BRANCH   1  19
HETATM   19  C2  UNL     1      22.904  -0.862  53.308  1.00  0.00     0.104 C 
HETATM   20  C1  UNL     1      21.457  -0.572  52.912  1.00  0.00     0.034 C 
HETATM   21  C3  UNL     1      22.949  -0.806  54.824  1.00  0.00     0.034 C 
ENDBRANCH   1  19
BRANCH   5  22
HETATM   22  N4  UNL     1      27.299   2.800  51.669  1.00  0.00    -0.286 NA
HETATM   23  H18 UNL     1      27.036   2.591  50.692  1.00  0.00     0.125 HD
HETATM   24  H19 UNL     1      27.090   2.695  50.632  1.00  0.00     0.125 HD
ENDBRANCH   5  22
TORSDOF 3
ENDMDL
MODEL 8
REMARK VINA RESULT:      -7.2      1.913      6.496
REMARK  3 active torsions:
REMARK  status: ('A' for Active; 'I' for Inactive)
REMARK    1  A    between atoms: C2_2  and  N1_4 
REMARK    2  A    between atoms: C4_6  and  C5_7 
REMARK    3  A    between atoms: C14_17  and  N4_18 
ROOT
HETATM    1  N1  UNL     1      23.244   0.852  52.116  1.00  0.00    -0.247 N 
HETATM    2  N2  UNL     1      23.035   1.895  51.372  1.00  0.00    -0.167 NA
HETATM    3  C4  UNL     1      24.130   2.583  51.138  1.00  0.00     0.121 A 
HETATM    4  C13 UNL     1      25.075   1.876  51.806  1.00  0.00     0.084 A 
HETATM    5  C14 UNL     1      26.436   1.926  52.029  1.00  0.00     0.118 A 
HETATM    6  N5  UNL     1      27.148   1.045  52.751  1.00  0.00    -0.229 NA
HETATM    7  C15 UNL     1      26.520  -0.017  53.337  1.00  0.00     0.237 A 
HETATM    8  N6  UNL     1      25.190  -0.149  53.173  1.00  0.00    -0.222 NA
HETATM    9  C16 UNL     1      24.537   0.753  52.449  1.00  0.00     0.163 A 
ENDROOT
BRANCH   3  10
HETATM   10  C5  UNL     1      24.318   3.743  50.349  1.00  0.00     0.063 C 
HETATM   11  C6  UNL     1      24.712   4.176  49.101  1.00  0.00     0.040 C 
HETATM   12  C7  UNL     1      24.298   5.638  49.063  1.00  0.00    -0.042 C 
HETATM   13  C8  UNL     1      23.505   6.282  48.248  1.00  0.00    -0.018 C 
HETATM   14  C12 UNL     1      24.956   6.006  50.437  1.00  0.00     0.161 C 
HETATM   15  C9  UNL     1      22.345   6.835  49.061  1.00  0.00     0.029 C 
HETATM   16  C10 UNL     1      22.320   6.852  50.488  1.00  0.00     0.023 C 
HETATM   17  C11 UNL     1      22.681   5.672  51.403  1.00  0.00     0.123 C 
HETATM   18  N3  UNL     1      23.856   5.029  50.851  1.00  0.00    -0.375 N 
ENDBRANCH   3  10
BRANCH   1  19
HETATM   19  C2  UNL     1      22.149  -0.010  52.465  1.00  0.00     0.104 C 
HETATM   20  C1  UNL     1      20.943   0.203  51.552  1.00  0.00     0.034 C 
HETATM   21  C3  UNL     1      21.693   0.365  53.865  1.00  0.00     0.034 C 
ENDBRANCH   1  19
BRANCH   5  22
HETATM   22  N4  UNL     1      27.214   2.946  51.455  1.00  0.00    -0.286 NA
HETATM   23  H18 UNL     1      27.691   3.360  52.273  1.00  0.00     0.125 HD
HETATM   24  H19 UNL     1      27.761   3.454  52.212  1.00  0.00     0.125 HD
ENDBRANCH   5  22
TORSDOF 3
ENDMDL
MODEL 9
REMARK VINA RESULT:      -6.4      2.329      3.675
REMARK  3 active torsions:
REMARK  status: ('A' for Active; 'I' for Inactive)
REMARK    1  A    between atoms: C2_2  and  N1_4 
REMARK    2  A    between atoms: C4_6  and  C5_7 
REMARK    3  A    between atoms: C14_17  and  N4_18 
ROOT
HETATM    1  N1  UNL     1      21.619   3.983  49.189  1.00  0.00    -0.247 N 
HETATM    2  N2  UNL     1      22.633   3.400  49.752  1.00  0.00    -0.167 NA
HETATM    3  C4  UNL     1      22.351   2.924  50.944  1.00  0.00     0.121 A 
HETATM    4  C13 UNL     1      21.046   3.258  51.098  1.00  0.00     0.084 A 
HETATM    5  C14 UNL     1      20.044   3.104  52.034  1.00  0.00     0.118 A 
HETATM    6  N5  UNL     1      18.779   3.540  51.914  1.00  0.00    -0.229 NA
HETATM    7  C15 UNL     1      18.395   4.201  50.780  1.00  0.00     0.237 A 
HETATM    8  N6  UNL     1      19.306   4.396  49.809  1.00  0.00    -0.222 NA
HETATM    9  C16 UNL     1      20.542   3.943  49.984  1.00  0.00     0.163 A 
ENDROOT
BRANCH   3  10
HETATM   10  C5  UNL     1      23.167   2.197  51.844  1.00  0.00     0.063 C 
HETATM   11  C6  UNL     1      23.183   1.101  52.678  1.00  0.00     0.040 C 
HETATM   12  C7  UNL     1      24.649   0.921  53.036  1.00  0.00    -0.042 C 
HETATM   13  C8  UNL     1      25.454  -0.093  52.866  1.00  0.00    -0.018 C 
HETATM   14  C12 UNL     1      24.877   2.417  53.445  1.00  0.00     0.161 C 
HETATM   15  C9  UNL     1      26.588   0.354  51.957  1.00  0.00     0.029 C 
HETATM   16  C10 UNL     1      26.826   1.718  51.608  1.00  0.00     0.023 C 
HETATM   17  C11 UNL     1      25.762   2.719  51.133  1.00  0.00     0.123 C 
HETATM   18  N3  UNL     1      24.581   2.528  51.949  1.00  0.00    -0.375 N 
ENDBRANCH   3  10
BRANCH   1  19
HETATM   19  C2  UNL     1      21.759   4.558  47.879  1.00  0.00     0.104 C 
HETATM   20  C1  UNL     1      21.917   3.487  46.802  1.00  0.00     0.034 C 
HETATM   21  C3  UNL     1      23.043   5.368  47.865  1.00  0.00     0.034 C 
ENDBRANCH   1  19
BRANCH   5  22
HETATM   22  N4  UNL     1      20.291   2.412  53.233  1.00  0.00    -0.286 NA
HETATM   23  H18 UNL     1      21.077   1.791  52.983  1.00  0.00     0.125 HD
HETATM   24  H19 UNL     1      21.095   1.730  53.099  1.00  0.00     0.125 HD
ENDBRANCH   5  22
TORSDOF 3
ENDMDL
