MODEL 1
REMARK VINA RESULT:      -8.9      0.000      0.000
REMARK  1 active torsions:
REMARK  status: ('A' for Active; 'I' for Inactive)
REMARK    1  A    between atoms: C7_7  and  C8_8 
ROOT
HETATM    1  C1  UNL     1      17.412  -3.560  53.832  1.00  0.00     0.025 C 
HETATM    2  C2  UNL     1      17.916  -2.391  53.426  1.00  0.00    -0.025 A 
HETATM    3  C3  UNL     1      17.777  -1.150  52.631  1.00  0.00    -0.015 A 
HETATM    4  C4  UNL     1      18.918  -1.388  53.383  1.00  0.00    -0.012 A 
HETATM    5  C5  UNL     1      20.131  -0.608  53.585  1.00  0.00     0.148 C 
HETATM    6  C6  UNL     1      21.390  -1.489  53.576  1.00  0.00     0.093 C 
HETATM    7  C7  UNL     1      22.404  -0.374  53.497  1.00  0.00     0.057 C 
HETATM    8  N1  UNL     1      21.803   0.543  52.870  1.00  0.00    -0.178 NA
HETATM    9  N2  UNL     1      20.496   0.252  52.482  1.00  0.00    -0.255 N 
HETATM   10  C16 UNL     1      19.994   0.819  51.279  1.00  0.00     0.232 A 
HETATM   11  N3  UNL     1      19.145   1.626  50.684  1.00  0.00    -0.174 NA
HETATM   12  C17 UNL     1      18.094   0.660  50.916  1.00  0.00     0.070 A 
HETATM   13  C18 UNL     1      17.320  -0.055  51.750  1.00  0.00     0.045 C 
HETATM   14  S2  UNL     1      19.189   1.668  49.925  1.00  0.00    -0.041 SA
ENDROOT
BRANCH   7  15
HETATM   15  C8  UNL     1      23.736  -0.498  54.071  1.00  0.00     0.040 C 
HETATM   16  C9  UNL     1      24.822   0.116  53.677  1.00  0.00    -0.032 A 
HETATM   17  C10 UNL     1      24.791   1.037  52.555  1.00  0.00     0.025 A 
HETATM   18  C15 UNL     1      26.081  -0.120  54.363  1.00  0.00     0.025 A 
HETATM   19  C11 UNL     1      25.789   1.728  52.039  1.00  0.00    -0.020 A 
HETATM   20  C12 UNL     1      25.801   2.665  50.912  1.00  0.00     0.056 C 
HETATM   21  S1  UNL     1      27.414   1.566  52.753  1.00  0.00    -0.100 SA
HETATM   22  C13 UNL     1      27.252   0.410  54.097  1.00  0.00    -0.020 A 
HETATM   23  C14 UNL     1      28.488   0.109  54.854  1.00  0.00     0.056 C 
ENDBRANCH   7  15
TORSDOF 1
ENDMDL
MODEL 2
REMARK VINA RESULT:      -8.9      8.129     13.508
REMARK  1 active torsions:
REMARK  status: ('A' for Active; 'I' for Inactive)
REMARK    1  A    between atoms: C7_7  and  C8_8 
ROOT
HETATM    1  C1  UNL     1      35.717   8.106  48.323  1.00  0.00     0.025 C 
HETATM    2  C2  UNL     1      34.932   7.026  48.364  1.00  0.00    -0.025 A 
HETATM    3  C3  UNL     1      34.788   5.553  48.349  1.00  0.00    -0.015 A 
HETATM    4  C4  UNL     1      33.674   6.374  48.446  1.00  0.00    -0.012 A 
HETATM    5  C5  UNL     1      32.252   6.078  48.548  1.00  0.00     0.148 C 
HETATM    6  C6  UNL     1      31.403   7.026  47.686  1.00  0.00     0.093 C 
HETATM    7  C7  UNL     1      30.103   6.265  47.788  1.00  0.00     0.057 C 
HETATM    8  N1  UNL     1      30.463   5.061  47.920  1.00  0.00    -0.178 NA
HETATM    9  N2  UNL     1      31.839   4.840  47.929  1.00  0.00    -0.255 N 
HETATM   10  C16 UNL     1      32.342   3.622  47.395  1.00  0.00     0.232 A 
HETATM   11  N3  UNL     1      32.960   2.478  47.589  1.00  0.00    -0.174 NA
HETATM   12  C17 UNL     1      34.212   3.195  47.694  1.00  0.00     0.070 A 
HETATM   13  C18 UNL     1      35.004   4.092  48.308  1.00  0.00     0.045 C 
HETATM   14  S2  UNL     1      33.056   2.034  46.978  1.00  0.00    -0.041 SA
ENDROOT
BRANCH   7  15
HETATM   15  C8  UNL     1      28.811   6.931  47.727  1.00  0.00     0.040 C 
HETATM   16  C9  UNL     1      27.662   6.456  48.134  1.00  0.00    -0.032 A 
HETATM   17  C10 UNL     1      27.570   5.131  48.721  1.00  0.00     0.025 A 
HETATM   18  C15 UNL     1      26.456   7.254  48.001  1.00  0.00     0.025 A 
HETATM   19  C11 UNL     1      26.498   4.512  49.175  1.00  0.00    -0.020 A 
HETATM   20  C12 UNL     1      26.362   3.181  49.773  1.00  0.00     0.056 C 
HETATM   21  S1  UNL     1      24.921   5.340  49.095  1.00  0.00    -0.100 SA
HETATM   22  C13 UNL     1      25.234   6.929  48.356  1.00  0.00    -0.020 A 
HETATM   23  C14 UNL     1      24.060   7.813  48.181  1.00  0.00     0.056 C 
ENDBRANCH   7  15
TORSDOF 1
ENDMDL
MODEL 3
REMARK VINA RESULT:      -8.8      2.288      7.841
REMARK  1 active torsions:
REMARK  status: ('A' for Active; 'I' for Inactive)
REMARK    1  A    between atoms: C7_7  and  C8_8 
ROOT
HETATM    1  C1  UNL     1      25.910   3.263  49.652  1.00  0.00     0.025 C 
HETATM    2  C2  UNL     1      26.122   2.753  50.869  1.00  0.00    -0.025 A 
HETATM    3  C3  UNL     1      27.041   2.484  51.996  1.00  0.00    -0.015 A 
HETATM    4  C4  UNL     1      25.715   2.082  52.051  1.00  0.00    -0.012 A 
HETATM    5  C5  UNL     1      24.951   1.384  53.075  1.00  0.00     0.148 C 
HETATM    6  C6  UNL     1      24.009   0.329  52.473  1.00  0.00     0.093 C 
HETATM    7  C7  UNL     1      23.645  -0.362  53.765  1.00  0.00     0.057 C 
HETATM    8  N1  UNL     1      24.666  -0.210  54.492  1.00  0.00    -0.178 NA
HETATM    9  N2  UNL     1      25.720   0.494  53.913  1.00  0.00    -0.255 N 
HETATM   10  C16 UNL     1      27.052   0.159  54.279  1.00  0.00     0.232 A 
HETATM   11  N3  UNL     1      28.184   0.506  54.852  1.00  0.00    -0.174 NA
HETATM   12  C17 UNL     1      28.483   1.340  53.709  1.00  0.00     0.070 A 
HETATM   13  C18 UNL     1      28.199   2.383  52.910  1.00  0.00     0.045 C 
HETATM   14  S2  UNL     1      28.741  -0.012  54.850  1.00  0.00    -0.041 SA
ENDROOT
BRANCH   7  15
HETATM   15  C8  UNL     1      22.356  -1.009  53.958  1.00  0.00     0.040 C 
HETATM   16  C9  UNL     1      21.222  -0.690  53.386  1.00  0.00    -0.032 A 
HETATM   17  C10 UNL     1      21.148   0.414  52.445  1.00  0.00     0.025 A 
HETATM   18  C15 UNL     1      20.017  -1.442  53.689  1.00  0.00     0.025 A 
HETATM   19  C11 UNL     1      20.094   0.858  51.790  1.00  0.00    -0.020 A 
HETATM   20  C12 UNL     1      19.975   1.964  50.836  1.00  0.00     0.056 C 
HETATM   21  S1  UNL     1      18.521   0.056  52.036  1.00  0.00    -0.100 SA
HETATM   22  C13 UNL     1      18.811  -1.254  53.207  1.00  0.00    -0.020 A 
HETATM   23  C14 UNL     1      17.635  -2.075  53.575  1.00  0.00     0.056 C 
ENDBRANCH   7  15
TORSDOF 1
ENDMDL
MODEL 4
REMARK VINA RESULT:      -8.7      3.865      6.811
REMARK  1 active torsions:
REMARK  status: ('A' for Active; 'I' for Inactive)
REMARK    1  A    between atoms: C7_7  and  C8_8 
ROOT
HETATM    1  C1  UNL     1      26.309  -0.134  54.654  1.00  0.00     0.025 C 
HETATM    2  C2  UNL     1      25.460   0.484  53.828  1.00  0.00    -0.025 A 
HETATM    3  C3  UNL     1      24.087   0.654  53.305  1.00  0.00    -0.015 A 
HETATM    4  C4  UNL     1      25.131   1.427  52.820  1.00  0.00    -0.012 A 
HETATM    5  C5  UNL     1      25.181   2.474  51.809  1.00  0.00     0.148 C 
HETATM    6  C6  UNL     1      26.425   2.353  50.915  1.00  0.00     0.093 C 
HETATM    7  C7  UNL     1      25.999   3.343  49.858  1.00  0.00     0.057 C 
HETATM    8  N1  UNL     1      24.738   3.268  49.859  1.00  0.00    -0.178 NA
HETATM    9  N2  UNL     1      24.188   2.364  50.766  1.00  0.00    -0.255 N 
HETATM   10  C16 UNL     1      22.977   1.701  50.425  1.00  0.00     0.232 A 
HETATM   11  N3  UNL     1      21.701   1.495  50.664  1.00  0.00    -0.174 NA
HETATM   12  C17 UNL     1      22.066   0.692  51.810  1.00  0.00     0.070 A 
HETATM   13  C18 UNL     1      22.639   0.563  53.019  1.00  0.00     0.045 C 
HETATM   14  S2  UNL     1      21.343   1.005  50.205  1.00  0.00    -0.041 SA
ENDROOT
BRANCH   7  15
HETATM   15  C8  UNL     1      26.963   4.128  49.102  1.00  0.00     0.040 C 
HETATM   16  C9  UNL     1      26.976   5.429  48.955  1.00  0.00    -0.032 A 
HETATM   17  C10 UNL     1      25.959   6.258  49.577  1.00  0.00     0.025 A 
HETATM   18  C15 UNL     1      28.015   6.061  48.161  1.00  0.00     0.025 A 
HETATM   19  C11 UNL     1      25.832   7.569  49.526  1.00  0.00    -0.020 A 
HETATM   20  C12 UNL     1      24.825   8.442  50.137  1.00  0.00     0.056 C 
HETATM   21  S1  UNL     1      27.020   8.518  48.596  1.00  0.00    -0.100 SA
HETATM   22  C13 UNL     1      28.171   7.342  47.917  1.00  0.00    -0.020 A 
HETATM   23  C14 UNL     1      29.267   7.898  47.092  1.00  0.00     0.056 C 
ENDBRANCH   7  15
TORSDOF 1
ENDMDL
MODEL 5
REMARK VINA RESULT:      -8.6      3.899      7.715
REMARK  1 active torsions:
REMARK  status: ('A' for Active; 'I' for Inactive)
REMARK    1  A    between atoms: C7_7  and  C8_8 
ROOT
HETATM    1  C1  UNL     1      22.911  -0.858  54.278  1.00  0.00     0.025 C 
HETATM    2  C2  UNL     1      24.098  -0.467  53.807  1.00  0.00    -0.025 A 
HETATM    3  C3  UNL     1      25.575  -0.549  53.846  1.00  0.00    -0.015 A 
HETATM    4  C4  UNL     1      24.935   0.290  52.946  1.00  0.00    -0.012 A 
HETATM    5  C5  UNL     1      25.445   1.200  51.930  1.00  0.00     0.148 C 
HETATM    6  C6  UNL     1      24.665   2.523  51.897  1.00  0.00     0.093 C 
HETATM    7  C7  UNL     1      25.615   3.284  51.004  1.00  0.00     0.057 C 
HETATM    8  N1  UNL     1      26.744   2.777  51.256  1.00  0.00    -0.178 NA
HETATM    9  N2  UNL     1      26.749   1.756  52.205  1.00  0.00    -0.255 N 
HETATM   10  C16 UNL     1      27.888   1.601  53.041  1.00  0.00     0.232 A 
HETATM   11  N3  UNL     1      28.917   0.875  53.419  1.00  0.00    -0.174 NA
HETATM   12  C17 UNL     1      28.012   0.001  54.133  1.00  0.00     0.070 A 
HETATM   13  C18 UNL     1      26.986  -0.868  54.148  1.00  0.00     0.045 C 
HETATM   14  S2  UNL     1      29.358   1.167  53.966  1.00  0.00    -0.041 SA
ENDROOT
BRANCH   7  15
HETATM   15  C8  UNL     1      25.159   4.339  50.111  1.00  0.00     0.040 C 
HETATM   16  C9  UNL     1      24.171   4.271  49.255  1.00  0.00    -0.032 A 
HETATM   17  C10 UNL     1      23.392   3.054  49.112  1.00  0.00     0.025 A 
HETATM   18  C15 UNL     1      23.842   5.421  48.431  1.00  0.00     0.025 A 
HETATM   19  C11 UNL     1      22.375   2.827  48.304  1.00  0.00    -0.020 A 
HETATM   20  C12 UNL     1      21.564   1.618  48.129  1.00  0.00     0.056 C 
HETATM   21  S1  UNL     1      21.827   4.127  47.215  1.00  0.00    -0.100 SA
HETATM   22  C13 UNL     1      22.891   5.519  47.532  1.00  0.00    -0.020 A 
HETATM   23  C14 UNL     1      22.628   6.739  46.735  1.00  0.00     0.056 C 
ENDBRANCH   7  15
TORSDOF 1
ENDMDL
MODEL 6
REMARK VINA RESULT:      -8.5      3.657      6.981
REMARK  1 active torsions:
REMARK  status: ('A' for Active; 'I' for Inactive)
REMARK    1  A    between atoms: C7_7  and  C8_8 
ROOT
HETATM    1  C1  UNL     1      27.561  -2.100  52.767  1.00  0.00     0.025 C 
HETATM    2  C2  UNL     1      26.648  -1.125  52.810  1.00  0.00    -0.025 A 
HETATM    3  C3  UNL     1      25.322  -0.638  53.251  1.00  0.00    -0.015 A 
HETATM    4  C4  UNL     1      26.166   0.176  52.511  1.00  0.00    -0.012 A 
HETATM    5  C5  UNL     1      26.023   1.541  52.023  1.00  0.00     0.148 C 
HETATM    6  C6  UNL     1      26.555   1.699  50.590  1.00  0.00     0.093 C 
HETATM    7  C7  UNL     1      25.986   3.071  50.325  1.00  0.00     0.057 C 
HETATM    8  N1  UNL     1      24.937   3.109  51.027  1.00  0.00    -0.178 NA
HETATM    9  N2  UNL     1      24.664   1.959  51.766  1.00  0.00    -0.255 N 
HETATM   10  C16 UNL     1      23.309   1.602  52.006  1.00  0.00     0.232 A 
HETATM   11  N3  UNL     1      22.326   1.422  52.860  1.00  0.00    -0.174 NA
HETATM   12  C17 UNL     1      22.948   0.188  53.285  1.00  0.00     0.070 A 
HETATM   13  C18 UNL     1      23.975  -0.481  53.838  1.00  0.00     0.045 C 
HETATM   14  S2  UNL     1      21.659   1.200  52.570  1.00  0.00    -0.041 SA
ENDROOT
BRANCH   7  15
HETATM   15  C8  UNL     1      26.633   4.016  49.427  1.00  0.00     0.040 C 
HETATM   16  C9  UNL     1      26.360   5.289  49.295  1.00  0.00    -0.032 A 
HETATM   17  C10 UNL     1      25.314   5.911  50.087  1.00  0.00     0.025 A 
HETATM   18  C15 UNL     1      27.104   6.099  48.347  1.00  0.00     0.025 A 
HETATM   19  C11 UNL     1      24.919   7.170  50.073  1.00  0.00    -0.020 A 
HETATM   20  C12 UNL     1      23.872   7.837  50.853  1.00  0.00     0.056 C 
HETATM   21  S1  UNL     1      25.721   8.316  48.969  1.00  0.00    -0.100 SA
HETATM   22  C13 UNL     1      26.957   7.379  48.094  1.00  0.00    -0.020 A 
HETATM   23  C14 UNL     1      27.767   8.126  47.105  1.00  0.00     0.056 C 
ENDBRANCH   7  15
TORSDOF 1
ENDMDL
MODEL 7
REMARK VINA RESULT:      -8.5      3.921      7.364
REMARK  1 active torsions:
REMARK  status: ('A' for Active; 'I' for Inactive)
REMARK    1  A    between atoms: C7_7  and  C8_8 
ROOT
HETATM    1  C1  UNL     1      21.297   1.143  52.575  1.00  0.00     0.025 C 
HETATM    2  C2  UNL     1      22.618   0.938  52.589  1.00  0.00    -0.025 A 
HETATM    3  C3  UNL     1      23.800   0.288  53.196  1.00  0.00    -0.015 A 
HETATM    4  C4  UNL     1      23.936   1.129  52.100  1.00  0.00    -0.012 A 
HETATM    5  C5  UNL     1      25.101   1.556  51.338  1.00  0.00     0.148 C 
HETATM    6  C6  UNL     1      25.039   3.049  50.979  1.00  0.00     0.093 C 
HETATM    7  C7  UNL     1      26.464   3.191  50.504  1.00  0.00     0.057 C 
HETATM    8  N1  UNL     1      27.100   2.336  51.182  1.00  0.00    -0.178 NA
HETATM    9  N2  UNL     1      26.339   1.593  52.083  1.00  0.00    -0.255 N 
HETATM   10  C16 UNL     1      26.940   1.159  53.296  1.00  0.00     0.232 A 
HETATM   11  N3  UNL     1      27.353   0.170  54.056  1.00  0.00    -0.174 NA
HETATM   12  C17 UNL     1      25.976  -0.126  54.386  1.00  0.00     0.070 A 
HETATM   13  C18 UNL     1      24.736  -0.500  54.025  1.00  0.00     0.045 C 
HETATM   14  S2  UNL     1      27.663   0.360  54.725  1.00  0.00    -0.041 SA
ENDROOT
BRANCH   7  15
HETATM   15  C8  UNL     1      26.845   4.153  49.481  1.00  0.00     0.040 C 
HETATM   16  C9  UNL     1      26.361   5.358  49.315  1.00  0.00    -0.032 A 
HETATM   17  C10 UNL     1      25.330   5.873  50.199  1.00  0.00     0.025 A 
HETATM   18  C15 UNL     1      26.852   6.198  48.237  1.00  0.00     0.025 A 
HETATM   19  C11 UNL     1      24.744   7.054  50.166  1.00  0.00    -0.020 A 
HETATM   20  C12 UNL     1      23.704   7.613  51.035  1.00  0.00     0.056 C 
HETATM   21  S1  UNL     1      25.220   8.223  48.907  1.00  0.00    -0.100 SA
HETATM   22  C13 UNL     1      26.476   7.419  47.935  1.00  0.00    -0.020 A 
HETATM   23  C14 UNL     1      27.037   8.203  46.811  1.00  0.00     0.056 C 
ENDBRANCH   7  15
TORSDOF 1
ENDMDL
MODEL 8
REMARK VINA RESULT:      -8.2      2.863      4.947
REMARK  1 active torsions:
REMARK  status: ('A' for Active; 'I' for Inactive)
REMARK    1  A    between atoms: C7_7  and  C8_8 
ROOT
HETATM    1  C1  UNL     1      23.259  -1.247  55.184  1.00  0.00     0.025 C 
HETATM    2  C2  UNL     1      22.606  -0.456  54.328  1.00  0.00    -0.025 A 
HETATM    3  C3  UNL     1      21.333  -0.016  53.716  1.00  0.00    -0.015 A 
HETATM    4  C4  UNL     1      22.537   0.562  53.342  1.00  0.00    -0.012 A 
HETATM    5  C5  UNL     1      22.857   1.613  52.385  1.00  0.00     0.148 C 
HETATM    6  C6  UNL     1      24.124   1.289  51.578  1.00  0.00     0.093 C 
HETATM    7  C7  UNL     1      23.972   2.374  50.540  1.00  0.00     0.057 C 
HETATM    8  N1  UNL     1      22.724   2.535  50.446  1.00  0.00    -0.178 NA
HETATM    9  N2  UNL     1      21.946   1.722  51.270  1.00  0.00    -0.255 N 
HETATM   10  C16 UNL     1      20.665   1.308  50.814  1.00  0.00     0.232 A 
HETATM   11  N3  UNL     1      19.358   1.336  50.950  1.00  0.00    -0.174 NA
HETATM   12  C17 UNL     1      19.478   0.444  52.082  1.00  0.00     0.070 A 
HETATM   13  C18 UNL     1      19.921   0.173  53.322  1.00  0.00     0.045 C 
HETATM   14  S2  UNL     1      18.953   0.936  50.445  1.00  0.00    -0.041 SA
ENDROOT
BRANCH   7  15
HETATM   15  C8  UNL     1      25.121   2.988  49.891  1.00  0.00     0.040 C 
HETATM   16  C9  UNL     1      25.378   4.268  49.793  1.00  0.00    -0.032 A 
HETATM   17  C10 UNL     1      24.476   5.253  50.364  1.00  0.00     0.025 A 
HETATM   18  C15 UNL     1      26.576   4.719  49.107  1.00  0.00     0.025 A 
HETATM   19  C11 UNL     1      24.591   6.567  50.351  1.00  0.00    -0.020 A 
HETATM   20  C12 UNL     1      23.708   7.594  50.913  1.00  0.00     0.056 C 
HETATM   21  S1  UNL     1      26.003   7.306  49.552  1.00  0.00    -0.100 SA
HETATM   22  C13 UNL     1      26.978   5.956  48.923  1.00  0.00    -0.020 A 
HETATM   23  C14 UNL     1      28.221   6.323  48.208  1.00  0.00     0.056 C 
ENDBRANCH   7  15
TORSDOF 1
ENDMDL
MODEL 9
REMARK VINA RESULT:      -8.1      3.533      6.763
REMARK  1 active torsions:
REMARK  status: ('A' for Active; 'I' for Inactive)
REMARK    1  A    between atoms: C7_7  and  C8_8 
ROOT
HETATM    1  C1  UNL     1      26.967  -1.226  52.715  1.00  0.00     0.025 C 
HETATM    2  C2  UNL     1      25.842  -0.559  52.988  1.00  0.00    -0.025 A 
HETATM    3  C3  UNL     1      24.494  -0.528  53.599  1.00  0.00    -0.015 A 
HETATM    4  C4  UNL     1      25.004   0.585  52.949  1.00  0.00    -0.012 A 
HETATM    5  C5  UNL     1      24.452   1.912  52.710  1.00  0.00     0.148 C 
HETATM    6  C6  UNL     1      24.756   2.415  51.290  1.00  0.00     0.093 C 
HETATM    7  C7  UNL     1      23.819   3.599  51.302  1.00  0.00     0.057 C 
HETATM    8  N1  UNL     1      22.886   3.243  52.075  1.00  0.00    -0.178 NA
HETATM    9  N2  UNL     1      23.011   1.968  52.626  1.00  0.00    -0.255 N 
HETATM   10  C16 UNL     1      21.834   1.219  52.898  1.00  0.00     0.232 A 
HETATM   11  N3  UNL     1      21.038   0.653  53.778  1.00  0.00    -0.174 NA
HETATM   12  C17 UNL     1      22.007  -0.408  53.942  1.00  0.00     0.070 A 
HETATM   13  C18 UNL     1      23.230  -0.837  54.299  1.00  0.00     0.045 C 
HETATM   14  S2  UNL     1      20.424   0.298  53.503  1.00  0.00    -0.041 SA
ENDROOT
BRANCH   7  15
HETATM   15  C8  UNL     1      24.088   4.805  50.534  1.00  0.00     0.040 C 
HETATM   16  C9  UNL     1      23.614   5.106  49.351  1.00  0.00    -0.032 A 
HETATM   17  C10 UNL     1      22.717   4.200  48.657  1.00  0.00     0.025 A 
HETATM   18  C15 UNL     1      23.984   6.359  48.716  1.00  0.00     0.025 A 
HETATM   19  C11 UNL     1      22.158   4.354  47.472  1.00  0.00    -0.020 A 
HETATM   20  C12 UNL     1      21.250   3.468  46.738  1.00  0.00     0.056 C 
HETATM   21  S1  UNL     1      22.496   5.836  46.542  1.00  0.00    -0.100 SA
HETATM   22  C13 UNL     1      23.600   6.809  47.544  1.00  0.00    -0.020 A 
HETATM   23  C14 UNL     1      24.030   8.106  46.975  1.00  0.00     0.056 C 
ENDBRANCH   7  15
TORSDOF 1
ENDMDL
