MODEL 1
REMARK VINA RESULT:      -8.1      0.000      0.000
REMARK  4 active torsions:
REMARK  status: ('A' for Active; 'I' for Inactive)
REMARK    1  A    between atoms: C2_2  and  C3_3 
REMARK       I    between atoms: C3_3  and  N1_5 
REMARK    2  A    between atoms: N1_5  and  C4_6 
REMARK    3  A    between atoms: C9_13  and  N4_14 
REMARK    4  A    between atoms: N4_14  and  C10_15 
ROOT
HETATM    1  C4  UNL     1      24.915   3.203  51.179  1.00  0.00     0.036 A 
HETATM    2  C5  UNL     1      23.656   2.770  50.750  1.00  0.00     0.032 A 
HETATM    3  C6  UNL     1      23.000   1.690  51.294  1.00  0.00     0.035 A 
HETATM    4  C7  UNL     1      23.623   0.991  52.326  1.00  0.00     0.072 A 
HETATM    5  N2  UNL     1      22.979  -0.067  52.857  1.00  0.00    -0.241 NA
HETATM    6  C8  UNL     1      23.564  -0.757  53.858  1.00  0.00     0.236 A 
HETATM    7  N3  UNL     1      24.789  -0.368  54.306  1.00  0.00    -0.224 NA
HETATM    8  C9  UNL     1      25.411   0.690  53.760  1.00  0.00     0.141 A 
HETATM    9  C15 UNL     1      24.875   1.426  52.750  1.00  0.00     0.041 A 
HETATM   10  C16 UNL     1      25.519   2.493  52.209  1.00  0.00     0.047 A 
ENDROOT
BRANCH   8  11
HETATM   11  N4  UNL     1      26.682   0.988  54.318  1.00  0.00    -0.344 N 
HETATM   12  H8  UNL     1      26.983   1.735  54.971  1.00  0.00     0.167 HD
BRANCH  11  13
HETATM   13  C10 UNL     1      27.820   0.198  54.004  1.00  0.00     0.014 A 
HETATM   14  C11 UNL     1      29.065   0.368  54.395  1.00  0.00     0.025 A 
HETATM   15  C12 UNL     1      30.005  -0.617  53.901  1.00  0.00    -0.002 A 
HETATM   16  C13 UNL     1      29.271  -1.435  53.162  1.00  0.00    -0.021 A 
HETATM   17  C14 UNL     1      27.850  -1.028  53.142  1.00  0.00     0.084 A 
ENDBRANCH  11  13
ENDBRANCH   8  11
BRANCH   1  18
HETATM   18  N1  UNL     1      25.551   4.329  50.580  1.00  0.00    -0.324 N 
HETATM   19  C3  UNL     1      26.497   4.075  49.523  1.00  0.00     0.244 C 
HETATM   20  O1  UNL     1      26.556   2.810  49.349  1.00  0.00    -0.268 OA
HETATM   21  H4  UNL     1      25.325   5.307  50.912  1.00  0.00     0.169 HD
BRANCH  19  22
HETATM   22  C2  UNL     1      27.178   5.187  48.872  1.00  0.00     0.064 C 
HETATM   23  C1  UNL     1      28.406   5.213  48.382  1.00  0.00     0.017 C 
ENDBRANCH  19  22
ENDBRANCH   1  18
TORSDOF 4
ENDMDL
MODEL 2
REMARK VINA RESULT:      -7.8      2.500      5.793
REMARK  4 active torsions:
REMARK  status: ('A' for Active; 'I' for Inactive)
REMARK    1  A    between atoms: C2_2  and  C3_3 
REMARK       I    between atoms: C3_3  and  N1_5 
REMARK    2  A    between atoms: N1_5  and  C4_6 
REMARK    3  A    between atoms: C9_13  and  N4_14 
REMARK    4  A    between atoms: N4_14  and  C10_15 
ROOT
HETATM    1  C4  UNL     1      25.214  -0.767  54.195  1.00  0.00     0.036 A 
HETATM    2  C5  UNL     1      24.513  -1.291  55.285  1.00  0.00     0.032 A 
HETATM    3  C6  UNL     1      23.147  -1.194  55.426  1.00  0.00     0.035 A 
HETATM    4  C7  UNL     1      22.426  -0.539  54.429  1.00  0.00     0.072 A 
HETATM    5  N2  UNL     1      21.089  -0.445  54.567  1.00  0.00    -0.241 NA
HETATM    6  C8  UNL     1      20.373   0.184  53.614  1.00  0.00     0.236 A 
HETATM    7  N3  UNL     1      21.017   0.708  52.535  1.00  0.00    -0.224 NA
HETATM    8  C9  UNL     1      22.351   0.602  52.419  1.00  0.00     0.141 A 
HETATM    9  C15 UNL     1      23.129  -0.019  53.345  1.00  0.00     0.041 A 
HETATM   10  C16 UNL     1      24.478  -0.118  53.211  1.00  0.00     0.047 A 
ENDROOT
BRANCH   8  11
HETATM   11  N4  UNL     1      22.897   1.191  51.248  1.00  0.00    -0.344 N 
HETATM   12  H8  UNL     1      23.101   0.791  50.314  1.00  0.00     0.167 HD
BRANCH  11  13
HETATM   13  C10 UNL     1      23.268   2.562  51.227  1.00  0.00     0.014 A 
HETATM   14  C11 UNL     1      23.773   3.256  50.229  1.00  0.00     0.025 A 
HETATM   15  C12 UNL     1      24.047   4.647  50.524  1.00  0.00    -0.002 A 
HETATM   16  C13 UNL     1      23.681   4.797  51.787  1.00  0.00    -0.021 A 
HETATM   17  C14 UNL     1      23.163   3.537  52.360  1.00  0.00     0.084 A 
ENDBRANCH  11  13
ENDBRANCH   8  11
BRANCH   1  18
HETATM   18  N1  UNL     1      26.630  -0.894  54.099  1.00  0.00    -0.324 N 
HETATM   19  C3  UNL     1      27.433   0.183  54.620  1.00  0.00     0.244 C 
HETATM   20  O1  UNL     1      26.639   1.073  55.082  1.00  0.00    -0.268 OA
HETATM   21  H4  UNL     1      27.059  -1.755  53.659  1.00  0.00     0.169 HD
BRANCH  19  22
HETATM   22  C2  UNL     1      28.887   0.109  54.551  1.00  0.00     0.064 C 
HETATM   23  C1  UNL     1      29.624  -0.673  53.781  1.00  0.00     0.017 C 
ENDBRANCH  19  22
ENDBRANCH   1  18
TORSDOF 4
ENDMDL
MODEL 3
REMARK VINA RESULT:      -7.6      1.595      5.350
REMARK  4 active torsions:
REMARK  status: ('A' for Active; 'I' for Inactive)
REMARK    1  A    between atoms: C2_2  and  C3_3 
REMARK       I    between atoms: C3_3  and  N1_5 
REMARK    2  A    between atoms: N1_5  and  C4_6 
REMARK    3  A    between atoms: C9_13  and  N4_14 
REMARK    4  A    between atoms: N4_14  and  C10_15 
ROOT
HETATM    1  C4  UNL     1      25.297   0.525  53.703  1.00  0.00     0.036 A 
HETATM    2  C5  UNL     1      24.276  -0.430  53.646  1.00  0.00     0.032 A 
HETATM    3  C6  UNL     1      23.067  -0.210  53.027  1.00  0.00     0.035 A 
HETATM    4  C7  UNL     1      22.848   1.029  52.428  1.00  0.00     0.072 A 
HETATM    5  N2  UNL     1      21.663   1.242  51.822  1.00  0.00    -0.241 NA
HETATM    6  C8  UNL     1      21.430   2.434  51.236  1.00  0.00     0.236 A 
HETATM    7  N3  UNL     1      22.398   3.392  51.268  1.00  0.00    -0.224 NA
HETATM    8  C9  UNL     1      23.572   3.155  51.878  1.00  0.00     0.141 A 
HETATM    9  C15 UNL     1      23.867   1.975  52.487  1.00  0.00     0.041 A 
HETATM   10  C16 UNL     1      25.060   1.753  53.099  1.00  0.00     0.047 A 
ENDROOT
BRANCH   8  11
HETATM   11  N4  UNL     1      24.492   4.235  51.840  1.00  0.00    -0.344 N 
HETATM   12  H8  UNL     1      24.683   4.993  52.521  1.00  0.00     0.167 HD
BRANCH  11  13
HETATM   13  C10 UNL     1      25.356   4.419  50.728  1.00  0.00     0.014 A 
HETATM   14  C11 UNL     1      25.456   5.464  49.935  1.00  0.00     0.025 A 
HETATM   15  C12 UNL     1      26.442   5.345  48.881  1.00  0.00    -0.002 A 
HETATM   16  C13 UNL     1      26.970   4.144  49.055  1.00  0.00    -0.021 A 
HETATM   17  C14 UNL     1      26.364   3.441  50.205  1.00  0.00     0.084 A 
ENDBRANCH  11  13
ENDBRANCH   8  11
BRANCH   1  18
HETATM   18  N1  UNL     1      26.531   0.245  54.357  1.00  0.00    -0.324 N 
HETATM   19  C3  UNL     1      27.659  -0.104  53.531  1.00  0.00     0.244 C 
HETATM   20  O1  UNL     1      27.271  -0.083  52.313  1.00  0.00    -0.268 OA
HETATM   21  H4  UNL     1      26.599   0.297  55.412  1.00  0.00     0.169 HD
BRANCH  19  22
HETATM   22  C2  UNL     1      28.948  -0.400  54.143  1.00  0.00     0.064 C 
HETATM   23  C1  UNL     1      29.915  -1.167  53.670  1.00  0.00     0.017 C 
ENDBRANCH  19  22
ENDBRANCH   1  18
TORSDOF 4
ENDMDL
MODEL 4
REMARK VINA RESULT:      -7.5      2.582      2.908
REMARK  4 active torsions:
REMARK  status: ('A' for Active; 'I' for Inactive)
REMARK    1  A    between atoms: C2_2  and  C3_3 
REMARK       I    between atoms: C3_3  and  N1_5 
REMARK    2  A    between atoms: N1_5  and  C4_6 
REMARK    3  A    between atoms: C9_13  and  N4_14 
REMARK    4  A    between atoms: N4_14  and  C10_15 
ROOT
HETATM    1  C4  UNL     1      22.834   0.970  51.676  1.00  0.00     0.036 A 
HETATM    2  C5  UNL     1      21.730   0.330  52.250  1.00  0.00     0.032 A 
HETATM    3  C6  UNL     1      21.803  -0.420  53.401  1.00  0.00     0.035 A 
HETATM    4  C7  UNL     1      23.041  -0.549  54.028  1.00  0.00     0.072 A 
HETATM    5  N2  UNL     1      23.111  -1.283  55.155  1.00  0.00    -0.241 NA
HETATM    6  C8  UNL     1      24.299  -1.420  55.777  1.00  0.00     0.236 A 
HETATM    7  N3  UNL     1      25.399  -0.813  55.252  1.00  0.00    -0.224 NA
HETATM    8  C9  UNL     1      25.304  -0.086  54.126  1.00  0.00     0.141 A 
HETATM    9  C15 UNL     1      24.136   0.090  53.453  1.00  0.00     0.041 A 
HETATM   10  C16 UNL     1      24.059   0.830  52.315  1.00  0.00     0.047 A 
ENDROOT
BRANCH   8  11
HETATM   11  N4  UNL     1      26.524   0.492  53.686  1.00  0.00    -0.344 N 
HETATM   12  H8  UNL     1      26.754   1.459  53.390  1.00  0.00     0.167 HD
BRANCH  11  13
HETATM   13  C10 UNL     1      27.707  -0.287  53.589  1.00  0.00     0.014 A 
HETATM   14  C11 UNL     1      28.914   0.003  54.026  1.00  0.00     0.025 A 
HETATM   15  C12 UNL     1      29.920  -1.008  53.772  1.00  0.00    -0.002 A 
HETATM   16  C13 UNL     1      29.269  -1.971  53.139  1.00  0.00    -0.021 A 
HETATM   17  C14 UNL     1      27.841  -1.639  52.955  1.00  0.00     0.084 A 
ENDBRANCH  11  13
ENDBRANCH   8  11
BRANCH   1  18
HETATM   18  N1  UNL     1      22.703   1.734  50.481  1.00  0.00    -0.324 N 
HETATM   19  C3  UNL     1      22.505   3.155  50.618  1.00  0.00     0.244 C 
HETATM   20  O1  UNL     1      22.491   3.428  51.866  1.00  0.00    -0.268 OA
HETATM   21  H4  UNL     1      22.751   1.260  49.537  1.00  0.00     0.169 HD
BRANCH  19  22
HETATM   22  C2  UNL     1      22.365   3.989  49.431  1.00  0.00     0.064 C 
HETATM   23  C1  UNL     1      22.646   3.673  48.178  1.00  0.00     0.017 C 
ENDBRANCH  19  22
ENDBRANCH   1  18
TORSDOF 4
ENDMDL
MODEL 5
REMARK VINA RESULT:      -7.4      1.419      1.902
REMARK  4 active torsions:
REMARK  status: ('A' for Active; 'I' for Inactive)
REMARK    1  A    between atoms: C2_2  and  C3_3 
REMARK       I    between atoms: C3_3  and  N1_5 
REMARK    2  A    between atoms: N1_5  and  C4_6 
REMARK    3  A    between atoms: C9_13  and  N4_14 
REMARK    4  A    between atoms: N4_14  and  C10_15 
ROOT
HETATM    1  C4  UNL     1      24.915   4.078  49.776  1.00  0.00     0.036 A 
HETATM    2  C5  UNL     1      23.876   3.512  49.029  1.00  0.00     0.032 A 
HETATM    3  C6  UNL     1      23.059   2.512  49.504  1.00  0.00     0.035 A 
HETATM    4  C7  UNL     1      23.278   2.039  50.796  1.00  0.00     0.072 A 
HETATM    5  N2  UNL     1      22.477   1.060  51.260  1.00  0.00    -0.241 NA
HETATM    6  C8  UNL     1      22.671   0.587  52.508  1.00  0.00     0.236 A 
HETATM    7  N3  UNL     1      23.671   1.112  53.269  1.00  0.00    -0.224 NA
HETATM    8  C9  UNL     1      24.457   2.088  52.785  1.00  0.00     0.141 A 
HETATM    9  C15 UNL     1      24.312   2.606  51.536  1.00  0.00     0.041 A 
HETATM   10  C16 UNL     1      25.117   3.594  51.062  1.00  0.00     0.047 A 
ENDROOT
BRANCH   8  11
HETATM   11  N4  UNL     1      25.460   2.545  53.679  1.00  0.00    -0.344 N 
HETATM   12  H8  UNL     1      25.493   3.372  54.303  1.00  0.00     0.167 HD
BRANCH  11  13
HETATM   13  C10 UNL     1      26.678   1.831  53.836  1.00  0.00     0.014 A 
HETATM   14  C11 UNL     1      27.866   2.125  53.352  1.00  0.00     0.025 A 
HETATM   15  C12 UNL     1      28.918   1.190  53.693  1.00  0.00    -0.002 A 
HETATM   16  C13 UNL     1      28.318   0.271  54.433  1.00  0.00    -0.021 A 
HETATM   17  C14 UNL     1      26.879   0.560  54.604  1.00  0.00     0.084 A 
ENDBRANCH  11  13
ENDBRANCH   8  11
BRANCH   1  18
HETATM   18  N1  UNL     1      25.732   5.112  49.236  1.00  0.00    -0.324 N 
HETATM   19  C3  UNL     1      27.085   4.771  48.874  1.00  0.00     0.244 C 
HETATM   20  O1  UNL     1      27.259   3.533  49.138  1.00  0.00    -0.268 OA
HETATM   21  H4  UNL     1      25.345   6.088  49.111  1.00  0.00     0.169 HD
BRANCH  19  22
HETATM   22  C2  UNL     1      27.969   5.787  48.315  1.00  0.00     0.064 C 
HETATM   23  C1  UNL     1      27.708   7.067  48.112  1.00  0.00     0.017 C 
ENDBRANCH  19  22
ENDBRANCH   1  18
TORSDOF 4
ENDMDL
MODEL 6
REMARK VINA RESULT:      -7.2      2.494      5.164
REMARK  4 active torsions:
REMARK  status: ('A' for Active; 'I' for Inactive)
REMARK    1  A    between atoms: C2_2  and  C3_3 
REMARK       I    between atoms: C3_3  and  N1_5 
REMARK    2  A    between atoms: N1_5  and  C4_6 
REMARK    3  A    between atoms: C9_13  and  N4_14 
REMARK    4  A    between atoms: N4_14  and  C10_15 
ROOT
HETATM    1  C4  UNL     1      22.406   1.646  52.721  1.00  0.00     0.036 A 
HETATM    2  C5  UNL     1      22.143   2.917  52.202  1.00  0.00     0.032 A 
HETATM    3  C6  UNL     1      23.073   3.664  51.515  1.00  0.00     0.035 A 
HETATM    4  C7  UNL     1      24.344   3.124  51.328  1.00  0.00     0.072 A 
HETATM    5  N2  UNL     1      25.254   3.855  50.655  1.00  0.00    -0.241 NA
HETATM    6  C8  UNL     1      26.490   3.352  50.463  1.00  0.00     0.236 A 
HETATM    7  N3  UNL     1      26.788   2.116  50.951  1.00  0.00    -0.224 NA
HETATM    8  C9  UNL     1      25.863   1.405  51.618  1.00  0.00     0.141 A 
HETATM    9  C15 UNL     1      24.601   1.857  51.846  1.00  0.00     0.041 A 
HETATM   10  C16 UNL     1      23.679   1.124  52.523  1.00  0.00     0.047 A 
ENDROOT
BRANCH   8  11
HETATM   11  N4  UNL     1      26.303   0.135  52.074  1.00  0.00    -0.344 N 
HETATM   12  H8  UNL     1      25.992  -0.824  51.830  1.00  0.00     0.167 HD
BRANCH  11  13
HETATM   13  C10 UNL     1      27.345   0.024  53.034  1.00  0.00     0.014 A 
HETATM   14  C11 UNL     1      28.393  -0.770  53.013  1.00  0.00     0.025 A 
HETATM   15  C12 UNL     1      29.283  -0.644  54.149  1.00  0.00    -0.002 A 
HETATM   16  C13 UNL     1      28.728   0.291  54.903  1.00  0.00    -0.021 A 
HETATM   17  C14 UNL     1      27.478   0.806  54.306  1.00  0.00     0.084 A 
ENDBRANCH  11  13
ENDBRANCH   8  11
BRANCH   1  18
HETATM   18  N1  UNL     1      21.406   0.915  53.425  1.00  0.00    -0.324 N 
HETATM   19  C3  UNL     1      20.552   0.044  52.656  1.00  0.00     0.244 C 
HETATM   20  O1  UNL     1      20.910   0.129  51.432  1.00  0.00    -0.268 OA
HETATM   21  H4  UNL     1      21.307   1.021  54.472  1.00  0.00     0.169 HD
BRANCH  19  22
HETATM   22  C2  UNL     1      19.511  -0.729  53.322  1.00  0.00     0.064 C 
HETATM   23  C1  UNL     1      18.253  -0.888  52.948  1.00  0.00     0.017 C 
ENDBRANCH  19  22
ENDBRANCH   1  18
TORSDOF 4
ENDMDL
MODEL 7
REMARK VINA RESULT:      -7.2      2.079      5.614
REMARK  4 active torsions:
REMARK  status: ('A' for Active; 'I' for Inactive)
REMARK    1  A    between atoms: C2_2  and  C3_3 
REMARK       I    between atoms: C3_3  and  N1_5 
REMARK    2  A    between atoms: N1_5  and  C4_6 
REMARK    3  A    between atoms: C9_13  and  N4_14 
REMARK    4  A    between atoms: N4_14  and  C10_15 
ROOT
HETATM    1  C4  UNL     1      26.283   1.403  51.858  1.00  0.00     0.036 A 
HETATM    2  C5  UNL     1      26.646   2.679  51.413  1.00  0.00     0.032 A 
HETATM    3  C6  UNL     1      25.756   3.571  50.861  1.00  0.00     0.035 A 
HETATM    4  C7  UNL     1      24.423   3.182  50.738  1.00  0.00     0.072 A 
HETATM    5  N2  UNL     1      23.553   4.057  50.197  1.00  0.00    -0.241 NA
HETATM    6  C8  UNL     1      22.258   3.702  50.068  1.00  0.00     0.236 A 
HETATM    7  N3  UNL     1      21.862   2.469  50.489  1.00  0.00    -0.224 NA
HETATM    8  C9  UNL     1      22.749   1.614  51.026  1.00  0.00     0.141 A 
HETATM    9  C15 UNL     1      24.067   1.912  51.181  1.00  0.00     0.041 A 
HETATM   10  C16 UNL     1      24.950   1.035  51.726  1.00  0.00     0.047 A 
ENDROOT
BRANCH   8  11
HETATM   11  N4  UNL     1      22.207   0.363  51.422  1.00  0.00    -0.344 N 
HETATM   12  H8  UNL     1      21.997  -0.493  50.876  1.00  0.00     0.167 HD
BRANCH  11  13
HETATM   13  C10 UNL     1      21.849   0.119  52.774  1.00  0.00     0.014 A 
HETATM   14  C11 UNL     1      20.917   0.709  53.492  1.00  0.00     0.025 A 
HETATM   15  C12 UNL     1      20.794   0.231  54.854  1.00  0.00    -0.002 A 
HETATM   16  C13 UNL     1      21.717  -0.712  54.958  1.00  0.00    -0.021 A 
HETATM   17  C14 UNL     1      22.467  -0.887  53.697  1.00  0.00     0.084 A 
ENDBRANCH  11  13
ENDBRANCH   8  11
BRANCH   1  18
HETATM   18  N1  UNL     1      27.246   0.517  52.422  1.00  0.00    -0.324 N 
HETATM   19  C3  UNL     1      27.652   0.756  53.784  1.00  0.00     0.244 C 
HETATM   20  O1  UNL     1      27.013   1.778  54.208  1.00  0.00    -0.268 OA
HETATM   21  H4  UNL     1      27.637  -0.280  51.848  1.00  0.00     0.169 HD
BRANCH  19  22
HETATM   22  C2  UNL     1      28.633  -0.117  54.415  1.00  0.00     0.064 C 
HETATM   23  C1  UNL     1      29.592  -0.817  53.833  1.00  0.00     0.017 C 
ENDBRANCH  19  22
ENDBRANCH   1  18
TORSDOF 4
ENDMDL
MODEL 8
REMARK VINA RESULT:      -6.9      2.203      3.365
REMARK  4 active torsions:
REMARK  status: ('A' for Active; 'I' for Inactive)
REMARK    1  A    between atoms: C2_2  and  C3_3 
REMARK       I    between atoms: C3_3  and  N1_5 
REMARK    2  A    between atoms: N1_5  and  C4_6 
REMARK    3  A    between atoms: C9_13  and  N4_14 
REMARK    4  A    between atoms: N4_14  and  C10_15 
ROOT
HETATM    1  C4  UNL     1      24.152   4.742  51.174  1.00  0.00     0.036 A 
HETATM    2  C5  UNL     1      23.090   5.623  51.402  1.00  0.00     0.032 A 
HETATM    3  C6  UNL     1      21.852   5.219  51.846  1.00  0.00     0.035 A 
HETATM    4  C7  UNL     1      21.646   3.860  52.080  1.00  0.00     0.072 A 
HETATM    5  N2  UNL     1      20.433   3.466  52.516  1.00  0.00    -0.241 NA
HETATM    6  C8  UNL     1      20.212   2.156  52.748  1.00  0.00     0.236 A 
HETATM    7  N3  UNL     1      21.220   1.264  52.539  1.00  0.00    -0.224 NA
HETATM    8  C9  UNL     1      22.421   1.682  52.105  1.00  0.00     0.141 A 
HETATM    9  C15 UNL     1      22.706   2.988  51.852  1.00  0.00     0.041 A 
HETATM   10  C16 UNL     1      23.927   3.392  51.413  1.00  0.00     0.047 A 
ENDROOT
BRANCH   8  11
HETATM   11  N4  UNL     1      23.382   0.652  51.928  1.00  0.00    -0.344 N 
HETATM   12  H8  UNL     1      23.662   0.118  51.084  1.00  0.00     0.167 HD
BRANCH  11  13
HETATM   13  C10 UNL     1      24.159   0.183  53.020  1.00  0.00     0.014 A 
HETATM   14  C11 UNL     1      25.422   0.434  53.291  1.00  0.00     0.025 A 
HETATM   15  C12 UNL     1      25.931  -0.198  54.491  1.00  0.00    -0.002 A 
HETATM   16  C13 UNL     1      24.900  -0.876  54.971  1.00  0.00    -0.021 A 
HETATM   17  C14 UNL     1      23.699  -0.719  54.125  1.00  0.00     0.084 A 
ENDBRANCH  11  13
ENDBRANCH   8  11
BRANCH   1  18
HETATM   18  N1  UNL     1      25.414   5.214  50.713  1.00  0.00    -0.324 N 
HETATM   19  C3  UNL     1      25.611   5.306  49.288  1.00  0.00     0.244 C 
HETATM   20  O1  UNL     1      24.534   4.917  48.720  1.00  0.00    -0.268 OA
HETATM   21  H4  UNL     1      26.168   5.482  51.405  1.00  0.00     0.169 HD
BRANCH  19  22
HETATM   22  C2  UNL     1      26.882   5.783  48.757  1.00  0.00     0.064 C 
HETATM   23  C1  UNL     1      27.970   5.078  48.500  1.00  0.00     0.017 C 
ENDBRANCH  19  22
ENDBRANCH   1  18
TORSDOF 4
ENDMDL
MODEL 9
REMARK VINA RESULT:      -6.8      2.851      5.992
REMARK  4 active torsions:
REMARK  status: ('A' for Active; 'I' for Inactive)
REMARK    1  A    between atoms: C2_2  and  C3_3 
REMARK       I    between atoms: C3_3  and  N1_5 
REMARK    2  A    between atoms: N1_5  and  C4_6 
REMARK    3  A    between atoms: C9_13  and  N4_14 
REMARK    4  A    between atoms: N4_14  and  C10_15 
ROOT
HETATM    1  C4  UNL     1      22.215   0.052  52.423  1.00  0.00     0.036 A 
HETATM    2  C5  UNL     1      22.511  -1.142  53.090  1.00  0.00     0.032 A 
HETATM    3  C6  UNL     1      23.646  -1.327  53.845  1.00  0.00     0.035 A 
HETATM    4  C7  UNL     1      24.548  -0.270  53.951  1.00  0.00     0.072 A 
HETATM    5  N2  UNL     1      25.659  -0.452  54.691  1.00  0.00    -0.241 NA
HETATM    6  C8  UNL     1      26.545   0.558  54.807  1.00  0.00     0.236 A 
HETATM    7  N3  UNL     1      26.295   1.738  54.174  1.00  0.00    -0.224 NA
HETATM    8  C9  UNL     1      25.180   1.896  53.442  1.00  0.00     0.141 A 
HETATM    9  C15 UNL     1      24.249   0.916  53.286  1.00  0.00     0.041 A 
HETATM   10  C16 UNL     1      23.126   1.094  52.541  1.00  0.00     0.047 A 
ENDROOT
BRANCH   8  11
HETATM   11  N4  UNL     1      25.041   3.171  52.835  1.00  0.00    -0.344 N 
HETATM   12  H8  UNL     1      24.670   4.066  53.205  1.00  0.00     0.167 HD
BRANCH  11  13
HETATM   13  C10 UNL     1      25.442   3.388  51.490  1.00  0.00     0.014 A 
HETATM   14  C11 UNL     1      24.917   4.203  50.601  1.00  0.00     0.025 A 
HETATM   15  C12 UNL     1      25.559   4.196  49.303  1.00  0.00    -0.002 A 
HETATM   16  C13 UNL     1      26.539   3.314  49.423  1.00  0.00    -0.021 A 
HETATM   17  C14 UNL     1      26.578   2.719  50.775  1.00  0.00     0.084 A 
ENDBRANCH  11  13
ENDBRANCH   8  11
BRANCH   1  18
HETATM   18  N1  UNL     1      21.025   0.190  51.653  1.00  0.00    -0.324 N 
HETATM   19  C3  UNL     1      19.770   0.207  52.363  1.00  0.00     0.244 C 
HETATM   20  O1  UNL     1      20.027   0.086  53.610  1.00  0.00    -0.268 OA
HETATM   21  H4  UNL     1      21.078   0.275  50.600  1.00  0.00     0.169 HD
BRANCH  19  22
HETATM   22  C2  UNL     1      18.519   0.347  51.629  1.00  0.00     0.064 C 
HETATM   23  C1  UNL     1      17.344  -0.186  51.918  1.00  0.00     0.017 C 
ENDBRANCH  19  22
ENDBRANCH   1  18
TORSDOF 4
ENDMDL
