MODEL 1
REMARK VINA RESULT:     -10.0      0.000      0.000
REMARK  3 active torsions:
REMARK  status: ('A' for Active; 'I' for Inactive)
REMARK       I    between atoms: N1_1  and  C1_2 
REMARK       I    between atoms: C1_2  and  N2_3 
REMARK    1  A    between atoms: N3_4  and  C2_5 
REMARK    2  A    between atoms: C2_5  and  N4_6 
REMARK    3  A    between atoms: N4_6  and  C3_7 
ROOT
HETATM    1  C2  UNL     1      25.009   1.133  52.255  1.00  0.00     0.157 C 
HETATM    2  C9  UNL     1      23.706   0.795  52.282  1.00  0.00     0.009 A 
HETATM    3  C10 UNL     1      23.013   1.324  51.157  1.00  0.00     0.027 A 
HETATM    4  C11 UNL     1      22.318   1.762  50.181  1.00  0.00     0.040 A 
HETATM    5  C12 UNL     1      20.889   1.335  50.304  1.00  0.00     0.000 A 
HETATM    6 CL1  UNL     1      19.158   1.125  49.963  1.00  0.00    -0.176 Cl
HETATM    7  C13 UNL     1      20.383   0.618  51.257  1.00  0.00     0.133 A 
HETATM    8  C14 UNL     1      19.863  -0.218  52.397  1.00  0.00    -0.006 A 
HETATM    9  C15 UNL     1      20.200  -0.825  53.511  1.00  0.00    -0.024 A 
HETATM   10  C16 UNL     1      21.196  -1.207  54.526  1.00  0.00     0.078 A 
HETATM   11  C17 UNL     1      22.556  -0.692  54.248  1.00  0.00     0.016 A 
HETATM   12 CL2  UNL     1      23.346  -1.396  55.710  1.00  0.00    -0.089 Cl
HETATM   13  C18 UNL     1      23.349  -0.000  53.442  1.00  0.00     0.034 A 
ENDROOT
BRANCH   1  14
HETATM   14  N3  UNL     1      25.672   1.886  51.311  1.00  0.00    -0.047 NA
HETATM   15  C1  UNL     1      25.666   3.144  51.137  1.00  0.00     0.693 C 
HETATM   16  N1  UNL     1      26.194   4.199  50.319  1.00  0.00    -0.233 N 
HETATM   17  N2  UNL     1      24.883   3.938  52.005  1.00  0.00    -0.233 N 
HETATM   18  H1  UNL     1      26.989   4.808  50.593  1.00  0.00     0.174 HD
HETATM   19  H2  UNL     1      25.631   4.218  49.432  1.00  0.00     0.174 HD
HETATM   20  H3  UNL     1      24.663   4.633  52.764  1.00  0.00     0.174 HD
HETATM   21  H4  UNL     1      24.168   4.460  52.576  1.00  0.00     0.174 HD
ENDBRANCH   1  14
BRANCH   1  22
HETATM   22  N4  UNL     1      26.170   0.921  53.041  1.00  0.00    -0.340 N 
HETATM   23  H5  UNL     1      26.308   1.757  53.687  1.00  0.00     0.167 HD
BRANCH  22  24
HETATM   24  C3  UNL     1      27.059  -0.188  53.029  1.00  0.00     0.036 A 
HETATM   25  C4  UNL     1      26.560  -1.404  52.614  1.00  0.00     0.029 A 
HETATM   26  C5  UNL     1      27.476  -2.434  52.628  1.00  0.00     0.005 A 
HETATM   27  C6  UNL     1      28.796  -2.302  53.019  1.00  0.00     0.042 A 
HETATM   28  C7  UNL     1      29.201  -1.042  53.420  1.00  0.00     0.118 A 
HETATM   29  F1  UNL     1      30.497  -0.820  53.825  1.00  0.00    -0.206 F 
HETATM   30  C8  UNL     1      28.351   0.052  53.438  1.00  0.00     0.071 A 
ENDBRANCH  22  24
ENDBRANCH   1  22
TORSDOF 3
ENDMDL
MODEL 2
REMARK VINA RESULT:      -9.5      0.968      1.363
REMARK  3 active torsions:
REMARK  status: ('A' for Active; 'I' for Inactive)
REMARK       I    between atoms: N1_1  and  C1_2 
REMARK       I    between atoms: C1_2  and  N2_3 
REMARK    1  A    between atoms: N3_4  and  C2_5 
REMARK    2  A    between atoms: C2_5  and  N4_6 
REMARK    3  A    between atoms: N4_6  and  C3_7 
ROOT
HETATM    1  C2  UNL     1      24.778   1.486  52.308  1.00  0.00     0.157 C 
HETATM    2  C9  UNL     1      23.514   1.021  52.314  1.00  0.00     0.009 A 
HETATM    3  C10 UNL     1      22.795   1.470  51.170  1.00  0.00     0.027 A 
HETATM    4  C11 UNL     1      22.081   1.828  50.176  1.00  0.00     0.040 A 
HETATM    5  C12 UNL     1      20.698   1.264  50.277  1.00  0.00     0.000 A 
HETATM    6 CL1  UNL     1      19.003   0.881  49.906  1.00  0.00    -0.176 Cl
HETATM    7  C13 UNL     1      20.246   0.509  51.228  1.00  0.00     0.133 A 
HETATM    8  C14 UNL     1      19.788  -0.364  52.366  1.00  0.00    -0.006 A 
HETATM    9  C15 UNL     1      20.161  -0.925  53.493  1.00  0.00    -0.024 A 
HETATM   10  C16 UNL     1      21.169  -1.198  54.531  1.00  0.00     0.078 A 
HETATM   11  C17 UNL     1      22.477  -0.554  54.273  1.00  0.00     0.016 A 
HETATM   12 CL2  UNL     1      23.302  -1.164  55.758  1.00  0.00    -0.089 Cl
HETATM   13  C18 UNL     1      23.214   0.205  53.476  1.00  0.00     0.034 A 
ENDROOT
BRANCH   1  14
HETATM   14  N3  UNL     1      25.383   2.292  51.369  1.00  0.00    -0.047 NA
HETATM   15  C1  UNL     1      25.326   3.554  51.237  1.00  0.00     0.693 C 
HETATM   16  N1  UNL     1      25.791   4.653  50.438  1.00  0.00    -0.233 N 
HETATM   17  N2  UNL     1      24.545   4.291  52.155  1.00  0.00    -0.233 N 
HETATM   18  H1  UNL     1      26.572   5.281  50.706  1.00  0.00     0.174 HD
HETATM   19  H2  UNL     1      25.198   4.679  49.570  1.00  0.00     0.174 HD
HETATM   20  H3  UNL     1      24.326   4.952  52.943  1.00  0.00     0.174 HD
HETATM   21  H4  UNL     1      23.832   4.768  52.765  1.00  0.00     0.174 HD
ENDBRANCH   1  14
BRANCH   1  22
HETATM   22  N4  UNL     1      25.938   1.396  53.119  1.00  0.00    -0.340 N 
HETATM   23  H5  UNL     1      25.977   2.244  53.762  1.00  0.00     0.167 HD
BRANCH  22  24
HETATM   24  C3  UNL     1      26.935   0.382  53.131  1.00  0.00     0.036 A 
HETATM   25  C4  UNL     1      28.185   0.719  53.606  1.00  0.00     0.029 A 
HETATM   26  C5  UNL     1      29.100  -0.312  53.588  1.00  0.00     0.005 A 
HETATM   27  C6  UNL     1      28.830  -1.591  53.138  1.00  0.00     0.042 A 
HETATM   28  C7  UNL     1      27.547  -1.829  52.680  1.00  0.00     0.118 A 
HETATM   29  F1  UNL     1      27.191  -3.074  52.215  1.00  0.00    -0.206 F 
HETATM   30  C8  UNL     1      26.561  -0.856  52.661  1.00  0.00     0.071 A 
ENDBRANCH  22  24
ENDBRANCH   1  22
TORSDOF 3
ENDMDL
MODEL 3
REMARK VINA RESULT:      -9.4      2.653      4.333
REMARK  3 active torsions:
REMARK  status: ('A' for Active; 'I' for Inactive)
REMARK       I    between atoms: N1_1  and  C1_2 
REMARK       I    between atoms: C1_2  and  N2_3 
REMARK    1  A    between atoms: N3_4  and  C2_5 
REMARK    2  A    between atoms: C2_5  and  N4_6 
REMARK    3  A    between atoms: N4_6  and  C3_7 
ROOT
HETATM    1  C2  UNL     1      23.539  -0.148  52.856  1.00  0.00     0.157 C 
HETATM    2  C9  UNL     1      23.465   0.750  51.855  1.00  0.00     0.009 A 
HETATM    3  C10 UNL     1      22.215   0.666  51.179  1.00  0.00     0.027 A 
HETATM    4  C11 UNL     1      21.122   0.655  50.521  1.00  0.00     0.040 A 
HETATM    5  C12 UNL     1      21.140   1.682  49.434  1.00  0.00     0.000 A 
HETATM    6 CL1  UNL     1      20.640   2.685  48.054  1.00  0.00    -0.176 Cl
HETATM    7  C13 UNL     1      22.112   2.494  49.163  1.00  0.00     0.133 A 
HETATM    8  C14 UNL     1      23.282   3.408  48.904  1.00  0.00    -0.006 A 
HETATM    9  C15 UNL     1      24.492   3.725  49.302  1.00  0.00    -0.024 A 
HETATM   10  C16 UNL     1      25.648   3.545  50.195  1.00  0.00     0.078 A 
HETATM   11  C17 UNL     1      25.460   2.480  51.206  1.00  0.00     0.016 A 
HETATM   12 CL2  UNL     1      27.075   2.655  51.993  1.00  0.00    -0.089 Cl
HETATM   13  C18 UNL     1      24.667   1.550  51.719  1.00  0.00     0.034 A 
ENDROOT
BRANCH   1  14
HETATM   14  N3  UNL     1      22.589  -1.064  53.249  1.00  0.00    -0.047 NA
HETATM   15  C1  UNL     1      21.568  -0.897  53.986  1.00  0.00     0.693 C 
HETATM   16  N1  UNL     1      20.440  -1.570  54.566  1.00  0.00    -0.233 N 
HETATM   17  N2  UNL     1      21.321   0.393  54.508  1.00  0.00    -0.233 N 
HETATM   18  H1  UNL     1      19.475  -1.525  54.187  1.00  0.00     0.174 HD
HETATM   19  H2  UNL     1      20.788  -2.089  55.411  1.00  0.00     0.174 HD
HETATM   20  H3  UNL     1      20.840   1.319  54.640  1.00  0.00     0.174 HD
HETATM   21  H4  UNL     1      21.272   1.327  54.991  1.00  0.00     0.174 HD
ENDBRANCH   1  14
BRANCH   1  22
HETATM   22  N4  UNL     1      24.467  -0.540  53.854  1.00  0.00    -0.340 N 
HETATM   23  H5  UNL     1      23.938  -0.767  54.749  1.00  0.00     0.167 HD
BRANCH  22  24
HETATM   24  C3  UNL     1      25.883  -0.636  53.759  1.00  0.00     0.036 A 
HETATM   25  C4  UNL     1      26.406  -1.484  52.806  1.00  0.00     0.029 A 
HETATM   26  C5  UNL     1      27.783  -1.527  52.772  1.00  0.00     0.005 A 
HETATM   27  C6  UNL     1      28.610  -0.798  53.607  1.00  0.00     0.042 A 
HETATM   28  C7  UNL     1      27.990   0.023  54.531  1.00  0.00     0.118 A 
HETATM   29  F1  UNL     1      28.736   0.784  55.401  1.00  0.00    -0.206 F 
HETATM   30  C8  UNL     1      26.613   0.131  54.638  1.00  0.00     0.071 A 
ENDBRANCH  22  24
ENDBRANCH   1  22
TORSDOF 3
ENDMDL
MODEL 4
REMARK VINA RESULT:      -9.0      2.747      5.183
REMARK  3 active torsions:
REMARK  status: ('A' for Active; 'I' for Inactive)
REMARK       I    between atoms: N1_1  and  C1_2 
REMARK       I    between atoms: C1_2  and  N2_3 
REMARK    1  A    between atoms: N3_4  and  C2_5 
REMARK    2  A    between atoms: C2_5  and  N4_6 
REMARK    3  A    between atoms: N4_6  and  C3_7 
ROOT
HETATM    1  C2  UNL     1      24.351   1.363  52.313  1.00  0.00     0.157 C 
HETATM    2  C9  UNL     1      23.074   1.111  51.971  1.00  0.00     0.009 A 
HETATM    3  C10 UNL     1      22.376   0.461  53.029  1.00  0.00     0.027 A 
HETATM    4  C11 UNL     1      21.681  -0.122  53.925  1.00  0.00     0.040 A 
HETATM    5  C12 UNL     1      20.282  -0.360  53.448  1.00  0.00     0.000 A 
HETATM    6 CL1  UNL     1      18.581  -0.871  53.405  1.00  0.00    -0.176 Cl
HETATM    7  C13 UNL     1      19.801  -0.034  52.291  1.00  0.00     0.133 A 
HETATM    8  C14 UNL     1      19.309   0.374  50.927  1.00  0.00    -0.006 A 
HETATM    9  C15 UNL     1      19.658   0.943  49.796  1.00  0.00    -0.024 A 
HETATM   10  C16 UNL     1      20.653   1.600  48.932  1.00  0.00     0.078 A 
HETATM   11  C17 UNL     1      21.985   1.746  49.562  1.00  0.00     0.016 A 
HETATM   12 CL2  UNL     1      22.786   2.557  48.162  1.00  0.00    -0.089 Cl
HETATM   13  C18 UNL     1      22.748   1.549  50.627  1.00  0.00     0.034 A 
ENDROOT
BRANCH   1  14
HETATM   14  N3  UNL     1      24.988   1.071  53.499  1.00  0.00    -0.047 NA
HETATM   15  C1  UNL     1      25.657   0.039  53.819  1.00  0.00     0.693 C 
HETATM   16  N1  UNL     1      26.407  -0.566  54.883  1.00  0.00    -0.233 N 
HETATM   17  N2  UNL     1      25.801  -0.991  52.862  1.00  0.00    -0.233 N 
HETATM   18  H1  UNL     1      27.443  -0.568  54.939  1.00  0.00     0.174 HD
HETATM   19  H2  UNL     1      25.714  -0.982  55.555  1.00  0.00     0.174 HD
HETATM   20  H3  UNL     1      26.278  -1.618  52.165  1.00  0.00     0.174 HD
HETATM   21  H4  UNL     1      25.746  -1.785  52.173  1.00  0.00     0.174 HD
ENDBRANCH   1  14
BRANCH   1  22
HETATM   22  N4  UNL     1      25.499   1.963  51.734  1.00  0.00    -0.340 N 
HETATM   23  H5  UNL     1      26.355   1.382  51.982  1.00  0.00     0.167 HD
BRANCH  22  24
HETATM   24  C3  UNL     1      25.580   3.144  50.946  1.00  0.00     0.036 A 
HETATM   25  C4  UNL     1      24.639   4.127  51.165  1.00  0.00     0.029 A 
HETATM   26  C5  UNL     1      24.778   5.241  50.366  1.00  0.00     0.005 A 
HETATM   27  C6  UNL     1      25.766   5.401  49.411  1.00  0.00     0.042 A 
HETATM   28  C7  UNL     1      26.662   4.358  49.266  1.00  0.00     0.118 A 
HETATM   29  F1  UNL     1      27.677   4.433  48.339  1.00  0.00    -0.206 F 
HETATM   30  C8  UNL     1      26.601   3.200  50.024  1.00  0.00     0.071 A 
ENDBRANCH  22  24
ENDBRANCH   1  22
TORSDOF 3
ENDMDL
MODEL 5
REMARK VINA RESULT:      -8.8      3.368      5.883
REMARK  3 active torsions:
REMARK  status: ('A' for Active; 'I' for Inactive)
REMARK       I    between atoms: N1_1  and  C1_2 
REMARK       I    between atoms: C1_2  and  N2_3 
REMARK    1  A    between atoms: N3_4  and  C2_5 
REMARK    2  A    between atoms: C2_5  and  N4_6 
REMARK    3  A    between atoms: N4_6  and  C3_7 
ROOT
HETATM    1  C2  UNL     1      25.370   2.679  51.768  1.00  0.00     0.157 C 
HETATM    2  C9  UNL     1      24.216   2.148  52.216  1.00  0.00     0.009 A 
HETATM    3  C10 UNL     1      24.428   0.860  52.785  1.00  0.00     0.027 A 
HETATM    4  C11 UNL     1      24.532  -0.297  53.310  1.00  0.00     0.040 A 
HETATM    5  C12 UNL     1      23.200  -0.799  53.772  1.00  0.00     0.000 A 
HETATM    6 CL1  UNL     1      21.942  -1.840  54.473  1.00  0.00    -0.176 Cl
HETATM    7  C13 UNL     1      22.070  -0.174  53.672  1.00  0.00     0.133 A 
HETATM    8  C14 UNL     1      20.791   0.609  53.523  1.00  0.00    -0.006 A 
HETATM    9  C15 UNL     1      20.278   1.733  53.080  1.00  0.00    -0.024 A 
HETATM   10  C16 UNL     1      20.411   3.050  52.435  1.00  0.00     0.078 A 
HETATM   11  C17 UNL     1      21.798   3.379  52.035  1.00  0.00     0.016 A 
HETATM   12 CL2  UNL     1      21.429   4.999  51.328  1.00  0.00    -0.089 Cl
HETATM   13  C18 UNL     1      23.070   3.010  51.995  1.00  0.00     0.034 A 
ENDROOT
BRANCH   1  14
HETATM   14  N3  UNL     1      26.632   2.128  51.808  1.00  0.00    -0.047 NA
HETATM   15  C1  UNL     1      27.474   2.119  52.759  1.00  0.00     0.693 C 
HETATM   16  N1  UNL     1      28.787   1.675  53.134  1.00  0.00    -0.233 N 
HETATM   17  N2  UNL     1      27.123   2.750  53.974  1.00  0.00    -0.233 N 
HETATM   18  H1  UNL     1      28.977   0.832  53.708  1.00  0.00     0.174 HD
HETATM   19  H2  UNL     1      29.475   2.355  52.721  1.00  0.00     0.174 HD
HETATM   20  H3  UNL     1      26.861   2.841  54.989  1.00  0.00     0.174 HD
HETATM   21  H4  UNL     1      26.872   3.363  54.793  1.00  0.00     0.174 HD
ENDBRANCH   1  14
BRANCH   1  22
HETATM   22  N4  UNL     1      25.807   3.873  51.140  1.00  0.00    -0.340 N 
HETATM   23  H5  UNL     1      26.842   4.014  51.349  1.00  0.00     0.167 HD
BRANCH  22  24
HETATM   24  C3  UNL     1      25.056   4.788  50.352  1.00  0.00     0.036 A 
HETATM   25  C4  UNL     1      24.537   4.330  49.159  1.00  0.00     0.029 A 
HETATM   26  C5  UNL     1      23.822   5.269  48.448  1.00  0.00     0.005 A 
HETATM   27  C6  UNL     1      23.617   6.573  48.860  1.00  0.00     0.042 A 
HETATM   28  C7  UNL     1      24.179   6.937  50.070  1.00  0.00     0.118 A 
HETATM   29  F1  UNL     1      24.025   8.215  50.556  1.00  0.00    -0.206 F 
HETATM   30  C8  UNL     1      24.913   6.061  50.853  1.00  0.00     0.071 A 
ENDBRANCH  22  24
ENDBRANCH   1  22
TORSDOF 3
ENDMDL
MODEL 6
REMARK VINA RESULT:      -8.8      2.061      2.933
REMARK  3 active torsions:
REMARK  status: ('A' for Active; 'I' for Inactive)
REMARK       I    between atoms: N1_1  and  C1_2 
REMARK       I    between atoms: C1_2  and  N2_3 
REMARK    1  A    between atoms: N3_4  and  C2_5 
REMARK    2  A    between atoms: C2_5  and  N4_6 
REMARK    3  A    between atoms: N4_6  and  C3_7 
ROOT
HETATM    1  C2  UNL     1      25.000   3.098  50.605  1.00  0.00     0.157 C 
HETATM    2  C9  UNL     1      23.753   2.663  50.344  1.00  0.00     0.009 A 
HETATM    3  C10 UNL     1      23.243   3.247  49.150  1.00  0.00     0.027 A 
HETATM    4  C11 UNL     1      22.712   3.725  48.094  1.00  0.00     0.040 A 
HETATM    5  C12 UNL     1      21.331   3.184  47.895  1.00  0.00     0.000 A 
HETATM    6 CL1  UNL     1      19.724   2.881  47.199  1.00  0.00    -0.176 Cl
HETATM    7  C13 UNL     1      20.719   2.342  48.666  1.00  0.00     0.133 A 
HETATM    8  C14 UNL     1      20.069   1.362  49.607  1.00  0.00    -0.006 A 
HETATM    9  C15 UNL     1      20.240   0.675  50.712  1.00  0.00    -0.024 A 
HETATM   10  C16 UNL     1      21.054   0.270  51.871  1.00  0.00     0.078 A 
HETATM   11  C17 UNL     1      22.389   0.910  51.913  1.00  0.00     0.016 A 
HETATM   12 CL2  UNL     1      22.944   0.125  53.441  1.00  0.00    -0.089 Cl
HETATM   13  C18 UNL     1      23.255   1.733  51.341  1.00  0.00     0.034 A 
ENDROOT
BRANCH   1  14
HETATM   14  N3  UNL     1      25.760   3.986  49.878  1.00  0.00    -0.047 NA
HETATM   15  C1  UNL     1      25.805   5.254  49.951  1.00  0.00     0.693 C 
HETATM   16  N1  UNL     1      26.430   6.421  49.396  1.00  0.00    -0.233 N 
HETATM   17  N2  UNL     1      24.978   5.902  50.897  1.00  0.00    -0.233 N 
HETATM   18  H1  UNL     1      27.218   6.930  49.841  1.00  0.00     0.174 HD
HETATM   19  H2  UNL     1      25.942   6.634  48.489  1.00  0.00     0.174 HD
HETATM   20  H3  UNL     1      24.718   6.447  51.757  1.00  0.00     0.174 HD
HETATM   21  H4  UNL     1      24.235   6.336  51.503  1.00  0.00     0.174 HD
ENDBRANCH   1  14
BRANCH   1  22
HETATM   22  N4  UNL     1      26.003   2.896  51.588  1.00  0.00    -0.340 N 
HETATM   23  H5  UNL     1      26.621   3.762  51.633  1.00  0.00     0.167 HD
BRANCH  22  24
HETATM   24  C3  UNL     1      26.220   1.759  52.413  1.00  0.00     0.036 A 
HETATM   25  C4  UNL     1      26.171   1.940  53.779  1.00  0.00     0.029 A 
HETATM   26  C5  UNL     1      26.390   0.797  54.516  1.00  0.00     0.005 A 
HETATM   27  C6  UNL     1      26.644  -0.449  53.972  1.00  0.00     0.042 A 
HETATM   28  C7  UNL     1      26.674  -0.528  52.592  1.00  0.00     0.118 A 
HETATM   29  F1  UNL     1      26.920  -1.728  51.966  1.00  0.00    -0.206 F 
HETATM   30  C8  UNL     1      26.465   0.568  51.770  1.00  0.00     0.071 A 
ENDBRANCH  22  24
ENDBRANCH   1  22
TORSDOF 3
ENDMDL
MODEL 7
REMARK VINA RESULT:      -8.4      3.667      6.226
REMARK  3 active torsions:
REMARK  status: ('A' for Active; 'I' for Inactive)
REMARK       I    between atoms: N1_1  and  C1_2 
REMARK       I    between atoms: C1_2  and  N2_3 
REMARK    1  A    between atoms: N3_4  and  C2_5 
REMARK    2  A    between atoms: C2_5  and  N4_6 
REMARK    3  A    between atoms: N4_6  and  C3_7 
ROOT
HETATM    1  C2  UNL     1      22.226   2.725  50.485  1.00  0.00     0.157 C 
HETATM    2  C9  UNL     1      22.769   1.857  51.361  1.00  0.00     0.009 A 
HETATM    3  C10 UNL     1      21.767   1.059  51.982  1.00  0.00     0.027 A 
HETATM    4  C11 UNL     1      20.933   0.304  52.584  1.00  0.00     0.040 A 
HETATM    5  C12 UNL     1      21.632  -0.618  53.533  1.00  0.00     0.000 A 
HETATM    6 CL1  UNL     1      21.922  -1.879  54.751  1.00  0.00    -0.176 Cl
HETATM    7  C13 UNL     1      22.908  -0.676  53.745  1.00  0.00     0.133 A 
HETATM    8  C14 UNL     1      24.401  -0.688  53.942  1.00  0.00    -0.006 A 
HETATM    9  C15 UNL     1      25.529  -0.131  53.564  1.00  0.00    -0.024 A 
HETATM   10  C16 UNL     1      26.284   0.841  52.756  1.00  0.00     0.078 A 
HETATM   11  C17 UNL     1      25.432   1.676  51.879  1.00  0.00     0.016 A 
HETATM   12 CL2  UNL     1      26.771   2.644  51.153  1.00  0.00    -0.089 Cl
HETATM   13  C18 UNL     1      24.212   1.968  51.451  1.00  0.00     0.034 A 
ENDROOT
BRANCH   1  14
HETATM   14  N3  UNL     1      20.897   2.893  50.167  1.00  0.00    -0.047 NA
HETATM   15  C1  UNL     1      20.206   2.313  49.272  1.00  0.00     0.693 C 
HETATM   16  N1  UNL     1      18.893   2.239  48.696  1.00  0.00    -0.233 N 
HETATM   17  N2  UNL     1      20.837   1.348  48.456  1.00  0.00    -0.233 N 
HETATM   18  H1  UNL     1      18.200   1.498  48.915  1.00  0.00     0.174 HD
HETATM   19  H2  UNL     1      18.794   3.055  48.040  1.00  0.00     0.174 HD
HETATM   20  H3  UNL     1      21.068   0.401  48.061  1.00  0.00     0.174 HD
HETATM   21  H4  UNL     1      21.391   0.759  47.782  1.00  0.00     0.174 HD
ENDBRANCH   1  14
BRANCH   1  22
HETATM   22  N4  UNL     1      22.667   3.732  49.590  1.00  0.00    -0.340 N 
HETATM   23  H5  UNL     1      22.158   3.616  48.662  1.00  0.00     0.167 HD
BRANCH  22  24
HETATM   24  C3  UNL     1      23.626   4.759  49.811  1.00  0.00     0.036 A 
HETATM   25  C4  UNL     1      23.372   5.666  50.818  1.00  0.00     0.029 A 
HETATM   26  C5  UNL     1      24.342   6.632  50.975  1.00  0.00     0.005 A 
HETATM   27  C6  UNL     1      25.489   6.722  50.209  1.00  0.00     0.042 A 
HETATM   28  C7  UNL     1      25.653   5.766  49.223  1.00  0.00     0.118 A 
HETATM   29  F1  UNL     1      26.765   5.779  48.414  1.00  0.00    -0.206 F 
HETATM   30  C8  UNL     1      24.731   4.757  48.992  1.00  0.00     0.071 A 
ENDBRANCH  22  24
ENDBRANCH   1  22
TORSDOF 3
ENDMDL
MODEL 8
REMARK VINA RESULT:      -8.4      3.731      5.694
REMARK  3 active torsions:
REMARK  status: ('A' for Active; 'I' for Inactive)
REMARK       I    between atoms: N1_1  and  C1_2 
REMARK       I    between atoms: C1_2  and  N2_3 
REMARK    1  A    between atoms: N3_4  and  C2_5 
REMARK    2  A    between atoms: C2_5  and  N4_6 
REMARK    3  A    between atoms: N4_6  and  C3_7 
ROOT
HETATM    1  C2  UNL     1      24.491   2.514  51.268  1.00  0.00     0.157 C 
HETATM    2  C9  UNL     1      24.316   3.780  50.846  1.00  0.00     0.009 A 
HETATM    3  C10 UNL     1      23.085   4.316  51.320  1.00  0.00     0.027 A 
HETATM    4  C11 UNL     1      22.002   4.870  51.703  1.00  0.00     0.040 A 
HETATM    5  C12 UNL     1      21.902   6.269  51.181  1.00  0.00     0.000 A 
HETATM    6 CL1  UNL     1      21.289   7.904  50.850  1.00  0.00    -0.176 Cl
HETATM    7  C13 UNL     1      22.774   6.875  50.439  1.00  0.00     0.133 A 
HETATM    8  C14 UNL     1      23.829   7.517  49.577  1.00  0.00    -0.006 A 
HETATM    9  C15 UNL     1      24.992   7.323  48.998  1.00  0.00    -0.024 A 
HETATM   10  C16 UNL     1      26.156   6.478  48.684  1.00  0.00     0.078 A 
HETATM   11  C17 UNL     1      26.084   5.123  49.276  1.00  0.00     0.016 A 
HETATM   12 CL2  UNL     1      27.658   4.530  48.620  1.00  0.00    -0.089 Cl
HETATM   13  C18 UNL     1      25.407   4.259  50.018  1.00  0.00     0.034 A 
ENDROOT
BRANCH   1  14
HETATM   14  N3  UNL     1      23.651   1.755  52.053  1.00  0.00    -0.047 NA
HETATM   15  C1  UNL     1      22.627   1.082  51.717  1.00  0.00     0.693 C 
HETATM   16  N1  UNL     1      21.587   0.232  52.224  1.00  0.00    -0.233 N 
HETATM   17  N2  UNL     1      22.247   1.072  50.355  1.00  0.00    -0.233 N 
HETATM   18  H1  UNL     1      21.594  -0.804  52.157  1.00  0.00     0.174 HD
HETATM   19  H2  UNL     1      20.858   0.856  52.654  1.00  0.00     0.174 HD
HETATM   20  H3  UNL     1      22.089   0.693  49.387  1.00  0.00     0.174 HD
HETATM   21  H4  UNL     1      21.923   1.225  49.366  1.00  0.00     0.174 HD
ENDBRANCH   1  14
BRANCH   1  22
HETATM   22  N4  UNL     1      25.463   1.488  51.151  1.00  0.00    -0.340 N 
HETATM   23  H5  UNL     1      25.284   0.942  50.254  1.00  0.00     0.167 HD
BRANCH  22  24
HETATM   24  C3  UNL     1      26.528   1.170  52.038  1.00  0.00     0.036 A 
HETATM   25  C4  UNL     1      26.712  -0.156  52.369  1.00  0.00     0.029 A 
HETATM   26  C5  UNL     1      27.761  -0.390  53.231  1.00  0.00     0.005 A 
HETATM   27  C6  UNL     1      28.585   0.593  53.747  1.00  0.00     0.042 A 
HETATM   28  C7  UNL     1      28.319   1.893  53.356  1.00  0.00     0.118 A 
HETATM   29  F1  UNL     1      29.090   2.934  53.820  1.00  0.00    -0.206 F 
HETATM   30  C8  UNL     1      27.287   2.224  52.493  1.00  0.00     0.071 A 
ENDBRANCH  22  24
ENDBRANCH   1  22
TORSDOF 3
ENDMDL
MODEL 9
REMARK VINA RESULT:      -8.2      3.309      5.848
REMARK  3 active torsions:
REMARK  status: ('A' for Active; 'I' for Inactive)
REMARK       I    between atoms: N1_1  and  C1_2 
REMARK       I    between atoms: C1_2  and  N2_3 
REMARK    1  A    between atoms: N3_4  and  C2_5 
REMARK    2  A    between atoms: C2_5  and  N4_6 
REMARK    3  A    between atoms: N4_6  and  C3_7 
ROOT
HETATM    1  C2  UNL     1      24.336   2.325  51.692  1.00  0.00     0.157 C 
HETATM    2  C9  UNL     1      23.958   3.113  50.667  1.00  0.00     0.009 A 
HETATM    3  C10 UNL     1      24.535   4.410  50.775  1.00  0.00     0.027 A 
HETATM    4  C11 UNL     1      25.010   5.594  50.798  1.00  0.00     0.040 A 
HETATM    5  C12 UNL     1      24.530   6.387  49.624  1.00  0.00     0.000 A 
HETATM    6 CL1  UNL     1      24.284   7.727  48.483  1.00  0.00    -0.176 Cl
HETATM    7  C13 UNL     1      23.740   5.968  48.687  1.00  0.00     0.133 A 
HETATM    8  C14 UNL     1      22.818   5.414  47.632  1.00  0.00    -0.006 A 
HETATM    9  C15 UNL     1      22.149   4.348  47.257  1.00  0.00    -0.024 A 
HETATM   10  C16 UNL     1      21.730   2.950  47.451  1.00  0.00     0.078 A 
HETATM   11  C17 UNL     1      22.293   2.323  48.668  1.00  0.00     0.016 A 
HETATM   12 CL2  UNL     1      21.509   0.712  48.450  1.00  0.00    -0.089 Cl
HETATM   13  C18 UNL     1      23.063   2.448  49.739  1.00  0.00     0.034 A 
ENDROOT
BRANCH   1  14
HETATM   14  N3  UNL     1      25.163   2.641  52.747  1.00  0.00    -0.047 NA
HETATM   15  C1  UNL     1      26.399   2.392  52.901  1.00  0.00     0.693 C 
HETATM   16  N1  UNL     1      27.506   2.555  53.801  1.00  0.00    -0.233 N 
HETATM   17  N2  UNL     1      27.077   1.694  51.876  1.00  0.00    -0.233 N 
HETATM   18  H1  UNL     1      28.242   3.280  53.697  1.00  0.00     0.174 HD
HETATM   19  H2  UNL     1      27.412   1.820  54.547  1.00  0.00     0.174 HD
HETATM   20  H3  UNL     1      27.744   1.531  51.080  1.00  0.00     0.174 HD
HETATM   21  H4  UNL     1      27.489   1.042  51.159  1.00  0.00     0.174 HD
ENDBRANCH   1  14
BRANCH   1  22
HETATM   22  N4  UNL     1      24.122   0.994  52.133  1.00  0.00    -0.340 N 
HETATM   23  H5  UNL     1      24.848   0.360  51.681  1.00  0.00     0.167 HD
BRANCH  22  24
HETATM   24  C3  UNL     1      23.127   0.503  53.022  1.00  0.00     0.036 A 
HETATM   25  C4  UNL     1      21.873   1.069  52.955  1.00  0.00     0.029 A 
HETATM   26  C5  UNL     1      20.960   0.546  53.846  1.00  0.00     0.005 A 
HETATM   27  C6  UNL     1      21.239  -0.464  54.749  1.00  0.00     0.042 A 
HETATM   28  C7  UNL     1      22.527  -0.965  54.740  1.00  0.00     0.118 A 
HETATM   29  F1  UNL     1      22.892  -1.971  55.606  1.00  0.00    -0.206 F 
HETATM   30  C8  UNL     1      23.511  -0.502  53.881  1.00  0.00     0.071 A 
ENDBRANCH  22  24
ENDBRANCH   1  22
TORSDOF 3
ENDMDL
