MODEL 1
REMARK VINA RESULT:      -7.0      0.000      0.000
REMARK  4 active torsions:
REMARK  status: ('A' for Active; 'I' for Inactive)
REMARK    1  A    between atoms: C2_2  and  O1_4 
REMARK    2  A    between atoms: O1_4  and  C4_5 
REMARK    3  A    between atoms: C4_5  and  C13_18 
REMARK    4  A    between atoms: C5_6  and  C6_7 
ROOT
HETATM    1  C6  UNL     1      23.601   2.898  51.229  1.00  0.00     0.163 C 
HETATM    2  C7  UNL     1      23.729   3.998  52.289  1.00  0.00     0.233 C 
HETATM    3  N1  UNL     1      24.141   5.063  51.390  1.00  0.00    -0.257 NA
HETATM    4  C8  UNL     1      24.875   4.581  50.379  1.00  0.00     0.208 C 
HETATM    5  N2  UNL     1      24.986   3.173  50.736  1.00  0.00    -0.306 N 
HETATM    6  C9  UNL     1      26.209   2.371  50.678  1.00  0.00     0.192 C 
HETATM    7  F1  UNL     1      26.749   2.662  49.495  1.00  0.00    -0.186 F 
HETATM    8  C10 UNL     1      26.679   1.536  51.677  1.00  0.00     0.063 C 
HETATM    9  C11 UNL     1      26.285   1.600  53.137  1.00  0.00     0.021 C 
HETATM   10  C12 UNL     1      25.515   2.540  53.751  1.00  0.00     0.085 C 
HETATM   11  N3  UNL     1      24.632   3.621  53.328  1.00  0.00    -0.375 N 
HETATM   12  H15 UNL     1      24.715   4.352  54.083  1.00  0.00     0.161 HD
ENDROOT
BRANCH   1  13
HETATM   13  C5  UNL     1      23.430   1.577  51.791  1.00  0.00     0.042 C 
HETATM   14  C4  UNL     1      22.217   1.089  51.995  1.00  0.00     0.102 C 
BRANCH  14  15
HETATM   15  O1  UNL     1      22.034  -0.197  52.542  1.00  0.00    -0.344 OA
BRANCH  15  16
HETATM   16  C2  UNL     1      22.087  -0.446  53.917  1.00  0.00     0.121 C 
HETATM   17  C1  UNL     1      23.447  -0.900  54.402  1.00  0.00     0.040 C 
HETATM   18  C3  UNL     1      21.113  -1.599  54.186  1.00  0.00     0.040 C 
ENDBRANCH  15  16
ENDBRANCH  14  15
BRANCH  14  19
HETATM   19  C13 UNL     1      20.992   1.820  51.679  1.00  0.00     0.123 C 
HETATM   20  C14 UNL     1      20.322   2.552  52.582  1.00  0.00     0.174 C 
HETATM   21  O2  UNL     1      19.172   3.241  52.291  1.00  0.00    -0.358 OA
HETATM   22  C15 UNL     1      18.728   3.532  50.985  1.00  0.00     0.201 C 
HETATM   23  C16 UNL     1      19.553   2.838  49.929  1.00  0.00     0.202 C 
HETATM   24  O3  UNL     1      20.388   1.847  50.442  1.00  0.00    -0.344 OA
ENDBRANCH  14  19
ENDBRANCH   1  13
TORSDOF 4
ENDMDL
MODEL 2
REMARK VINA RESULT:      -6.9      2.314      4.817
REMARK  4 active torsions:
REMARK  status: ('A' for Active; 'I' for Inactive)
REMARK    1  A    between atoms: C2_2  and  O1_4 
REMARK    2  A    between atoms: O1_4  and  C4_5 
REMARK    3  A    between atoms: C4_5  and  C13_18 
REMARK    4  A    between atoms: C5_6  and  C6_7 
ROOT
HETATM    1  C6  UNL     1      24.312   2.712  50.765  1.00  0.00     0.163 C 
HETATM    2  C7  UNL     1      23.949   3.137  49.338  1.00  0.00     0.233 C 
HETATM    3  N1  UNL     1      24.844   4.280  49.261  1.00  0.00    -0.257 NA
HETATM    4  C8  UNL     1      24.979   4.864  50.458  1.00  0.00     0.208 C 
HETATM    5  N2  UNL     1      24.051   4.093  51.274  1.00  0.00    -0.306 N 
HETATM    6  C9  UNL     1      23.095   4.646  52.234  1.00  0.00     0.192 C 
HETATM    7  F1  UNL     1      23.793   5.543  52.930  1.00  0.00    -0.186 F 
HETATM    8  C10 UNL     1      21.756   4.306  52.332  1.00  0.00     0.063 C 
HETATM    9  C11 UNL     1      20.933   3.647  51.247  1.00  0.00     0.021 C 
HETATM   10  C12 UNL     1      21.303   3.386  49.963  1.00  0.00     0.085 C 
HETATM   11  N3  UNL     1      22.549   3.381  49.205  1.00  0.00    -0.375 N 
HETATM   12  H15 UNL     1      22.272   3.650  48.223  1.00  0.00     0.161 HD
ENDROOT
BRANCH   1  13
HETATM   13  C5  UNL     1      23.423   1.709  51.308  1.00  0.00     0.042 C 
HETATM   14  C4  UNL     1      23.845   0.879  52.248  1.00  0.00     0.102 C 
BRANCH  14  15
HETATM   15  O1  UNL     1      22.990  -0.103  52.787  1.00  0.00    -0.344 OA
BRANCH  15  16
HETATM   16  C2  UNL     1      22.101   0.162  53.832  1.00  0.00     0.121 C 
HETATM   17  C1  UNL     1      22.103  -0.893  54.918  1.00  0.00     0.040 C 
HETATM   18  C3  UNL     1      20.696   0.160  53.217  1.00  0.00     0.040 C 
ENDBRANCH  15  16
ENDBRANCH  14  15
BRANCH  14  19
HETATM   19  C13 UNL     1      25.199   0.906  52.797  1.00  0.00     0.123 C 
HETATM   20  C14 UNL     1      25.560   1.697  53.819  1.00  0.00     0.174 C 
HETATM   21  O2  UNL     1      26.829   1.726  54.337  1.00  0.00    -0.358 OA
HETATM   22  C15 UNL     1      27.808   0.740  54.099  1.00  0.00     0.201 C 
HETATM   23  C16 UNL     1      27.377  -0.259  53.054  1.00  0.00     0.202 C 
HETATM   24  O3  UNL     1      26.248   0.138  52.342  1.00  0.00    -0.344 OA
ENDBRANCH  14  19
ENDBRANCH   1  13
TORSDOF 4
ENDMDL
MODEL 3
REMARK VINA RESULT:      -6.7      2.224      3.379
REMARK  4 active torsions:
REMARK  status: ('A' for Active; 'I' for Inactive)
REMARK    1  A    between atoms: C2_2  and  O1_4 
REMARK    2  A    between atoms: O1_4  and  C4_5 
REMARK    3  A    between atoms: C4_5  and  C13_18 
REMARK    4  A    between atoms: C5_6  and  C6_7 
ROOT
HETATM    1  C6  UNL     1      22.741   3.395  52.224  1.00  0.00     0.163 C 
HETATM    2  C7  UNL     1      23.197   4.855  52.322  1.00  0.00     0.233 C 
HETATM    3  N1  UNL     1      21.909   5.462  52.030  1.00  0.00    -0.257 NA
HETATM    4  C8  UNL     1      21.203   4.706  51.180  1.00  0.00     0.208 C 
HETATM    5  N2  UNL     1      22.148   3.640  50.873  1.00  0.00    -0.306 N 
HETATM    6  C9  UNL     1      22.427   3.103  49.541  1.00  0.00     0.192 C 
HETATM    7  F1  UNL     1      21.227   2.922  48.990  1.00  0.00    -0.186 F 
HETATM    8  C10 UNL     1      23.684   2.885  49.002  1.00  0.00     0.063 C 
HETATM    9  C11 UNL     1      24.969   3.525  49.477  1.00  0.00     0.021 C 
HETATM   10  C12 UNL     1      25.117   4.503  50.412  1.00  0.00     0.085 C 
HETATM   11  N3  UNL     1      24.275   5.127  51.428  1.00  0.00    -0.375 N 
HETATM   12  H15 UNL     1      24.624   6.120  51.496  1.00  0.00     0.161 HD
ENDROOT
BRANCH   1  13
HETATM   13  C5  UNL     1      23.837   2.451  52.220  1.00  0.00     0.042 C 
HETATM   14  C4  UNL     1      23.608   1.159  52.390  1.00  0.00     0.102 C 
BRANCH  14  15
HETATM   15  O1  UNL     1      24.665   0.228  52.389  1.00  0.00    -0.344 OA
BRANCH  15  16
HETATM   16  C2  UNL     1      25.807   0.382  53.182  1.00  0.00     0.121 C 
HETATM   17  C1  UNL     1      27.066  -0.172  52.552  1.00  0.00     0.040 C 
HETATM   18  C3  UNL     1      25.558  -0.428  54.461  1.00  0.00     0.040 C 
ENDBRANCH  15  16
ENDBRANCH  14  15
BRANCH  14  19
HETATM   19  C13 UNL     1      22.274   0.598  52.590  1.00  0.00     0.123 C 
HETATM   20  C14 UNL     1      21.793   0.262  53.796  1.00  0.00     0.174 C 
HETATM   21  O2  UNL     1      20.542  -0.265  53.989  1.00  0.00    -0.358 OA
HETATM   22  C15 UNL     1      19.506  -0.226  53.033  1.00  0.00     0.201 C 
HETATM   23  C16 UNL     1      19.977   0.288  51.695  1.00  0.00     0.202 C 
HETATM   24  O3  UNL     1      21.365   0.352  51.585  1.00  0.00    -0.344 OA
ENDBRANCH  14  19
ENDBRANCH   1  13
TORSDOF 4
ENDMDL
MODEL 4
REMARK VINA RESULT:      -6.5      3.255      5.358
REMARK  4 active torsions:
REMARK  status: ('A' for Active; 'I' for Inactive)
REMARK    1  A    between atoms: C2_2  and  O1_4 
REMARK    2  A    between atoms: O1_4  and  C4_5 
REMARK    3  A    between atoms: C4_5  and  C13_18 
REMARK    4  A    between atoms: C5_6  and  C6_7 
ROOT
HETATM    1  C6  UNL     1      22.771   2.577  49.874  1.00  0.00     0.163 C 
HETATM    2  C7  UNL     1      21.976   1.587  49.015  1.00  0.00     0.233 C 
HETATM    3  N1  UNL     1      21.270   2.574  48.215  1.00  0.00    -0.257 NA
HETATM    4  C8  UNL     1      21.021   3.680  48.926  1.00  0.00     0.208 C 
HETATM    5  N2  UNL     1      21.519   3.307  50.244  1.00  0.00    -0.306 N 
HETATM    6  C9  UNL     1      20.836   3.549  51.515  1.00  0.00     0.192 C 
HETATM    7  F1  UNL     1      20.425   4.814  51.444  1.00  0.00    -0.186 F 
HETATM    8  C10 UNL     1      20.651   2.620  52.525  1.00  0.00     0.063 C 
HETATM    9  C11 UNL     1      20.724   1.117  52.364  1.00  0.00     0.021 C 
HETATM   10  C12 UNL     1      20.857   0.408  51.210  1.00  0.00     0.085 C 
HETATM   11  N3  UNL     1      21.194   0.707  49.822  1.00  0.00    -0.375 N 
HETATM   12  H15 UNL     1      20.658  -0.002  49.254  1.00  0.00     0.161 HD
ENDROOT
BRANCH   1  13
HETATM   13  C5  UNL     1      23.441   1.956  50.994  1.00  0.00     0.042 C 
HETATM   14  C4  UNL     1      24.674   2.312  51.318  1.00  0.00     0.102 C 
BRANCH  14  15
HETATM   15  O1  UNL     1      25.340   1.716  52.407  1.00  0.00    -0.344 OA
BRANCH  15  16
HETATM   16  C2  UNL     1      25.371   0.332  52.605  1.00  0.00     0.121 C 
HETATM   17  C1  UNL     1      25.348  -0.075  54.063  1.00  0.00     0.040 C 
HETATM   18  C3  UNL     1      26.705  -0.158  52.030  1.00  0.00     0.040 C 
ENDBRANCH  15  16
ENDBRANCH  14  15
BRANCH  14  19
HETATM   19  C13 UNL     1      25.434   3.327  50.593  1.00  0.00     0.123 C 
HETATM   20  C14 UNL     1      26.516   3.043  49.851  1.00  0.00     0.174 C 
HETATM   21  O2  UNL     1      27.233   3.992  49.169  1.00  0.00    -0.358 OA
HETATM   22  C15 UNL     1      26.769   5.295  48.895  1.00  0.00     0.201 C 
HETATM   23  C16 UNL     1      25.471   5.603  49.599  1.00  0.00     0.202 C 
HETATM   24  O3  UNL     1      25.140   4.673  50.582  1.00  0.00    -0.344 OA
ENDBRANCH  14  19
ENDBRANCH   1  13
TORSDOF 4
ENDMDL
MODEL 5
REMARK VINA RESULT:      -6.2      3.695      5.814
REMARK  4 active torsions:
REMARK  status: ('A' for Active; 'I' for Inactive)
REMARK    1  A    between atoms: C2_2  and  O1_4 
REMARK    2  A    between atoms: O1_4  and  C4_5 
REMARK    3  A    between atoms: C4_5  and  C13_18 
REMARK    4  A    between atoms: C5_6  and  C6_7 
ROOT
HETATM    1  C6  UNL     1      23.517   4.139  49.009  1.00  0.00     0.163 C 
HETATM    2  C7  UNL     1      22.239   3.479  48.481  1.00  0.00     0.233 C 
HETATM    3  N1  UNL     1      21.688   4.655  47.828  1.00  0.00    -0.257 NA
HETATM    4  C8  UNL     1      22.018   5.770  48.492  1.00  0.00     0.208 C 
HETATM    5  N2  UNL     1      22.722   5.233  49.648  1.00  0.00    -0.306 N 
HETATM    6  C9  UNL     1      22.542   5.665  51.035  1.00  0.00     0.192 C 
HETATM    7  F1  UNL     1      22.554   6.997  50.979  1.00  0.00    -0.186 F 
HETATM    8  C10 UNL     1      22.364   4.833  52.127  1.00  0.00     0.063 C 
HETATM    9  C11 UNL     1      21.905   3.392  52.070  1.00  0.00     0.021 C 
HETATM   10  C12 UNL     1      21.472   2.697  50.983  1.00  0.00     0.085 C 
HETATM   11  N3  UNL     1      21.480   2.891  49.536  1.00  0.00    -0.375 N 
HETATM   12  H15 UNL     1      20.608   2.406  49.193  1.00  0.00     0.161 HD
ENDROOT
BRANCH   1  13
HETATM   13  C5  UNL     1      24.242   3.314  49.950  1.00  0.00     0.042 C 
HETATM   14  C4  UNL     1      25.505   3.582  50.240  1.00  0.00     0.102 C 
BRANCH  14  15
HETATM   15  O1  UNL     1      26.224   2.788  51.155  1.00  0.00    -0.344 OA
BRANCH  15  16
HETATM   16  C2  UNL     1      25.612   1.824  51.960  1.00  0.00     0.121 C 
HETATM   17  C1  UNL     1      25.485   2.233  53.412  1.00  0.00     0.040 C 
HETATM   18  C3  UNL     1      26.522   0.590  51.926  1.00  0.00     0.040 C 
ENDBRANCH  15  16
ENDBRANCH  14  15
BRANCH  14  19
HETATM   19  C13 UNL     1      26.246   4.696  49.654  1.00  0.00     0.123 C 
HETATM   20  C14 UNL     1      27.295   4.528  48.834  1.00  0.00     0.174 C 
HETATM   21  O2  UNL     1      27.994   5.570  48.280  1.00  0.00    -0.358 OA
HETATM   22  C15 UNL     1      27.532   6.901  48.231  1.00  0.00     0.201 C 
HETATM   23  C16 UNL     1      26.266   7.100  49.027  1.00  0.00     0.202 C 
HETATM   24  O3  UNL     1      25.964   6.028  49.865  1.00  0.00    -0.344 OA
ENDBRANCH  14  19
ENDBRANCH   1  13
TORSDOF 4
ENDMDL
MODEL 6
REMARK VINA RESULT:      -6.1      2.380      3.794
REMARK  4 active torsions:
REMARK  status: ('A' for Active; 'I' for Inactive)
REMARK    1  A    between atoms: C2_2  and  O1_4 
REMARK    2  A    between atoms: O1_4  and  C4_5 
REMARK    3  A    between atoms: C4_5  and  C13_18 
REMARK    4  A    between atoms: C5_6  and  C6_7 
ROOT
HETATM    1  C6  UNL     1      22.358   4.684  51.330  1.00  0.00     0.163 C 
HETATM    2  C7  UNL     1      22.155   6.198  51.463  1.00  0.00     0.233 C 
HETATM    3  N1  UNL     1      21.063   6.314  50.510  1.00  0.00    -0.257 NA
HETATM    4  C8  UNL     1      21.193   5.421  49.521  1.00  0.00     0.208 C 
HETATM    5  N2  UNL     1      22.470   4.800  49.843  1.00  0.00    -0.306 N 
HETATM    6  C9  UNL     1      23.542   4.507  48.892  1.00  0.00     0.192 C 
HETATM    7  F1  UNL     1      22.928   3.943  47.852  1.00  0.00    -0.186 F 
HETATM    8  C10 UNL     1      24.884   4.804  49.064  1.00  0.00     0.063 C 
HETATM    9  C11 UNL     1      25.441   5.831  50.025  1.00  0.00     0.021 C 
HETATM   10  C12 UNL     1      24.749   6.720  50.789  1.00  0.00     0.085 C 
HETATM   11  N3  UNL     1      23.357   6.913  51.182  1.00  0.00    -0.375 N 
HETATM   12  H15 UNL     1      23.249   7.956  51.293  1.00  0.00     0.161 HD
ENDROOT
BRANCH   1  13
HETATM   13  C5  UNL     1      23.562   4.209  51.974  1.00  0.00     0.042 C 
HETATM   14  C4  UNL     1      23.710   2.924  52.253  1.00  0.00     0.102 C 
BRANCH  14  15
HETATM   15  O1  UNL     1      24.877   2.446  52.881  1.00  0.00    -0.344 OA
BRANCH  15  16
HETATM   16  C2  UNL     1      25.735   1.523  52.275  1.00  0.00     0.121 C 
HETATM   17  C1  UNL     1      25.862   0.219  53.032  1.00  0.00     0.040 C 
HETATM   18  C3  UNL     1      27.127   2.167  52.266  1.00  0.00     0.040 C 
ENDBRANCH  15  16
ENDBRANCH  14  15
BRANCH  14  19
HETATM   19  C13 UNL     1      22.701   1.913  51.945  1.00  0.00     0.123 C 
HETATM   20  C14 UNL     1      21.885   1.385  52.870  1.00  0.00     0.174 C 
HETATM   21  O2  UNL     1      20.936   0.436  52.586  1.00  0.00    -0.358 OA
HETATM   22  C15 UNL     1      20.480   0.132  51.287  1.00  0.00     0.201 C 
HETATM   23  C16 UNL     1      21.285   0.827  50.217  1.00  0.00     0.202 C 
HETATM   24  O3  UNL     1      22.468   1.390  50.692  1.00  0.00    -0.344 OA
ENDBRANCH  14  19
ENDBRANCH   1  13
TORSDOF 4
ENDMDL
MODEL 7
REMARK VINA RESULT:      -6.0     10.648     13.092
REMARK  4 active torsions:
REMARK  status: ('A' for Active; 'I' for Inactive)
REMARK    1  A    between atoms: C2_2  and  O1_4 
REMARK    2  A    between atoms: O1_4  and  C4_5 
REMARK    3  A    between atoms: C4_5  and  C13_18 
REMARK    4  A    between atoms: C5_6  and  C6_7 
ROOT
HETATM    1  C6  UNL     1      34.086   5.562  46.888  1.00  0.00     0.163 C 
HETATM    2  C7  UNL     1      34.645   5.295  48.290  1.00  0.00     0.233 C 
HETATM    3  N1  UNL     1      35.027   3.910  48.067  1.00  0.00    -0.257 NA
HETATM    4  C8  UNL     1      34.188   3.313  47.211  1.00  0.00     0.208 C 
HETATM    5  N2  UNL     1      33.202   4.360  46.979  1.00  0.00    -0.306 N 
HETATM    6  C9  UNL     1      31.750   4.177  46.961  1.00  0.00     0.192 C 
HETATM    7  F1  UNL     1      31.554   3.091  46.214  1.00  0.00    -0.186 F 
HETATM    8  C10 UNL     1      30.825   4.967  47.624  1.00  0.00     0.063 C 
HETATM    9  C11 UNL     1      31.122   5.875  48.797  1.00  0.00     0.021 C 
HETATM   10  C12 UNL     1      32.290   5.991  49.486  1.00  0.00     0.085 C 
HETATM   11  N3  UNL     1      33.671   5.559  49.300  1.00  0.00    -0.375 N 
HETATM   12  H15 UNL     1      34.042   5.407  50.276  1.00  0.00     0.161 HD
ENDROOT
BRANCH   1  13
HETATM   13  C5  UNL     1      33.367   6.813  46.787  1.00  0.00     0.042 C 
HETATM   14  C4  UNL     1      33.074   7.322  45.601  1.00  0.00     0.102 C 
BRANCH  14  15
HETATM   15  O1  UNL     1      32.374   8.539  45.486  1.00  0.00    -0.344 OA
BRANCH  15  16
HETATM   16  C2  UNL     1      31.276   8.857  46.290  1.00  0.00     0.121 C 
HETATM   17  C1  UNL     1      29.964   8.302  45.778  1.00  0.00     0.040 C 
HETATM   18  C3  UNL     1      31.150  10.385  46.268  1.00  0.00     0.040 C 
ENDBRANCH  15  16
ENDBRANCH  14  15
BRANCH  14  19
HETATM   19  C13 UNL     1      33.442   6.684  44.339  1.00  0.00     0.123 C 
HETATM   20  C14 UNL     1      34.429   7.135  43.549  1.00  0.00     0.174 C 
HETATM   21  O2  UNL     1      34.778   6.540  42.364  1.00  0.00    -0.358 OA
HETATM   22  C15 UNL     1      34.388   5.241  41.981  1.00  0.00     0.201 C 
HETATM   23  C16 UNL     1      33.382   4.639  42.931  1.00  0.00     0.202 C 
HETATM   24  O3  UNL     1      32.833   5.564  43.816  1.00  0.00    -0.344 OA
ENDBRANCH  14  19
ENDBRANCH   1  13
TORSDOF 4
ENDMDL
MODEL 8
REMARK VINA RESULT:      -5.8     10.984     13.254
REMARK  4 active torsions:
REMARK  status: ('A' for Active; 'I' for Inactive)
REMARK    1  A    between atoms: C2_2  and  O1_4 
REMARK    2  A    between atoms: O1_4  and  C4_5 
REMARK    3  A    between atoms: C4_5  and  C13_18 
REMARK    4  A    between atoms: C5_6  and  C6_7 
ROOT
HETATM    1  C6  UNL     1      32.333   6.034  47.069  1.00  0.00     0.163 C 
HETATM    2  C7  UNL     1      31.208   5.088  47.502  1.00  0.00     0.233 C 
HETATM    3  N1  UNL     1      31.142   5.516  48.890  1.00  0.00    -0.257 NA
HETATM    4  C8  UNL     1      32.350   5.879  49.338  1.00  0.00     0.208 C 
HETATM    5  N2  UNL     1      33.199   5.568  48.196  1.00  0.00    -0.306 N 
HETATM    6  C9  UNL     1      34.493   4.888  48.253  1.00  0.00     0.192 C 
HETATM    7  F1  UNL     1      35.146   5.484  49.251  1.00  0.00    -0.186 F 
HETATM    8  C10 UNL     1      34.891   3.834  47.448  1.00  0.00     0.063 C 
HETATM    9  C11 UNL     1      33.967   2.920  46.673  1.00  0.00     0.021 C 
HETATM   10  C12 UNL     1      32.608   2.879  46.715  1.00  0.00     0.085 C 
HETATM   11  N3  UNL     1      31.543   3.725  47.245  1.00  0.00    -0.375 N 
HETATM   12  H15 UNL     1      30.772   3.056  47.511  1.00  0.00     0.161 HD
ENDROOT
BRANCH   1  13
HETATM   13  C5  UNL     1      32.863   5.731  45.758  1.00  0.00     0.042 C 
HETATM   14  C4  UNL     1      33.363   6.694  44.999  1.00  0.00     0.102 C 
BRANCH  14  15
HETATM   15  O1  UNL     1      33.883   6.415  43.721  1.00  0.00    -0.344 OA
BRANCH  15  16
HETATM   16  C2  UNL     1      33.164   5.709  42.751  1.00  0.00     0.121 C 
HETATM   17  C1  UNL     1      34.017   4.779  41.915  1.00  0.00     0.040 C 
HETATM   18  C3  UNL     1      32.582   6.757  41.795  1.00  0.00     0.040 C 
ENDBRANCH  15  16
ENDBRANCH  14  15
BRANCH  14  19
HETATM   19  C13 UNL     1      33.418   8.095  45.410  1.00  0.00     0.123 C 
HETATM   20  C14 UNL     1      32.536   9.016  44.993  1.00  0.00     0.174 C 
HETATM   21  O2  UNL     1      32.582  10.333  45.375  1.00  0.00    -0.358 OA
HETATM   22  C15 UNL     1      33.330  10.817  46.468  1.00  0.00     0.201 C 
HETATM   23  C16 UNL     1      34.231   9.763  47.061  1.00  0.00     0.202 C 
HETATM   24  O3  UNL     1      34.360   8.630  46.260  1.00  0.00    -0.344 OA
ENDBRANCH  14  19
ENDBRANCH   1  13
TORSDOF 4
ENDMDL
MODEL 9
REMARK VINA RESULT:      -5.8      1.950      2.510
REMARK  4 active torsions:
REMARK  status: ('A' for Active; 'I' for Inactive)
REMARK    1  A    between atoms: C2_2  and  O1_4 
REMARK    2  A    between atoms: O1_4  and  C4_5 
REMARK    3  A    between atoms: C4_5  and  C13_18 
REMARK    4  A    between atoms: C5_6  and  C6_7 
ROOT
HETATM    1  C6  UNL     1      22.283   4.647  51.617  1.00  0.00     0.163 C 
HETATM    2  C7  UNL     1      23.346   5.314  52.497  1.00  0.00     0.233 C 
HETATM    3  N1  UNL     1      23.938   6.145  51.461  1.00  0.00    -0.257 NA
HETATM    4  C8  UNL     1      23.887   5.535  50.270  1.00  0.00     0.208 C 
HETATM    5  N2  UNL     1      23.322   4.239  50.621  1.00  0.00    -0.306 N 
HETATM    6  C9  UNL     1      23.796   2.941  50.139  1.00  0.00     0.192 C 
HETATM    7  F1  UNL     1      23.964   3.107  48.828  1.00  0.00    -0.186 F 
HETATM    8  C10 UNL     1      24.038   1.824  50.922  1.00  0.00     0.063 C 
HETATM    9  C11 UNL     1      24.272   1.831  52.417  1.00  0.00     0.021 C 
HETATM   10  C12 UNL     1      24.410   2.910  53.234  1.00  0.00     0.085 C 
HETATM   11  N3  UNL     1      24.183   4.348  53.130  1.00  0.00    -0.375 N 
HETATM   12  H15 UNL     1      24.906   4.783  53.763  1.00  0.00     0.161 HD
ENDROOT
BRANCH   1  13
HETATM   13  C5  UNL     1      21.620   3.536  52.262  1.00  0.00     0.042 C 
HETATM   14  C4  UNL     1      20.484   3.060  51.776  1.00  0.00     0.102 C 
BRANCH  14  15
HETATM   15  O1  UNL     1      19.827   1.978  52.393  1.00  0.00    -0.344 OA
BRANCH  15  16
HETATM   16  C2  UNL     1      20.368   0.690  52.433  1.00  0.00     0.121 C 
HETATM   17  C1  UNL     1      20.843   0.187  51.086  1.00  0.00     0.040 C 
HETATM   18  C3  UNL     1      19.235  -0.242  52.879  1.00  0.00     0.040 C 
ENDBRANCH  15  16
ENDBRANCH  14  15
BRANCH  14  19
HETATM   19  C13 UNL     1      19.828   3.602  50.588  1.00  0.00     0.123 C 
HETATM   20  C14 UNL     1      18.713   4.347  50.642  1.00  0.00     0.174 C 
HETATM   21  O2  UNL     1      18.094   4.858  49.530  1.00  0.00    -0.358 OA
HETATM   22  C15 UNL     1      18.692   4.947  48.257  1.00  0.00     0.201 C 
HETATM   23  C16 UNL     1      20.024   4.242  48.196  1.00  0.00     0.202 C 
HETATM   24  O3  UNL     1      20.266   3.420  49.295  1.00  0.00    -0.344 OA
ENDBRANCH  14  19
ENDBRANCH   1  13
TORSDOF 4
ENDMDL
