MODEL 1
REMARK VINA RESULT:      -8.2      0.000      0.000
REMARK  5 active torsions:
REMARK  status: ('A' for Active; 'I' for Inactive)
REMARK    1  A    between atoms: C2_2  and  C3_3 
REMARK    2  A    between atoms: C3_3  and  C4_5 
REMARK    3  A    between atoms: C8_10  and  C9_11 
REMARK    4  A    between atoms: C12_14  and  C13_15 
REMARK    5  A    between atoms: C13_15  and  O2_17 
ROOT
HETATM    1  C4  UNL     1      27.483   0.358  53.237  1.00  0.00     0.018 C 
HETATM    2  C5  UNL     1      26.318  -0.179  53.615  1.00  0.00     0.008 C 
HETATM    3  C6  UNL     1      25.228  -0.353  52.652  1.00  0.00     0.116 C 
HETATM    4  C7  UNL     1      23.912  -0.488  53.295  1.00  0.00     0.051 A 
HETATM    5  N1  UNL     1      22.801  -0.270  52.550  1.00  0.00    -0.232 NA
HETATM    6  C8  UNL     1      21.567  -0.378  53.082  1.00  0.00     0.159 A 
HETATM    7  N2  UNL     1      21.450  -0.712  54.381  1.00  0.00    -0.240 NA
HETATM    8  C16 UNL     1      22.493  -0.948  55.198  1.00  0.00     0.130 A 
HETATM    9  C17 UNL     1      23.739  -0.828  54.621  1.00  0.00     0.002 A 
HETATM   10  C18 UNL     1      24.917  -1.081  55.494  1.00  0.00     0.161 C 
HETATM   11  N3  UNL     1      26.135  -0.580  54.946  1.00  0.00    -0.389 N 
HETATM   12  H18 UNL     1      26.879  -0.553  55.677  1.00  0.00     0.159 HD
ENDROOT
BRANCH   6  13
HETATM   13  C9  UNL     1      20.336  -0.155  52.326  1.00  0.00     0.012 A 
HETATM   14  C10 UNL     1      20.322   0.523  51.127  1.00  0.00     0.016 A 
HETATM   15  C11 UNL     1      19.139   0.728  50.421  1.00  0.00     0.019 A 
HETATM   16  C12 UNL     1      17.938   0.255  50.903  1.00  0.00     0.037 A 
HETATM   17  C14 UNL     1      17.941  -0.423  52.099  1.00  0.00     0.019 A 
HETATM   18  C15 UNL     1      19.108  -0.610  52.771  1.00  0.00     0.016 A 
BRANCH  16  19
HETATM   19  C13 UNL     1      16.697   0.458  50.182  1.00  0.00     0.176 C 
HETATM   20  O1  UNL     1      15.777   1.175  50.617  1.00  0.00    -0.646 OA
BRANCH  19  21
HETATM   21  O2  UNL     1      16.490  -0.150  48.961  1.00  0.00    -0.773 OA
HETATM   22  H12 UNL     1      16.287   0.389  48.117  1.00  0.00     0.167 HD
ENDBRANCH  19  21
ENDBRANCH  16  19
ENDBRANCH   6  13
BRANCH   1  23
HETATM   23  C3  UNL     1      28.600   0.539  54.214  1.00  0.00     0.106 C 
HETATM   24 CL1  UNL     1      29.098   2.259  54.171  1.00  0.00    -0.121 Cl
BRANCH  23  25
HETATM   25  C2  UNL     1      29.778  -0.257  53.693  1.00  0.00     0.019 C 
HETATM   26  C1  UNL     1      29.440  -1.682  53.391  1.00  0.00     0.007 C 
ENDBRANCH  23  25
ENDBRANCH   1  23
TORSDOF 5
ENDMDL
MODEL 2
REMARK VINA RESULT:      -8.0      4.628      5.553
REMARK  5 active torsions:
REMARK  status: ('A' for Active; 'I' for Inactive)
REMARK    1  A    between atoms: C2_2  and  C3_3 
REMARK    2  A    between atoms: C3_3  and  C4_5 
REMARK    3  A    between atoms: C8_10  and  C9_11 
REMARK    4  A    between atoms: C12_14  and  C13_15 
REMARK    5  A    between atoms: C13_15  and  O2_17 
ROOT
HETATM    1  C4  UNL     1      25.208   5.580  49.103  1.00  0.00     0.018 C 
HETATM    2  C5  UNL     1      25.220   4.391  49.716  1.00  0.00     0.008 C 
HETATM    3  C6  UNL     1      24.043   3.521  49.682  1.00  0.00     0.116 C 
HETATM    4  C7  UNL     1      24.038   2.521  50.762  1.00  0.00     0.051 A 
HETATM    5  N1  UNL     1      22.866   1.923  51.085  1.00  0.00    -0.232 NA
HETATM    6  C8  UNL     1      22.798   0.999  52.066  1.00  0.00     0.159 A 
HETATM    7  N2  UNL     1      23.923   0.674  52.728  1.00  0.00    -0.240 NA
HETATM    8  C16 UNL     1      25.131   1.215  52.478  1.00  0.00     0.130 A 
HETATM    9  C17 UNL     1      25.164   2.155  51.470  1.00  0.00     0.002 A 
HETATM   10  C18 UNL     1      26.482   2.774  51.165  1.00  0.00     0.161 C 
HETATM   11  N3  UNL     1      26.371   3.972  50.399  1.00  0.00    -0.389 N 
HETATM   12  H18 UNL     1      27.270   4.500  50.417  1.00  0.00     0.159 HD
ENDROOT
BRANCH   6  13
HETATM   13  C9  UNL     1      21.562   0.322  52.456  1.00  0.00     0.012 A 
HETATM   14  C10 UNL     1      21.511  -0.571  53.504  1.00  0.00     0.016 A 
HETATM   15  C11 UNL     1      20.325  -1.207  53.860  1.00  0.00     0.019 A 
HETATM   16  C12 UNL     1      19.158  -0.962  53.171  1.00  0.00     0.037 A 
HETATM   17  C14 UNL     1      19.197  -0.073  52.123  1.00  0.00     0.019 A 
HETATM   18  C15 UNL     1      20.367   0.536  51.794  1.00  0.00     0.016 A 
BRANCH  16  19
HETATM   19  C13 UNL     1      17.914  -1.615  53.528  1.00  0.00     0.176 C 
HETATM   20  O1  UNL     1      17.849  -2.825  53.818  1.00  0.00    -0.646 OA
BRANCH  19  21
HETATM   21  O2  UNL     1      16.734  -0.902  53.560  1.00  0.00    -0.773 OA
HETATM   22  H12 UNL     1      16.656   0.031  53.149  1.00  0.00     0.167 HD
ENDBRANCH  19  21
ENDBRANCH  16  19
ENDBRANCH   6  13
BRANCH   1  23
HETATM   23  C3  UNL     1      26.405   6.474  49.134  1.00  0.00     0.106 C 
HETATM   24 CL1  UNL     1      26.129   7.725  50.386  1.00  0.00    -0.121 Cl
BRANCH  23  25
HETATM   25  C2  UNL     1      26.448   7.204  47.808  1.00  0.00     0.019 C 
HETATM   26  C1  UNL     1      25.103   7.661  47.342  1.00  0.00     0.007 C 
ENDBRANCH  23  25
ENDBRANCH   1  23
TORSDOF 5
ENDMDL
MODEL 3
REMARK VINA RESULT:      -8.0      2.016      2.900
REMARK  5 active torsions:
REMARK  status: ('A' for Active; 'I' for Inactive)
REMARK    1  A    between atoms: C2_2  and  C3_3 
REMARK    2  A    between atoms: C3_3  and  C4_5 
REMARK    3  A    between atoms: C8_10  and  C9_11 
REMARK    4  A    between atoms: C12_14  and  C13_15 
REMARK    5  A    between atoms: C13_15  and  O2_17 
ROOT
HETATM    1  C4  UNL     1      26.837  -0.694  53.744  1.00  0.00     0.018 C 
HETATM    2  C5  UNL     1      25.830   0.041  53.258  1.00  0.00     0.008 C 
HETATM    3  C6  UNL     1      24.465  -0.144  53.751  1.00  0.00     0.116 C 
HETATM    4  C7  UNL     1      23.445   0.359  52.817  1.00  0.00     0.051 A 
HETATM    5  N1  UNL     1      22.170  -0.080  52.952  1.00  0.00    -0.232 NA
HETATM    6  C8  UNL     1      21.191   0.344  52.126  1.00  0.00     0.159 A 
HETATM    7  N2  UNL     1      21.500   1.221  51.153  1.00  0.00    -0.240 NA
HETATM    8  C16 UNL     1      22.736   1.712  50.943  1.00  0.00     0.130 A 
HETATM    9  C17 UNL     1      23.711   1.257  51.804  1.00  0.00     0.002 A 
HETATM   10  C18 UNL     1      25.091   1.778  51.602  1.00  0.00     0.161 C 
HETATM   11  N3  UNL     1      26.083   0.997  52.264  1.00  0.00    -0.389 N 
HETATM   12  H18 UNL     1      27.033   1.238  51.906  1.00  0.00     0.159 HD
ENDROOT
BRANCH   6  13
HETATM   13  C9  UNL     1      19.800  -0.095  52.226  1.00  0.00     0.012 A 
HETATM   14  C10 UNL     1      19.343  -0.856  53.279  1.00  0.00     0.016 A 
HETATM   15  C11 UNL     1      18.014  -1.266  53.357  1.00  0.00     0.019 A 
HETATM   16  C12 UNL     1      17.110  -0.922  52.376  1.00  0.00     0.037 A 
HETATM   17  C14 UNL     1      17.556  -0.162  51.321  1.00  0.00     0.019 A 
HETATM   18  C15 UNL     1      18.858   0.226  51.266  1.00  0.00     0.016 A 
BRANCH  16  19
HETATM   19  C13 UNL     1      15.723  -1.339  52.441  1.00  0.00     0.176 C 
HETATM   20  O1  UNL     1      15.301  -2.359  51.865  1.00  0.00    -0.646 OA
BRANCH  19  21
HETATM   21  O2  UNL     1      14.804  -0.602  53.158  1.00  0.00    -0.773 OA
HETATM   22  H12 UNL     1      14.466   0.305  52.831  1.00  0.00     0.167 HD
ENDBRANCH  19  21
ENDBRANCH  16  19
ENDBRANCH   6  13
BRANCH   1  23
HETATM   23  C3  UNL     1      28.234  -0.512  53.245  1.00  0.00     0.106 C 
HETATM   24 CL1  UNL     1      28.993  -2.130  53.124  1.00  0.00    -0.121 Cl
BRANCH  23  25
HETATM   25  C2  UNL     1      28.995   0.235  54.320  1.00  0.00     0.019 C 
HETATM   26  C1  UNL     1      29.085   1.706  54.066  1.00  0.00     0.007 C 
ENDBRANCH  23  25
ENDBRANCH   1  23
TORSDOF 5
ENDMDL
MODEL 4
REMARK VINA RESULT:      -7.7      7.128      9.229
REMARK  5 active torsions:
REMARK  status: ('A' for Active; 'I' for Inactive)
REMARK    1  A    between atoms: C2_2  and  C3_3 
REMARK    2  A    between atoms: C3_3  and  C4_5 
REMARK    3  A    between atoms: C8_10  and  C9_11 
REMARK    4  A    between atoms: C12_14  and  C13_15 
REMARK    5  A    between atoms: C13_15  and  O2_17 
ROOT
HETATM    1  C4  UNL     1      22.708   0.401  53.071  1.00  0.00     0.018 C 
HETATM    2  C5  UNL     1      22.925   1.018  51.905  1.00  0.00     0.008 C 
HETATM    3  C6  UNL     1      24.146   1.796  51.687  1.00  0.00     0.116 C 
HETATM    4  C7  UNL     1      24.016   2.773  50.594  1.00  0.00     0.051 A 
HETATM    5  N1  UNL     1      24.898   3.800  50.534  1.00  0.00    -0.232 NA
HETATM    6  C8  UNL     1      24.830   4.726  49.556  1.00  0.00     0.159 A 
HETATM    7  N2  UNL     1      23.862   4.616  48.627  1.00  0.00    -0.240 NA
HETATM    8  C16 UNL     1      22.943   3.633  48.605  1.00  0.00     0.130 A 
HETATM    9  C17 UNL     1      23.042   2.704  49.619  1.00  0.00     0.002 A 
HETATM   10  C18 UNL     1      22.043   1.601  49.627  1.00  0.00     0.161 C 
HETATM   11  N3  UNL     1      21.975   0.921  50.879  1.00  0.00    -0.389 N 
HETATM   12  H18 UNL     1      21.113   0.335  50.927  1.00  0.00     0.159 HD
ENDROOT
BRANCH   6  13
HETATM   13  C9  UNL     1      25.754   5.853  49.443  1.00  0.00     0.012 A 
HETATM   14  C10 UNL     1      25.577   7.024  50.147  1.00  0.00     0.016 A 
HETATM   15  C11 UNL     1      26.468   8.088  50.025  1.00  0.00     0.019 A 
HETATM   16  C12 UNL     1      27.560   8.002  49.191  1.00  0.00     0.037 A 
HETATM   17  C14 UNL     1      27.747   6.838  48.484  1.00  0.00     0.019 A 
HETATM   18  C15 UNL     1      26.864   5.813  48.619  1.00  0.00     0.016 A 
BRANCH  16  19
HETATM   19  C13 UNL     1      28.498   9.099  49.053  1.00  0.00     0.176 C 
HETATM   20  O1  UNL     1      28.660   9.713  47.982  1.00  0.00    -0.646 OA
BRANCH  19  21
HETATM   21  O2  UNL     1      29.260   9.507  50.127  1.00  0.00    -0.773 OA
HETATM   22  H12 UNL     1      29.514   8.868  50.883  1.00  0.00     0.167 HD
ENDBRANCH  19  21
ENDBRANCH  16  19
ENDBRANCH   6  13
BRANCH   1  23
HETATM   23  C3  UNL     1      21.464  -0.395  53.302  1.00  0.00     0.106 C 
HETATM   24 CL1  UNL     1      20.382   0.564  54.359  1.00  0.00    -0.121 Cl
BRANCH  23  25
HETATM   25  C2  UNL     1      21.862  -1.619  54.100  1.00  0.00     0.019 C 
HETATM   26  C1  UNL     1      22.830  -1.318  55.199  1.00  0.00     0.007 C 
ENDBRANCH  23  25
ENDBRANCH   1  23
TORSDOF 5
ENDMDL
MODEL 5
REMARK VINA RESULT:      -7.6      5.114      9.069
REMARK  5 active torsions:
REMARK  status: ('A' for Active; 'I' for Inactive)
REMARK    1  A    between atoms: C2_2  and  C3_3 
REMARK    2  A    between atoms: C3_3  and  C4_5 
REMARK    3  A    between atoms: C8_10  and  C9_11 
REMARK    4  A    between atoms: C12_14  and  C13_15 
REMARK    5  A    between atoms: C13_15  and  O2_17 
ROOT
HETATM    1  C4  UNL     1      18.060   0.409  50.987  1.00  0.00     0.018 C 
HETATM    2  C5  UNL     1      18.898   0.127  51.990  1.00  0.00     0.008 C 
HETATM    3  C6  UNL     1      20.156   0.861  52.141  1.00  0.00     0.116 C 
HETATM    4  C7  UNL     1      21.147   0.138  52.953  1.00  0.00     0.051 A 
HETATM    5  N1  UNL     1      22.450   0.500  52.857  1.00  0.00    -0.232 NA
HETATM    6  C8  UNL     1      23.405  -0.126  53.576  1.00  0.00     0.159 A 
HETATM    7  N2  UNL     1      23.044  -1.126  54.401  1.00  0.00    -0.240 NA
HETATM    8  C16 UNL     1      21.777  -1.553  54.562  1.00  0.00     0.130 A 
HETATM    9  C17 UNL     1      20.827  -0.893  53.812  1.00  0.00     0.002 A 
HETATM   10  C18 UNL     1      19.416  -1.338  53.963  1.00  0.00     0.161 C 
HETATM   11  N3  UNL     1      18.572  -0.881  52.908  1.00  0.00    -0.389 N 
HETATM   12  H18 UNL     1      17.669  -1.405  52.912  1.00  0.00     0.159 HD
ENDROOT
BRANCH   6  13
HETATM   13  C9  UNL     1      24.824   0.222  53.513  1.00  0.00     0.012 A 
HETATM   14  C10 UNL     1      25.814  -0.734  53.467  1.00  0.00     0.016 A 
HETATM   15  C11 UNL     1      27.161  -0.383  53.408  1.00  0.00     0.019 A 
HETATM   16  C12 UNL     1      27.546   0.939  53.395  1.00  0.00     0.037 A 
HETATM   17  C14 UNL     1      26.566   1.901  53.441  1.00  0.00     0.019 A 
HETATM   18  C15 UNL     1      25.258   1.535  53.498  1.00  0.00     0.016 A 
BRANCH  16  19
HETATM   19  C13 UNL     1      28.944   1.322  53.334  1.00  0.00     0.176 C 
HETATM   20  O1  UNL     1      29.871   0.498  53.437  1.00  0.00    -0.646 OA
BRANCH  19  21
HETATM   21  O2  UNL     1      29.299   2.642  53.154  1.00  0.00    -0.773 OA
HETATM   22  H12 UNL     1      28.707   3.409  53.479  1.00  0.00     0.167 HD
ENDBRANCH  19  21
ENDBRANCH  16  19
ENDBRANCH   6  13
BRANCH   1  23
HETATM   23  C3  UNL     1      16.774  -0.336  50.826  1.00  0.00     0.106 C 
HETATM   24 CL1  UNL     1      16.486  -0.571  49.074  1.00  0.00    -0.121 Cl
BRANCH  23  25
HETATM   25  C2  UNL     1      15.669   0.574  51.319  1.00  0.00     0.019 C 
HETATM   26  C1  UNL     1      15.072   0.131  52.616  1.00  0.00     0.007 C 
ENDBRANCH  23  25
ENDBRANCH   1  23
TORSDOF 5
ENDMDL
MODEL 6
REMARK VINA RESULT:      -7.5      5.256      9.158
REMARK  5 active torsions:
REMARK  status: ('A' for Active; 'I' for Inactive)
REMARK    1  A    between atoms: C2_2  and  C3_3 
REMARK    2  A    between atoms: C3_3  and  C4_5 
REMARK    3  A    between atoms: C8_10  and  C9_11 
REMARK    4  A    between atoms: C12_14  and  C13_15 
REMARK    5  A    between atoms: C13_15  and  O2_17 
ROOT
HETATM    1  C4  UNL     1      18.455   2.346  51.152  1.00  0.00     0.018 C 
HETATM    2  C5  UNL     1      19.216   1.601  51.962  1.00  0.00     0.008 C 
HETATM    3  C6  UNL     1      20.479   2.123  52.488  1.00  0.00     0.116 C 
HETATM    4  C7  UNL     1      21.395   1.061  52.936  1.00  0.00     0.051 A 
HETATM    5  N1  UNL     1      22.710   1.358  53.078  1.00  0.00    -0.232 NA
HETATM    6  C8  UNL     1      23.598   0.428  53.485  1.00  0.00     0.159 A 
HETATM    7  N2  UNL     1      23.157  -0.815  53.752  1.00  0.00    -0.240 NA
HETATM    8  C16 UNL     1      21.872  -1.202  53.640  1.00  0.00     0.130 A 
HETATM    9  C17 UNL     1      20.992  -0.226  53.222  1.00  0.00     0.002 A 
HETATM   10  C18 UNL     1      19.562  -0.617  53.087  1.00  0.00     0.161 C 
HETATM   11  N3  UNL     1      18.804   0.307  52.310  1.00  0.00    -0.389 N 
HETATM   12  H18 UNL     1      17.891  -0.115  52.033  1.00  0.00     0.159 HD
ENDROOT
BRANCH   6  13
HETATM   13  C9  UNL     1      25.026   0.692  53.655  1.00  0.00     0.012 A 
HETATM   14  C10 UNL     1      25.601   1.890  53.292  1.00  0.00     0.016 A 
HETATM   15  C11 UNL     1      26.964   2.123  53.462  1.00  0.00     0.019 A 
HETATM   16  C12 UNL     1      27.784   1.156  54.000  1.00  0.00     0.037 A 
HETATM   17  C14 UNL     1      27.220  -0.043  54.367  1.00  0.00     0.019 A 
HETATM   18  C15 UNL     1      25.887  -0.248  54.192  1.00  0.00     0.016 A 
BRANCH  16  19
HETATM   19  C13 UNL     1      29.204   1.382  54.185  1.00  0.00     0.176 C 
HETATM   20  O1  UNL     1      29.652   2.258  54.948  1.00  0.00    -0.646 OA
BRANCH  19  21
HETATM   21  O2  UNL     1      30.128   0.616  53.505  1.00  0.00    -0.773 OA
HETATM   22  H12 UNL     1      30.716  -0.070  53.982  1.00  0.00     0.167 HD
ENDBRANCH  19  21
ENDBRANCH  16  19
ENDBRANCH   6  13
BRANCH   1  23
HETATM   23  C3  UNL     1      17.165   1.820  50.610  1.00  0.00     0.106 C 
HETATM   24 CL1  UNL     1      17.032   2.339  48.901  1.00  0.00    -0.121 Cl
BRANCH  23  25
HETATM   25  C2  UNL     1      16.051   2.525  51.355  1.00  0.00     0.019 C 
HETATM   26  C1  UNL     1      16.023   4.001  51.117  1.00  0.00     0.007 C 
ENDBRANCH  23  25
ENDBRANCH   1  23
TORSDOF 5
ENDMDL
MODEL 7
REMARK VINA RESULT:      -7.4      8.997     11.704
REMARK  5 active torsions:
REMARK  status: ('A' for Active; 'I' for Inactive)
REMARK    1  A    between atoms: C2_2  and  C3_3 
REMARK    2  A    between atoms: C3_3  and  C4_5 
REMARK    3  A    between atoms: C8_10  and  C9_11 
REMARK    4  A    between atoms: C12_14  and  C13_15 
REMARK    5  A    between atoms: C13_15  and  O2_17 
ROOT
HETATM    1  C4  UNL     1      24.910   2.274  51.203  1.00  0.00     0.018 C 
HETATM    2  C5  UNL     1      25.202   3.275  50.366  1.00  0.00     0.008 C 
HETATM    3  C6  UNL     1      26.416   3.235  49.550  1.00  0.00     0.116 C 
HETATM    4  C7  UNL     1      26.832   4.565  49.076  1.00  0.00     0.051 A 
HETATM    5  N1  UNL     1      28.108   4.733  48.653  1.00  0.00    -0.232 NA
HETATM    6  C8  UNL     1      28.548   5.927  48.207  1.00  0.00     0.159 A 
HETATM    7  N2  UNL     1      27.692   6.966  48.187  1.00  0.00    -0.240 NA
HETATM    8  C16 UNL     1      26.408   6.895  48.587  1.00  0.00     0.130 A 
HETATM    9  C17 UNL     1      25.993   5.660  49.036  1.00  0.00     0.002 A 
HETATM   10  C18 UNL     1      24.579   5.543  49.487  1.00  0.00     0.161 C 
HETATM   11  N3  UNL     1      24.338   4.375  50.269  1.00  0.00    -0.389 N 
HETATM   12  H18 UNL     1      23.423   4.452  50.764  1.00  0.00     0.159 HD
ENDROOT
BRANCH   6  13
HETATM   13  C9  UNL     1      29.913   6.165  47.739  1.00  0.00     0.012 A 
HETATM   14  C10 UNL     1      30.300   7.361  47.176  1.00  0.00     0.016 A 
HETATM   15  C11 UNL     1      31.605   7.569  46.735  1.00  0.00     0.019 A 
HETATM   16  C12 UNL     1      32.554   6.577  46.848  1.00  0.00     0.037 A 
HETATM   17  C14 UNL     1      32.178   5.380  47.409  1.00  0.00     0.019 A 
HETATM   18  C15 UNL     1      30.899   5.200  47.832  1.00  0.00     0.016 A 
BRANCH  16  19
HETATM   19  C13 UNL     1      33.917   6.776  46.395  1.00  0.00     0.176 C 
HETATM   20  O1  UNL     1      34.190   7.274  45.286  1.00  0.00    -0.646 OA
BRANCH  19  21
HETATM   21  O2  UNL     1      34.980   6.412  47.194  1.00  0.00    -0.773 OA
HETATM   22  H12 UNL     1      35.687   5.744  46.880  1.00  0.00     0.167 HD
ENDBRANCH  19  21
ENDBRANCH  16  19
ENDBRANCH   6  13
BRANCH   1  23
HETATM   23  C3  UNL     1      23.672   2.307  52.041  1.00  0.00     0.106 C 
HETATM   24 CL1  UNL     1      23.991   3.355  53.458  1.00  0.00    -0.121 Cl
BRANCH  23  25
HETATM   25  C2  UNL     1      23.467   0.909  52.585  1.00  0.00     0.019 C 
HETATM   26  C1  UNL     1      24.726   0.282  53.093  1.00  0.00     0.007 C 
ENDBRANCH  23  25
ENDBRANCH   1  23
TORSDOF 5
ENDMDL
MODEL 8
REMARK VINA RESULT:      -7.4      3.598      4.339
REMARK  5 active torsions:
REMARK  status: ('A' for Active; 'I' for Inactive)
REMARK    1  A    between atoms: C2_2  and  C3_3 
REMARK    2  A    between atoms: C3_3  and  C4_5 
REMARK    3  A    between atoms: C8_10  and  C9_11 
REMARK    4  A    between atoms: C12_14  and  C13_15 
REMARK    5  A    between atoms: C13_15  and  O2_17 
ROOT
HETATM    1  C4  UNL     1      24.489   3.972  49.527  1.00  0.00     0.018 C 
HETATM    2  C5  UNL     1      24.121   2.976  50.341  1.00  0.00     0.008 C 
HETATM    3  C6  UNL     1      22.950   2.154  50.031  1.00  0.00     0.116 C 
HETATM    4  C7  UNL     1      22.409   1.461  51.211  1.00  0.00     0.051 A 
HETATM    5  N1  UNL     1      21.138   0.991  51.161  1.00  0.00    -0.232 NA
HETATM    6  C8  UNL     1      20.586   0.348  52.210  1.00  0.00     0.159 A 
HETATM    7  N2  UNL     1      21.324   0.174  53.323  1.00  0.00    -0.240 NA
HETATM    8  C16 UNL     1      22.591   0.605  53.465  1.00  0.00     0.130 A 
HETATM    9  C17 UNL     1      23.123   1.258  52.374  1.00  0.00     0.002 A 
HETATM   10  C18 UNL     1      24.523   1.749  52.495  1.00  0.00     0.161 C 
HETATM   11  N3  UNL     1      24.861   2.717  51.503  1.00  0.00    -0.389 N 
HETATM   12  H18 UNL     1      25.743   3.210  51.763  1.00  0.00     0.159 HD
ENDROOT
BRANCH   6  13
HETATM   13  C9  UNL     1      19.223  -0.179  52.211  1.00  0.00     0.012 A 
HETATM   14  C10 UNL     1      18.310   0.139  51.229  1.00  0.00     0.016 A 
HETATM   15  C11 UNL     1      17.015  -0.372  51.247  1.00  0.00     0.019 A 
HETATM   16  C12 UNL     1      16.603  -1.217  52.254  1.00  0.00     0.037 A 
HETATM   17  C14 UNL     1      17.506  -1.541  53.239  1.00  0.00     0.019 A 
HETATM   18  C15 UNL     1      18.765  -1.030  53.201  1.00  0.00     0.016 A 
BRANCH  16  19
HETATM   19  C13 UNL     1      15.259  -1.759  52.289  1.00  0.00     0.176 C 
HETATM   20  O1  UNL     1      14.914  -2.744  51.609  1.00  0.00    -0.646 OA
BRANCH  19  21
HETATM   21  O2  UNL     1      14.296  -1.189  53.094  1.00  0.00    -0.773 OA
HETATM   22  H12 UNL     1      14.434  -0.279  53.538  1.00  0.00     0.167 HD
ENDBRANCH  19  21
ENDBRANCH  16  19
ENDBRANCH   6  13
BRANCH   1  23
HETATM   23  C3  UNL     1      25.684   4.816  49.836  1.00  0.00     0.106 C 
HETATM   24 CL1  UNL     1      25.494   6.377  48.977  1.00  0.00    -0.121 Cl
BRANCH  23  25
HETATM   25  C2  UNL     1      26.883   4.133  49.214  1.00  0.00     0.019 C 
HETATM   26  C1  UNL     1      27.837   5.087  48.569  1.00  0.00     0.007 C 
ENDBRANCH  23  25
ENDBRANCH   1  23
TORSDOF 5
ENDMDL
MODEL 9
REMARK VINA RESULT:      -7.3      6.886      9.081
REMARK  5 active torsions:
REMARK  status: ('A' for Active; 'I' for Inactive)
REMARK    1  A    between atoms: C2_2  and  C3_3 
REMARK    2  A    between atoms: C3_3  and  C4_5 
REMARK    3  A    between atoms: C8_10  and  C9_11 
REMARK    4  A    between atoms: C12_14  and  C13_15 
REMARK    5  A    between atoms: C13_15  and  O2_17 
ROOT
HETATM    1  C4  UNL     1      23.780  -0.082  53.323  1.00  0.00     0.018 C 
HETATM    2  C5  UNL     1      23.542   0.974  52.536  1.00  0.00     0.008 C 
HETATM    3  C6  UNL     1      24.496   1.358  51.494  1.00  0.00     0.116 C 
HETATM    4  C7  UNL     1      24.344   2.758  51.066  1.00  0.00     0.051 A 
HETATM    5  N1  UNL     1      25.374   3.351  50.413  1.00  0.00    -0.232 NA
HETATM    6  C8  UNL     1      25.295   4.631  49.997  1.00  0.00     0.159 A 
HETATM    7  N2  UNL     1      24.165   5.322  50.240  1.00  0.00    -0.240 NA
HETATM    8  C16 UNL     1      23.093   4.819  50.880  1.00  0.00     0.130 A 
HETATM    9  C17 UNL     1      23.209   3.508  51.292  1.00  0.00     0.002 A 
HETATM   10  C18 UNL     1      22.043   2.917  52.003  1.00  0.00     0.161 C 
HETATM   11  N3  UNL     1      22.370   1.722  52.711  1.00  0.00    -0.389 N 
HETATM   12  H18 UNL     1      21.610   1.479  53.383  1.00  0.00     0.159 HD
ENDROOT
BRANCH   6  13
HETATM   13  C9  UNL     1      26.372   5.320  49.289  1.00  0.00     0.012 A 
HETATM   14  C10 UNL     1      26.294   6.653  48.948  1.00  0.00     0.016 A 
HETATM   15  C11 UNL     1      27.331   7.292  48.272  1.00  0.00     0.019 A 
HETATM   16  C12 UNL     1      28.473   6.608  47.922  1.00  0.00     0.037 A 
HETATM   17  C14 UNL     1      28.562   5.278  48.258  1.00  0.00     0.019 A 
HETATM   18  C15 UNL     1      27.537   4.675  48.917  1.00  0.00     0.016 A 
BRANCH  16  19
HETATM   19  C13 UNL     1      29.562   7.258  47.219  1.00  0.00     0.176 C 
HETATM   20  O1  UNL     1      30.718   6.793  47.195  1.00  0.00    -0.646 OA
BRANCH  19  21
HETATM   21  O2  UNL     1      29.350   8.438  46.539  1.00  0.00    -0.773 OA
HETATM   22  H12 UNL     1      29.852   8.662  45.677  1.00  0.00     0.167 HD
ENDBRANCH  19  21
ENDBRANCH  16  19
ENDBRANCH   6  13
BRANCH   1  23
HETATM   23  C3  UNL     1      22.812  -0.480  54.389  1.00  0.00     0.106 C 
HETATM   24 CL1  UNL     1      23.735  -1.268  55.708  1.00  0.00    -0.121 Cl
BRANCH  23  25
HETATM   25  C2  UNL     1      21.917  -1.551  53.800  1.00  0.00     0.019 C 
HETATM   26  C1  UNL     1      20.461  -1.238  53.926  1.00  0.00     0.007 C 
ENDBRANCH  23  25
ENDBRANCH   1  23
TORSDOF 5
ENDMDL
