MODEL 1
REMARK VINA RESULT:      -8.8      0.000      0.000
REMARK  5 active torsions:
REMARK  status: ('A' for Active; 'I' for Inactive)
REMARK    1  A    between atoms: O1_1  and  C1_2 
REMARK    2  A    between atoms: C3_5  and  N1_6 
REMARK    3  A    between atoms: C4_8  and  C5_9 
REMARK    4  A    between atoms: C8_12  and  P1_13 
REMARK    5  A    between atoms: C12_17  and  C13_18 
ROOT
HETATM    1  N1  UNL     1      25.738   0.199  53.108  1.00  0.00    -0.236 N 
HETATM    2  N2  UNL     1      24.517  -0.463  52.982  1.00  0.00    -0.173 NA
HETATM    3  C4  UNL     1      23.539   0.302  53.332  1.00  0.00     0.067 C 
HETATM    4  C11 UNL     1      24.067   1.627  53.749  1.00  0.00     0.094 C 
HETATM    5  C12 UNL     1      25.444   1.599  53.118  1.00  0.00     0.151 C 
ENDROOT
BRANCH   3   6
HETATM    6  C5  UNL     1      22.135  -0.118  53.306  1.00  0.00    -0.010 A 
HETATM    7  C6  UNL     1      21.293   0.479  52.384  1.00  0.00     0.014 A 
HETATM    8  C7  UNL     1      19.963   0.143  52.293  1.00  0.00     0.012 A 
HETATM    9  C8  UNL     1      19.504  -0.834  53.181  1.00  0.00    -0.037 A 
HETATM   10  C9  UNL     1      20.337  -1.436  54.106  1.00  0.00     0.012 A 
HETATM   11  C10 UNL     1      21.666  -1.079  54.174  1.00  0.00     0.014 A 
BRANCH   9  12
HETATM   12  P1  UNL     1      17.742  -1.303  53.089  1.00  0.00    -0.106 P 
HETATM   13  H5  UNL     1      17.017  -0.493  52.129  1.00  0.00     0.059 HD
HETATM   14  H6  UNL     1      17.578  -2.696  52.717  1.00  0.00     0.059 HD
ENDBRANCH   9  12
ENDBRANCH   3   6
BRANCH   1  15
HETATM   15  C3  UNL     1      26.969  -0.527  53.200  1.00  0.00     0.192 A 
HETATM   16  S1  UNL     1      28.575   0.417  53.436  1.00  0.00    -0.058 SA
HETATM   17  C2  UNL     1      29.572  -1.145  53.450  1.00  0.00     0.111 A 
HETATM   18  C1  UNL     1      28.570  -2.077  53.281  1.00  0.00     0.171 A 
HETATM   19  N3  UNL     1      27.286  -1.773  53.158  1.00  0.00    -0.198 NA
BRANCH  18  20
HETATM   20  O1  UNL     1      28.770  -3.474  53.216  1.00  0.00    -0.344 OA
HETATM   21  H1  UNL     1      29.632  -3.832  53.610  1.00  0.00     0.219 HD
ENDBRANCH  18  20
ENDBRANCH   1  15
BRANCH   5  22
HETATM   22  C13 UNL     1      25.438   2.230  51.777  1.00  0.00    -0.033 A 
HETATM   23  C14 UNL     1      26.572   2.482  51.058  1.00  0.00     0.009 A 
HETATM   24  C15 UNL     1      26.535   3.076  49.801  1.00  0.00     0.001 A 
HETATM   25  C16 UNL     1      25.327   3.441  49.222  1.00  0.00     0.000 A 
HETATM   26  C17 UNL     1      24.177   3.200  49.918  1.00  0.00     0.001 A 
HETATM   27  C18 UNL     1      24.243   2.614  51.156  1.00  0.00     0.009 A 
ENDBRANCH   5  22
TORSDOF 5
ENDMDL
MODEL 2
REMARK VINA RESULT:      -8.2      3.211      5.373
REMARK  5 active torsions:
REMARK  status: ('A' for Active; 'I' for Inactive)
REMARK    1  A    between atoms: O1_1  and  C1_2 
REMARK    2  A    between atoms: C3_5  and  N1_6 
REMARK    3  A    between atoms: C4_8  and  C5_9 
REMARK    4  A    between atoms: C8_12  and  P1_13 
REMARK    5  A    between atoms: C12_17  and  C13_18 
ROOT
HETATM    1  N1  UNL     1      25.527   1.647  52.655  1.00  0.00    -0.236 N 
HETATM    2  N2  UNL     1      25.029   2.946  52.551  1.00  0.00    -0.173 NA
HETATM    3  C4  UNL     1      24.099   3.013  51.659  1.00  0.00     0.067 C 
HETATM    4  C11 UNL     1      23.888   1.671  51.055  1.00  0.00     0.094 C 
HETATM    5  C12 UNL     1      24.531   0.782  52.100  1.00  0.00     0.151 C 
ENDROOT
BRANCH   3   6
HETATM    6  C5  UNL     1      23.386   4.249  51.326  1.00  0.00    -0.010 A 
HETATM    7  C6  UNL     1      22.007   4.201  51.230  1.00  0.00     0.014 A 
HETATM    8  C7  UNL     1      21.262   5.315  50.923  1.00  0.00     0.012 A 
HETATM    9  C8  UNL     1      21.971   6.501  50.711  1.00  0.00    -0.037 A 
HETATM   10  C9  UNL     1      23.349   6.559  50.805  1.00  0.00     0.012 A 
HETATM   11  C10 UNL     1      24.069   5.427  51.115  1.00  0.00     0.014 A 
BRANCH   9  12
HETATM   12  P1  UNL     1      21.013   8.000  50.299  1.00  0.00    -0.106 P 
HETATM   13  H5  UNL     1      21.871   9.154  50.113  1.00  0.00     0.059 HD
HETATM   14  H6  UNL     1      20.231   7.820  49.090  1.00  0.00     0.059 HD
ENDBRANCH   9  12
ENDBRANCH   3   6
BRANCH   1  15
HETATM   15  C3  UNL     1      26.811   1.390  53.232  1.00  0.00     0.192 A 
HETATM   16  S1  UNL     1      27.474  -0.367  53.251  1.00  0.00    -0.058 SA
HETATM   17  C2  UNL     1      29.037   0.158  54.097  1.00  0.00     0.111 A 
HETATM   18  C1  UNL     1      28.807   1.512  54.220  1.00  0.00     0.171 A 
HETATM   19  N3  UNL     1      27.710   2.120  53.793  1.00  0.00    -0.198 NA
BRANCH  18  20
HETATM   20  O1  UNL     1      29.702   2.431  54.811  1.00  0.00    -0.344 OA
HETATM   21  H1  UNL     1      30.321   2.072  55.528  1.00  0.00     0.219 HD
ENDBRANCH  18  20
ENDBRANCH   1  15
BRANCH   5  22
HETATM   22  C13 UNL     1      23.534   0.293  53.082  1.00  0.00    -0.033 A 
HETATM   23  C14 UNL     1      23.823  -0.619  54.057  1.00  0.00     0.009 A 
HETATM   24  C15 UNL     1      22.865  -1.060  54.965  1.00  0.00     0.001 A 
HETATM   25  C16 UNL     1      21.562  -0.583  54.912  1.00  0.00     0.000 A 
HETATM   26  C17 UNL     1      21.245   0.329  53.947  1.00  0.00     0.001 A 
HETATM   27  C18 UNL     1      22.210   0.746  53.064  1.00  0.00     0.009 A 
ENDBRANCH   5  22
TORSDOF 5
ENDMDL
MODEL 3
REMARK VINA RESULT:      -7.6      4.443      7.326
REMARK  5 active torsions:
REMARK  status: ('A' for Active; 'I' for Inactive)
REMARK    1  A    between atoms: O1_1  and  C1_2 
REMARK    2  A    between atoms: C3_5  and  N1_6 
REMARK    3  A    between atoms: C4_8  and  C5_9 
REMARK    4  A    between atoms: C8_12  and  P1_13 
REMARK    5  A    between atoms: C12_17  and  C13_18 
ROOT
HETATM    1  N1  UNL     1      22.779   2.269  50.964  1.00  0.00    -0.236 N 
HETATM    2  N2  UNL     1      24.010   1.613  51.011  1.00  0.00    -0.173 NA
HETATM    3  C4  UNL     1      24.532   1.697  52.187  1.00  0.00     0.067 C 
HETATM    4  C11 UNL     1      23.630   2.470  53.080  1.00  0.00     0.094 C 
HETATM    5  C12 UNL     1      22.325   2.382  52.316  1.00  0.00     0.151 C 
ENDROOT
BRANCH   3   6
HETATM    6  C5  UNL     1      25.825   1.105  52.541  1.00  0.00    -0.010 A 
HETATM    7  C6  UNL     1      25.914  -0.274  52.608  1.00  0.00     0.014 A 
HETATM    8  C7  UNL     1      27.089  -0.911  52.933  1.00  0.00     0.012 A 
HETATM    9  C8  UNL     1      28.190  -0.092  53.193  1.00  0.00    -0.037 A 
HETATM   10  C9  UNL     1      28.112   1.287  53.129  1.00  0.00     0.012 A 
HETATM   11  C10 UNL     1      26.922   1.898  52.800  1.00  0.00     0.014 A 
BRANCH   9  12
HETATM   12  P1  UNL     1      29.767  -0.903  53.629  1.00  0.00    -0.106 P 
HETATM   13  H5  UNL     1      30.912  -0.096  53.252  1.00  0.00     0.059 HD
HETATM   14  H6  UNL     1      29.854  -1.172  55.052  1.00  0.00     0.059 HD
ENDBRANCH   9  12
ENDBRANCH   3   6
BRANCH   1  15
HETATM   15  C3  UNL     1      22.210   2.687  49.719  1.00  0.00     0.192 A 
HETATM   16  S1  UNL     1      23.086   4.004  48.706  1.00  0.00    -0.058 SA
HETATM   17  C2  UNL     1      21.791   3.946  47.382  1.00  0.00     0.111 A 
HETATM   18  C1  UNL     1      20.950   2.985  47.903  1.00  0.00     0.171 A 
HETATM   19  N3  UNL     1      21.156   2.364  49.055  1.00  0.00    -0.198 NA
BRANCH  18  20
HETATM   20  O1  UNL     1      19.763   2.533  47.285  1.00  0.00    -0.344 OA
HETATM   21  H1  UNL     1      19.346   1.688  47.658  1.00  0.00     0.219 HD
ENDBRANCH  18  20
ENDBRANCH   1  15
BRANCH   5  22
HETATM   22  C13 UNL     1      21.503   1.239  52.780  1.00  0.00    -0.033 A 
HETATM   23  C14 UNL     1      20.281   0.928  52.254  1.00  0.00     0.009 A 
HETATM   24  C15 UNL     1      19.531  -0.151  52.710  1.00  0.00     0.001 A 
HETATM   25  C16 UNL     1      20.004  -0.964  53.733  1.00  0.00     0.000 A 
HETATM   26  C17 UNL     1      21.223  -0.676  54.277  1.00  0.00     0.001 A 
HETATM   27  C18 UNL     1      21.940   0.395  53.807  1.00  0.00     0.009 A 
ENDBRANCH   5  22
TORSDOF 5
ENDMDL
MODEL 4
REMARK VINA RESULT:      -7.6      1.703      2.113
REMARK  5 active torsions:
REMARK  status: ('A' for Active; 'I' for Inactive)
REMARK    1  A    between atoms: O1_1  and  C1_2 
REMARK    2  A    between atoms: C3_5  and  N1_6 
REMARK    3  A    between atoms: C4_8  and  C5_9 
REMARK    4  A    between atoms: C8_12  and  P1_13 
REMARK    5  A    between atoms: C12_17  and  C13_18 
ROOT
HETATM    1  N1  UNL     1      25.101   1.278  52.505  1.00  0.00    -0.236 N 
HETATM    2  N2  UNL     1      23.838   0.837  52.111  1.00  0.00    -0.173 NA
HETATM    3  C4  UNL     1      22.939   1.728  52.362  1.00  0.00     0.067 C 
HETATM    4  C11 UNL     1      23.576   2.916  52.988  1.00  0.00     0.094 C 
HETATM    5  C12 UNL     1      25.025   2.703  52.600  1.00  0.00     0.151 C 
ENDROOT
BRANCH   3   6
HETATM    6  C5  UNL     1      21.517   1.549  52.058  1.00  0.00    -0.010 A 
HETATM    7  C6  UNL     1      20.677   2.639  52.203  1.00  0.00     0.014 A 
HETATM    8  C7  UNL     1      19.330   2.557  51.939  1.00  0.00     0.012 A 
HETATM    9  C8  UNL     1      18.852   1.315  51.515  1.00  0.00    -0.037 A 
HETATM   10  C9  UNL     1      19.683   0.220  51.366  1.00  0.00     0.012 A 
HETATM   11  C10 UNL     1      21.029   0.331  51.638  1.00  0.00     0.014 A 
BRANCH   9  12
HETATM   12  P1  UNL     1      17.068   1.170  51.156  1.00  0.00    -0.106 P 
HETATM   13  H5  UNL     1      16.351   2.388  51.483  1.00  0.00     0.059 HD
HETATM   14  H6  UNL     1      16.826   0.867  49.758  1.00  0.00     0.059 HD
ENDBRANCH   9  12
ENDBRANCH   3   6
BRANCH   1  15
HETATM   15  C3  UNL     1      26.171   0.354  52.734  1.00  0.00     0.192 A 
HETATM   16  S1  UNL     1      27.828   0.999  53.336  1.00  0.00    -0.058 SA
HETATM   17  C2  UNL     1      28.559  -0.704  53.364  1.00  0.00     0.111 A 
HETATM   18  C1  UNL     1      27.478  -1.442  52.933  1.00  0.00     0.171 A 
HETATM   19  N3  UNL     1      26.299  -0.922  52.623  1.00  0.00    -0.198 NA
BRANCH  18  20
HETATM   20  O1  UNL     1      27.475  -2.844  52.765  1.00  0.00    -0.344 OA
HETATM   21  H1  UNL     1      27.193  -3.197  51.858  1.00  0.00     0.219 HD
ENDBRANCH  18  20
ENDBRANCH   1  15
BRANCH   5  22
HETATM   22  C13 UNL     1      25.359   3.416  51.344  1.00  0.00    -0.033 A 
HETATM   23  C14 UNL     1      24.622   4.455  50.850  1.00  0.00     0.009 A 
HETATM   24  C15 UNL     1      24.960   5.105  49.667  1.00  0.00     0.001 A 
HETATM   25  C16 UNL     1      26.075   4.717  48.936  1.00  0.00     0.000 A 
HETATM   26  C17 UNL     1      26.830   3.682  49.407  1.00  0.00     0.001 A 
HETATM   27  C18 UNL     1      26.473   3.058  50.576  1.00  0.00     0.009 A 
ENDBRANCH   5  22
TORSDOF 5
ENDMDL
MODEL 5
REMARK VINA RESULT:      -7.6      4.732      7.619
REMARK  5 active torsions:
REMARK  status: ('A' for Active; 'I' for Inactive)
REMARK    1  A    between atoms: O1_1  and  C1_2 
REMARK    2  A    between atoms: C3_5  and  N1_6 
REMARK    3  A    between atoms: C4_8  and  C5_9 
REMARK    4  A    between atoms: C8_12  and  P1_13 
REMARK    5  A    between atoms: C12_17  and  C13_18 
ROOT
HETATM    1  N1  UNL     1      22.951   2.230  51.422  1.00  0.00    -0.236 N 
HETATM    2  N2  UNL     1      23.650   2.926  50.436  1.00  0.00    -0.173 NA
HETATM    3  C4  UNL     1      24.548   3.690  50.961  1.00  0.00     0.067 C 
HETATM    4  C11 UNL     1      24.517   3.554  52.441  1.00  0.00     0.094 C 
HETATM    5  C12 UNL     1      23.773   2.243  52.593  1.00  0.00     0.151 C 
ENDROOT
BRANCH   3   6
HETATM    6  C5  UNL     1      25.442   4.545  50.175  1.00  0.00    -0.010 A 
HETATM    7  C6  UNL     1      26.510   3.951  49.526  1.00  0.00     0.014 A 
HETATM    8  C7  UNL     1      27.395   4.681  48.768  1.00  0.00     0.012 A 
HETATM    9  C8  UNL     1      27.160   6.055  48.686  1.00  0.00    -0.037 A 
HETATM   10  C9  UNL     1      26.096   6.659  49.331  1.00  0.00     0.012 A 
HETATM   11  C10 UNL     1      25.225   5.902  50.083  1.00  0.00     0.014 A 
BRANCH   9  12
HETATM   12  P1  UNL     1      28.318   7.056  47.689  1.00  0.00    -0.106 P 
HETATM   13  H5  UNL     1      28.260   8.461  48.044  1.00  0.00     0.059 HD
HETATM   14  H6  UNL     1      29.687   6.606  47.848  1.00  0.00     0.059 HD
ENDBRANCH   9  12
ENDBRANCH   3   6
BRANCH   1  15
HETATM   15  C3  UNL     1      21.662   1.666  51.157  1.00  0.00     0.192 A 
HETATM   16  S1  UNL     1      20.877   0.532  52.432  1.00  0.00    -0.058 SA
HETATM   17  C2  UNL     1      19.370   0.281  51.382  1.00  0.00     0.111 A 
HETATM   18  C1  UNL     1      19.697   1.060  50.292  1.00  0.00     0.171 A 
HETATM   19  N3  UNL     1      20.827   1.744  50.181  1.00  0.00    -0.198 NA
BRANCH  18  20
HETATM   20  O1  UNL     1      18.880   1.237  49.154  1.00  0.00    -0.344 OA
HETATM   21  H1  UNL     1      18.525   2.171  48.985  1.00  0.00     0.219 HD
ENDBRANCH  18  20
ENDBRANCH   1  15
BRANCH   5  22
HETATM   22  C13 UNL     1      24.709   1.098  52.693  1.00  0.00    -0.033 A 
HETATM   23  C14 UNL     1      24.507   0.030  53.521  1.00  0.00     0.009 A 
HETATM   24  C15 UNL     1      25.404  -1.030  53.594  1.00  0.00     0.001 A 
HETATM   25  C16 UNL     1      26.556  -1.043  52.816  1.00  0.00     0.000 A 
HETATM   26  C17 UNL     1      26.782   0.012  51.979  1.00  0.00     0.001 A 
HETATM   27  C18 UNL     1      25.880   1.045  51.928  1.00  0.00     0.009 A 
ENDBRANCH   5  22
TORSDOF 5
ENDMDL
MODEL 6
REMARK VINA RESULT:      -7.5      2.600      3.789
REMARK  5 active torsions:
REMARK  status: ('A' for Active; 'I' for Inactive)
REMARK    1  A    between atoms: O1_1  and  C1_2 
REMARK    2  A    between atoms: C3_5  and  N1_6 
REMARK    3  A    between atoms: C4_8  and  C5_9 
REMARK    4  A    between atoms: C8_12  and  P1_13 
REMARK    5  A    between atoms: C12_17  and  C13_18 
ROOT
HETATM    1  N1  UNL     1      22.194   0.543  52.796  1.00  0.00    -0.236 N 
HETATM    2  N2  UNL     1      21.100  -0.314  52.665  1.00  0.00    -0.173 NA
HETATM    3  C4  UNL     1      20.011   0.355  52.491  1.00  0.00     0.067 C 
HETATM    4  C11 UNL     1      20.311   1.810  52.494  1.00  0.00     0.094 C 
HETATM    5  C12 UNL     1      21.803   1.796  52.228  1.00  0.00     0.151 C 
ENDROOT
BRANCH   3   6
HETATM    6  C5  UNL     1      18.697  -0.272  52.322  1.00  0.00    -0.010 A 
HETATM    7  C6  UNL     1      18.324  -1.257  53.218  1.00  0.00     0.014 A 
HETATM    8  C7  UNL     1      17.109  -1.895  53.131  1.00  0.00     0.012 A 
HETATM    9  C8  UNL     1      16.269  -1.496  52.088  1.00  0.00    -0.037 A 
HETATM   10  C9  UNL     1      16.632  -0.513  51.187  1.00  0.00     0.012 A 
HETATM   11  C10 UNL     1      17.855   0.110  51.300  1.00  0.00     0.014 A 
BRANCH   9  12
HETATM   12  P1  UNL     1      14.647  -2.324  51.941  1.00  0.00    -0.106 P 
HETATM   13  H5  UNL     1      14.411  -2.813  50.596  1.00  0.00     0.059 HD
HETATM   14  H6  UNL     1      14.534  -3.445  52.855  1.00  0.00     0.059 HD
ENDBRANCH   9  12
ENDBRANCH   3   6
BRANCH   1  15
HETATM   15  C3  UNL     1      23.411   0.101  53.409  1.00  0.00     0.192 A 
HETATM   16  S1  UNL     1      25.054   0.606  52.653  1.00  0.00    -0.058 SA
HETATM   17  C2  UNL     1      26.011  -0.308  53.950  1.00  0.00     0.111 A 
HETATM   18  C1  UNL     1      24.976  -0.820  54.703  1.00  0.00     0.171 A 
HETATM   19  N3  UNL     1      23.693  -0.618  54.437  1.00  0.00    -0.198 NA
BRANCH  18  20
HETATM   20  O1  UNL     1      25.137  -1.623  55.854  1.00  0.00    -0.344 OA
HETATM   21  H1  UNL     1      24.901  -2.604  55.765  1.00  0.00     0.219 HD
ENDBRANCH  18  20
ENDBRANCH   1  15
BRANCH   5  22
HETATM   22  C13 UNL     1      22.095   1.926  50.781  1.00  0.00    -0.033 A 
HETATM   23  C14 UNL     1      23.065   2.748  50.280  1.00  0.00     0.009 A 
HETATM   24  C15 UNL     1      23.317   2.850  48.916  1.00  0.00     0.001 A 
HETATM   25  C16 UNL     1      22.580   2.110  47.999  1.00  0.00     0.000 A 
HETATM   26  C17 UNL     1      21.605   1.281  48.472  1.00  0.00     0.001 A 
HETATM   27  C18 UNL     1      21.378   1.200  49.823  1.00  0.00     0.009 A 
ENDBRANCH   5  22
TORSDOF 5
ENDMDL
MODEL 7
REMARK VINA RESULT:      -7.3      4.187      5.956
REMARK  5 active torsions:
REMARK  status: ('A' for Active; 'I' for Inactive)
REMARK    1  A    between atoms: O1_1  and  C1_2 
REMARK    2  A    between atoms: C3_5  and  N1_6 
REMARK    3  A    between atoms: C4_8  and  C5_9 
REMARK    4  A    between atoms: C8_12  and  P1_13 
REMARK    5  A    between atoms: C12_17  and  C13_18 
ROOT
HETATM    1  N1  UNL     1      22.195   2.997  51.021  1.00  0.00    -0.236 N 
HETATM    2  N2  UNL     1      20.915   2.581  51.386  1.00  0.00    -0.173 NA
HETATM    3  C4  UNL     1      20.665   1.402  50.926  1.00  0.00     0.067 C 
HETATM    4  C11 UNL     1      21.840   0.904  50.163  1.00  0.00     0.094 C 
HETATM    5  C12 UNL     1      22.930   1.816  50.689  1.00  0.00     0.151 C 
ENDROOT
BRANCH   3   6
HETATM    6  C5  UNL     1      19.398   0.699  51.146  1.00  0.00    -0.010 A 
HETATM    7  C6  UNL     1      19.238  -0.001  52.329  1.00  0.00     0.014 A 
HETATM    8  C7  UNL     1      18.081  -0.687  52.615  1.00  0.00     0.012 A 
HETATM    9  C8  UNL     1      17.073  -0.640  51.648  1.00  0.00    -0.037 A 
HETATM   10  C9  UNL     1      17.223   0.057  50.463  1.00  0.00     0.012 A 
HETATM   11  C10 UNL     1      18.394   0.735  50.204  1.00  0.00     0.014 A 
BRANCH   9  12
HETATM   12  P1  UNL     1      15.523  -1.541  51.994  1.00  0.00    -0.106 P 
HETATM   13  H5  UNL     1      15.667  -2.967  51.774  1.00  0.00     0.059 HD
HETATM   14  H6  UNL     1      15.081  -1.339  53.361  1.00  0.00     0.059 HD
ENDBRANCH   9  12
ENDBRANCH   3   6
BRANCH   1  15
HETATM   15  C3  UNL     1      22.553   4.384  51.029  1.00  0.00     0.192 A 
HETATM   16  S1  UNL     1      21.284   5.661  50.497  1.00  0.00    -0.058 SA
HETATM   17  C2  UNL     1      22.468   7.058  50.783  1.00  0.00     0.111 A 
HETATM   18  C1  UNL     1      23.575   6.357  51.212  1.00  0.00     0.171 A 
HETATM   19  N3  UNL     1      23.617   5.039  51.334  1.00  0.00    -0.198 NA
BRANCH  18  20
HETATM   20  O1  UNL     1      24.806   6.943  51.579  1.00  0.00    -0.344 OA
HETATM   21  H1  UNL     1      24.793   7.588  52.360  1.00  0.00     0.219 HD
ENDBRANCH  18  20
ENDBRANCH   1  15
BRANCH   5  22
HETATM   22  C13 UNL     1      23.645   1.201  51.833  1.00  0.00    -0.033 A 
HETATM   23  C14 UNL     1      23.149   0.151  52.553  1.00  0.00     0.009 A 
HETATM   24  C15 UNL     1      23.843  -0.406  53.622  1.00  0.00     0.001 A 
HETATM   25  C16 UNL     1      25.082   0.092  54.003  1.00  0.00     0.000 A 
HETATM   26  C17 UNL     1      25.601   1.142  53.301  1.00  0.00     0.001 A 
HETATM   27  C18 UNL     1      24.895   1.671  52.250  1.00  0.00     0.009 A 
ENDBRANCH   5  22
TORSDOF 5
ENDMDL
MODEL 8
REMARK VINA RESULT:      -7.3      5.420      8.285
REMARK  5 active torsions:
REMARK  status: ('A' for Active; 'I' for Inactive)
REMARK    1  A    between atoms: O1_1  and  C1_2 
REMARK    2  A    between atoms: C3_5  and  N1_6 
REMARK    3  A    between atoms: C4_8  and  C5_9 
REMARK    4  A    between atoms: C8_12  and  P1_13 
REMARK    5  A    between atoms: C12_17  and  C13_18 
ROOT
HETATM    1  N1  UNL     1      22.227   3.539  50.716  1.00  0.00    -0.236 N 
HETATM    2  N2  UNL     1      23.258   3.872  49.837  1.00  0.00    -0.173 NA
HETATM    3  C4  UNL     1      24.197   4.511  50.450  1.00  0.00     0.067 C 
HETATM    4  C11 UNL     1      23.841   4.667  51.885  1.00  0.00     0.094 C 
HETATM    5  C12 UNL     1      22.778   3.597  52.034  1.00  0.00     0.151 C 
ENDROOT
BRANCH   3   6
HETATM    6  C5  UNL     1      25.412   4.993  49.788  1.00  0.00    -0.010 A 
HETATM    7  C6  UNL     1      25.541   6.353  49.570  1.00  0.00     0.014 A 
HETATM    8  C7  UNL     1      26.649   6.887  48.955  1.00  0.00     0.012 A 
HETATM    9  C8  UNL     1      27.640   5.985  48.563  1.00  0.00    -0.037 A 
HETATM   10  C9  UNL     1      27.522   4.624  48.776  1.00  0.00     0.012 A 
HETATM   11  C10 UNL     1      26.400   4.117  49.395  1.00  0.00     0.014 A 
BRANCH   9  12
HETATM   12  P1  UNL     1      29.126   6.660  47.743  1.00  0.00    -0.106 P 
HETATM   13  H5  UNL     1      29.616   7.851  48.409  1.00  0.00     0.059 HD
HETATM   14  H6  UNL     1      30.203   5.689  47.704  1.00  0.00     0.059 HD
ENDBRANCH   9  12
ENDBRANCH   3   6
BRANCH   1  15
HETATM   15  C3  UNL     1      20.916   3.224  50.233  1.00  0.00     0.192 A 
HETATM   16  S1  UNL     1      19.490   3.125  51.451  1.00  0.00    -0.058 SA
HETATM   17  C2  UNL     1      18.282   2.709  50.108  1.00  0.00     0.111 A 
HETATM   18  C1  UNL     1      19.120   2.712  49.014  1.00  0.00     0.171 A 
HETATM   19  N3  UNL     1      20.419   2.967  49.075  1.00  0.00    -0.198 NA
BRANCH  18  20
HETATM   20  O1  UNL     1      18.715   2.449  47.687  1.00  0.00    -0.344 OA
HETATM   21  H1  UNL     1      19.101   1.624  47.244  1.00  0.00     0.219 HD
ENDBRANCH  18  20
ENDBRANCH   1  15
BRANCH   5  22
HETATM   22  C13 UNL     1      23.361   2.319  52.508  1.00  0.00    -0.033 A 
HETATM   23  C14 UNL     1      24.644   2.199  52.961  1.00  0.00     0.009 A 
HETATM   24  C15 UNL     1      25.164   0.985  53.399  1.00  0.00     0.001 A 
HETATM   25  C16 UNL     1      24.387  -0.166  53.391  1.00  0.00     0.000 A 
HETATM   26  C17 UNL     1      23.100  -0.075  52.943  1.00  0.00     0.001 A 
HETATM   27  C18 UNL     1      22.614   1.135  52.517  1.00  0.00     0.009 A 
ENDBRANCH   5  22
TORSDOF 5
ENDMDL
MODEL 9
REMARK VINA RESULT:      -7.1      5.923      8.015
REMARK  5 active torsions:
REMARK  status: ('A' for Active; 'I' for Inactive)
REMARK    1  A    between atoms: O1_1  and  C1_2 
REMARK    2  A    between atoms: C3_5  and  N1_6 
REMARK    3  A    between atoms: C4_8  and  C5_9 
REMARK    4  A    between atoms: C8_12  and  P1_13 
REMARK    5  A    between atoms: C12_17  and  C13_18 
ROOT
HETATM    1  N1  UNL     1      28.645   6.411  48.440  1.00  0.00    -0.236 N 
HETATM    2  N2  UNL     1      27.698   5.391  48.529  1.00  0.00    -0.173 NA
HETATM    3  C4  UNL     1      26.552   5.857  48.895  1.00  0.00     0.067 C 
HETATM    4  C11 UNL     1      26.651   7.327  49.094  1.00  0.00     0.094 C 
HETATM    5  C12 UNL     1      27.916   7.636  48.320  1.00  0.00     0.151 C 
ENDROOT
BRANCH   3   6
HETATM    6  C5  UNL     1      25.361   5.023  49.076  1.00  0.00    -0.010 A 
HETATM    7  C6  UNL     1      25.508   3.806  49.717  1.00  0.00     0.014 A 
HETATM    8  C7  UNL     1      24.442   2.963  49.927  1.00  0.00     0.012 A 
HETATM    9  C8  UNL     1      23.200   3.400  49.460  1.00  0.00    -0.037 A 
HETATM   10  C9  UNL     1      23.042   4.615  48.818  1.00  0.00     0.012 A 
HETATM   11  C10 UNL     1      24.128   5.439  48.622  1.00  0.00     0.014 A 
BRANCH   9  12
HETATM   12  P1  UNL     1      21.762   2.305  49.721  1.00  0.00    -0.106 P 
HETATM   13  H5  UNL     1      21.900   1.512  50.928  1.00  0.00     0.059 HD
HETATM   14  H6  UNL     1      20.526   3.059  49.816  1.00  0.00     0.059 HD
ENDBRANCH   9  12
ENDBRANCH   3   6
BRANCH   1  15
HETATM   15  C3  UNL     1      30.048   6.125  48.476  1.00  0.00     0.192 A 
HETATM   16  S1  UNL     1      31.271   7.545  48.589  1.00  0.00    -0.058 SA
HETATM   17  C2  UNL     1      32.719   6.389  48.585  1.00  0.00     0.111 A 
HETATM   18  C1  UNL     1      32.066   5.178  48.501  1.00  0.00     0.171 A 
HETATM   19  N3  UNL     1      30.749   5.047  48.448  1.00  0.00    -0.198 NA
BRANCH  18  20
HETATM   20  O1  UNL     1      32.705   3.919  48.463  1.00  0.00    -0.344 OA
HETATM   21  H1  UNL     1      33.112   3.638  47.579  1.00  0.00     0.219 HD
ENDBRANCH  18  20
ENDBRANCH   1  15
BRANCH   5  22
HETATM   22  C13 UNL     1      27.613   8.031  46.924  1.00  0.00    -0.033 A 
HETATM   23  C14 UNL     1      28.570   8.182  45.960  1.00  0.00     0.009 A 
HETATM   24  C15 UNL     1      28.255   8.554  44.657  1.00  0.00     0.001 A 
HETATM   25  C16 UNL     1      26.939   8.790  44.283  1.00  0.00     0.000 A 
HETATM   26  C17 UNL     1      25.962   8.647  45.226  1.00  0.00     0.001 A 
HETATM   27  C18 UNL     1      26.301   8.279  46.504  1.00  0.00     0.009 A 
ENDBRANCH   5  22
TORSDOF 5
ENDMDL
