MODEL 1
REMARK VINA RESULT:      -7.2      0.000      0.000
REMARK  7 active torsions:
REMARK  status: ('A' for Active; 'I' for Inactive)
REMARK    1  A    between atoms: C2_2  and  C3_3 
REMARK    2  A    between atoms: C3_3  and  C4_4 
REMARK    3  A    between atoms: C3_3  and  C14_18 
REMARK    4  A    between atoms: C5_5  and  C6_6 
REMARK    5  A    between atoms: C6_6  and  N1_7 
REMARK    6  A    between atoms: N1_7  and  C7_8 
REMARK    7  A    between atoms: C14_18  and  C15_19 
ROOT
HETATM    1  N1  UNL     1      25.486   0.992  53.105  1.00  0.00    -0.371 N 
HETATM    2  H7  UNL     1      25.711   0.975  52.053  1.00  0.00     0.161 HD
ENDROOT
BRANCH   1   3
HETATM    3  C6  UNL     1      24.145   0.811  52.786  1.00  0.00     0.148 C 
BRANCH   3   4
HETATM    4  C5  UNL     1      23.602   1.992  52.022  1.00  0.00    -0.006 C 
HETATM    5  C4  UNL     1      24.181   2.299  50.880  1.00  0.00     0.013 C 
BRANCH   5   6
HETATM    6  C3  UNL     1      24.206   3.172  49.754  1.00  0.00    -0.018 C 
BRANCH   6   7
HETATM    7  C2  UNL     1      23.282   2.936  48.831  1.00  0.00    -0.148 C 
HETATM    8  C1  UNL     1      22.551   2.415  47.866  1.00  0.00     0.097 C 
ENDBRANCH   6   7
BRANCH   6   9
HETATM    9  C14 UNL     1      25.115   4.281  49.508  1.00  0.00     0.046 C 
BRANCH   9  10
HETATM   10  C15 UNL     1      26.545   3.898  49.429  1.00  0.00     0.001 C 
HETATM   11  C16 UNL     1      27.440   4.855  48.704  1.00  0.00     0.005 C 
ENDBRANCH   9  10
ENDBRANCH   6   9
ENDBRANCH   5   6
ENDBRANCH   3   4
ENDBRANCH   1   3
BRANCH   1  12
HETATM   12  C7  UNL     1      26.870   1.178  53.434  1.00  0.00     0.135 A 
HETATM   13  N2  UNL     1      27.627   2.216  53.793  1.00  0.00    -0.224 NA
HETATM   14  C8  UNL     1      28.922   2.076  54.041  1.00  0.00     0.235 A 
HETATM   15  N3  UNL     1      29.443   0.868  53.920  1.00  0.00    -0.241 NA
HETATM   16  C9  UNL     1      28.808  -0.256  53.571  1.00  0.00     0.072 A 
HETATM   17  C10 UNL     1      27.443  -0.095  53.312  1.00  0.00     0.040 A 
HETATM   18  C13 UNL     1      29.593  -1.473  53.506  1.00  0.00     0.056 A 
HETATM   19  C11 UNL     1      26.760  -1.364  52.922  1.00  0.00     0.219 A 
HETATM   20  O1  UNL     1      27.586  -2.474  52.893  1.00  0.00    -0.358 OA
HETATM   21  C12 UNL     1      28.929  -2.554  53.161  1.00  0.00     0.137 A 
ENDBRANCH   1  12
TORSDOF 7
ENDMDL
MODEL 2
REMARK VINA RESULT:      -7.1      0.434      2.190
REMARK  7 active torsions:
REMARK  status: ('A' for Active; 'I' for Inactive)
REMARK    1  A    between atoms: C2_2  and  C3_3 
REMARK    2  A    between atoms: C3_3  and  C4_4 
REMARK    3  A    between atoms: C3_3  and  C14_18 
REMARK    4  A    between atoms: C5_5  and  C6_6 
REMARK    5  A    between atoms: C6_6  and  N1_7 
REMARK    6  A    between atoms: N1_7  and  C7_8 
REMARK    7  A    between atoms: C14_18  and  C15_19 
ROOT
HETATM    1  N1  UNL     1      25.373   0.891  53.176  1.00  0.00    -0.371 N 
HETATM    2  H7  UNL     1      25.448   1.352  52.207  1.00  0.00     0.161 HD
ENDROOT
BRANCH   1   3
HETATM    3  C6  UNL     1      24.028   0.652  52.921  1.00  0.00     0.148 C 
BRANCH   3   4
HETATM    4  C5  UNL     1      23.435   1.740  52.062  1.00  0.00    -0.006 C 
HETATM    5  C4  UNL     1      24.134   2.148  51.023  1.00  0.00     0.013 C 
BRANCH   5   6
HETATM    6  C3  UNL     1      24.201   3.027  49.904  1.00  0.00    -0.018 C 
BRANCH   6   7
HETATM    7  C2  UNL     1      25.395   3.557  49.668  1.00  0.00    -0.148 C 
HETATM    8  C1  UNL     1      26.391   4.330  49.282  1.00  0.00     0.097 C 
ENDBRANCH   6   7
BRANCH   6   9
HETATM    9  C14 UNL     1      23.124   3.401  49.000  1.00  0.00     0.046 C 
BRANCH   9  10
HETATM   10  C15 UNL     1      22.730   2.343  48.040  1.00  0.00     0.001 C 
HETATM   11  C16 UNL     1      21.605   1.454  48.470  1.00  0.00     0.005 C 
ENDBRANCH   9  10
ENDBRANCH   6   9
ENDBRANCH   5   6
ENDBRANCH   3   4
ENDBRANCH   1   3
BRANCH   1  12
HETATM   12  C7  UNL     1      26.763   1.138  53.440  1.00  0.00     0.135 A 
HETATM   13  N2  UNL     1      27.493   2.212  53.741  1.00  0.00    -0.224 NA
HETATM   14  C8  UNL     1      28.802   2.127  53.935  1.00  0.00     0.235 A 
HETATM   15  N3  UNL     1      29.364   0.936  53.819  1.00  0.00    -0.241 NA
HETATM   16  C9  UNL     1      28.759  -0.219  53.523  1.00  0.00     0.072 A 
HETATM   17  C10 UNL     1      27.379  -0.116  53.322  1.00  0.00     0.040 A 
HETATM   18  C13 UNL     1      29.586  -1.408  53.452  1.00  0.00     0.056 A 
HETATM   19  C11 UNL     1      26.729  -1.419  52.991  1.00  0.00     0.219 A 
HETATM   20  O1  UNL     1      27.595  -2.498  52.951  1.00  0.00    -0.358 OA
HETATM   21  C12 UNL     1      28.950  -2.520  53.162  1.00  0.00     0.137 A 
ENDBRANCH   1  12
TORSDOF 7
ENDMDL
MODEL 3
REMARK VINA RESULT:      -7.0      2.204      3.871
REMARK  7 active torsions:
REMARK  status: ('A' for Active; 'I' for Inactive)
REMARK    1  A    between atoms: C2_2  and  C3_3 
REMARK    2  A    between atoms: C3_3  and  C4_4 
REMARK    3  A    between atoms: C3_3  and  C14_18 
REMARK    4  A    between atoms: C5_5  and  C6_6 
REMARK    5  A    between atoms: C6_6  and  N1_7 
REMARK    6  A    between atoms: N1_7  and  C7_8 
REMARK    7  A    between atoms: C14_18  and  C15_19 
ROOT
HETATM    1  N1  UNL     1      26.042   2.356  52.769  1.00  0.00    -0.371 N 
HETATM    2  H7  UNL     1      26.301   1.915  51.821  1.00  0.00     0.161 HD
ENDROOT
BRANCH   1   3
HETATM    3  C6  UNL     1      24.821   2.732  52.222  1.00  0.00     0.148 C 
BRANCH   3   4
HETATM    4  C5  UNL     1      23.674   2.069  52.940  1.00  0.00    -0.006 C 
HETATM    5  C4  UNL     1      23.064   1.074  52.330  1.00  0.00     0.013 C 
BRANCH   5   6
HETATM    6  C3  UNL     1      22.031   0.095  52.389  1.00  0.00    -0.018 C 
BRANCH   6   7
HETATM    7  C2  UNL     1      21.008   0.298  51.569  1.00  0.00    -0.148 C 
HETATM    8  C1  UNL     1      20.162   0.790  50.685  1.00  0.00     0.097 C 
ENDBRANCH   6   7
BRANCH   6   9
HETATM    9  C14 UNL     1      21.973  -1.088  53.234  1.00  0.00     0.046 C 
BRANCH   9  10
HETATM   10  C15 UNL     1      21.991  -0.807  54.689  1.00  0.00     0.001 C 
HETATM   11  C16 UNL     1      23.240  -1.197  55.416  1.00  0.00     0.005 C 
ENDBRANCH   9  10
ENDBRANCH   6   9
ENDBRANCH   5   6
ENDBRANCH   3   4
ENDBRANCH   1   3
BRANCH   1  12
HETATM   12  C7  UNL     1      27.303   1.966  53.334  1.00  0.00     0.135 A 
HETATM   13  N2  UNL     1      28.286   2.594  53.980  1.00  0.00    -0.224 NA
HETATM   14  C8  UNL     1      29.366   1.947  54.395  1.00  0.00     0.235 A 
HETATM   15  N3  UNL     1      29.439   0.652  54.146  1.00  0.00    -0.241 NA
HETATM   16  C9  UNL     1      28.536  -0.103  53.512  1.00  0.00     0.072 A 
HETATM   17  C10 UNL     1      27.401   0.591  53.080  1.00  0.00     0.040 A 
HETATM   18  C13 UNL     1      28.834  -1.513  53.356  1.00  0.00     0.056 A 
HETATM   19  C11 UNL     1      26.410  -0.274  52.373  1.00  0.00     0.219 A 
HETATM   20  O1  UNL     1      26.778  -1.606  52.276  1.00  0.00    -0.358 OA
HETATM   21  C12 UNL     1      27.919  -2.217  52.730  1.00  0.00     0.137 A 
ENDBRANCH   1  12
TORSDOF 7
ENDMDL
MODEL 4
REMARK VINA RESULT:      -6.9      2.640      4.794
REMARK  7 active torsions:
REMARK  status: ('A' for Active; 'I' for Inactive)
REMARK    1  A    between atoms: C2_2  and  C3_3 
REMARK    2  A    between atoms: C3_3  and  C4_4 
REMARK    3  A    between atoms: C3_3  and  C14_18 
REMARK    4  A    between atoms: C5_5  and  C6_6 
REMARK    5  A    between atoms: C6_6  and  N1_7 
REMARK    6  A    between atoms: N1_7  and  C7_8 
REMARK    7  A    between atoms: C14_18  and  C15_19 
ROOT
HETATM    1  N1  UNL     1      25.247   0.980  51.956  1.00  0.00    -0.371 N 
HETATM    2  H7  UNL     1      24.544   0.220  51.665  1.00  0.00     0.161 HD
ENDROOT
BRANCH   1   3
HETATM    3  C6  UNL     1      24.335   1.939  51.530  1.00  0.00     0.148 C 
BRANCH   3   4
HETATM    4  C5  UNL     1      22.935   1.381  51.493  1.00  0.00    -0.006 C 
HETATM    5  C4  UNL     1      22.413   0.966  52.629  1.00  0.00     0.013 C 
BRANCH   5   6
HETATM    6  C3  UNL     1      21.283   0.394  53.281  1.00  0.00    -0.018 C 
BRANCH   6   7
HETATM    7  C2  UNL     1      20.166   0.367  52.564  1.00  0.00    -0.148 C 
HETATM    8  C1  UNL     1      19.270   0.222  51.608  1.00  0.00     0.097 C 
ENDBRANCH   6   7
BRANCH   6   9
HETATM    9  C14 UNL     1      21.216  -0.158  54.626  1.00  0.00     0.046 C 
BRANCH   9  10
HETATM   10  C15 UNL     1      21.916  -1.453  54.795  1.00  0.00     0.001 C 
HETATM   11  C16 UNL     1      23.248  -1.394  55.476  1.00  0.00     0.005 C 
ENDBRANCH   9  10
ENDBRANCH   6   9
ENDBRANCH   5   6
ENDBRANCH   3   4
ENDBRANCH   1   3
BRANCH   1  12
HETATM   12  C7  UNL     1      26.189  -0.010  52.397  1.00  0.00     0.135 A 
HETATM   13  N2  UNL     1      26.286  -1.336  52.295  1.00  0.00    -0.224 NA
HETATM   14  C8  UNL     1      27.306  -1.998  52.822  1.00  0.00     0.235 A 
HETATM   15  N3  UNL     1      28.230  -1.298  53.457  1.00  0.00    -0.241 NA
HETATM   16  C9  UNL     1      28.261   0.027  53.636  1.00  0.00     0.072 A 
HETATM   17  C10 UNL     1      27.180   0.713  53.075  1.00  0.00     0.040 A 
HETATM   18  C13 UNL     1      29.385   0.575  54.370  1.00  0.00     0.056 A 
HETATM   19  C11 UNL     1      27.238   2.190  53.292  1.00  0.00     0.219 A 
HETATM   20  O1  UNL     1      28.348   2.622  53.996  1.00  0.00    -0.358 OA
HETATM   21  C12 UNL     1      29.376   1.880  54.520  1.00  0.00     0.137 A 
ENDBRANCH   1  12
TORSDOF 7
ENDMDL
MODEL 5
REMARK VINA RESULT:      -6.9      1.914      3.609
REMARK  7 active torsions:
REMARK  status: ('A' for Active; 'I' for Inactive)
REMARK    1  A    between atoms: C2_2  and  C3_3 
REMARK    2  A    between atoms: C3_3  and  C4_4 
REMARK    3  A    between atoms: C3_3  and  C14_18 
REMARK    4  A    between atoms: C5_5  and  C6_6 
REMARK    5  A    between atoms: C6_6  and  N1_7 
REMARK    6  A    between atoms: N1_7  and  C7_8 
REMARK    7  A    between atoms: C14_18  and  C15_19 
ROOT
HETATM    1  N1  UNL     1      26.222   2.453  52.642  1.00  0.00    -0.371 N 
HETATM    2  H7  UNL     1      26.388   1.801  51.802  1.00  0.00     0.161 HD
ENDROOT
BRANCH   1   3
HETATM    3  C6  UNL     1      25.048   2.881  52.033  1.00  0.00     0.148 C 
BRANCH   3   4
HETATM    4  C5  UNL     1      23.835   2.379  52.775  1.00  0.00    -0.006 C 
HETATM    5  C4  UNL     1      23.181   1.360  52.257  1.00  0.00     0.013 C 
BRANCH   5   6
HETATM    6  C3  UNL     1      22.083   0.461  52.384  1.00  0.00    -0.018 C 
BRANCH   6   7
HETATM    7  C2  UNL     1      22.005  -0.181  53.543  1.00  0.00    -0.148 C 
HETATM    8  C1  UNL     1      22.236  -0.938  54.597  1.00  0.00     0.097 C 
ENDBRANCH   6   7
BRANCH   6   9
HETATM    9  C14 UNL     1      21.049   0.174  51.402  1.00  0.00     0.046 C 
BRANCH   9  10
HETATM   10  C15 UNL     1      20.838   1.244  50.399  1.00  0.00     0.001 C 
HETATM   11  C16 UNL     1      21.384   0.978  49.031  1.00  0.00     0.005 C 
ENDBRANCH   9  10
ENDBRANCH   6   9
ENDBRANCH   5   6
ENDBRANCH   3   4
ENDBRANCH   1   3
BRANCH   1  12
HETATM   12  C7  UNL     1      27.434   2.010  53.271  1.00  0.00     0.135 A 
HETATM   13  N2  UNL     1      28.412   2.598  53.961  1.00  0.00    -0.224 NA
HETATM   14  C8  UNL     1      29.439   1.905  54.433  1.00  0.00     0.235 A 
HETATM   15  N3  UNL     1      29.464   0.605  54.197  1.00  0.00    -0.241 NA
HETATM   16  C9  UNL     1      28.558  -0.112  53.524  1.00  0.00     0.072 A 
HETATM   17  C10 UNL     1      27.479   0.630  53.032  1.00  0.00     0.040 A 
HETATM   18  C13 UNL     1      28.797  -1.536  53.393  1.00  0.00     0.056 A 
HETATM   19  C11 UNL     1      26.485  -0.195  52.283  1.00  0.00     0.219 A 
HETATM   20  O1  UNL     1      26.794  -1.543  52.214  1.00  0.00    -0.358 OA
HETATM   21  C12 UNL     1      27.882  -2.202  52.727  1.00  0.00     0.137 A 
ENDBRANCH   1  12
TORSDOF 7
ENDMDL
MODEL 6
REMARK VINA RESULT:      -6.9      2.820      5.257
REMARK  7 active torsions:
REMARK  status: ('A' for Active; 'I' for Inactive)
REMARK    1  A    between atoms: C2_2  and  C3_3 
REMARK    2  A    between atoms: C3_3  and  C4_4 
REMARK    3  A    between atoms: C3_3  and  C14_18 
REMARK    4  A    between atoms: C5_5  and  C6_6 
REMARK    5  A    between atoms: C6_6  and  N1_7 
REMARK    6  A    between atoms: N1_7  and  C7_8 
REMARK    7  A    between atoms: C14_18  and  C15_19 
ROOT
HETATM    1  N1  UNL     1      25.291   0.886  51.972  1.00  0.00    -0.371 N 
HETATM    2  H7  UNL     1      25.942   1.701  52.236  1.00  0.00     0.161 HD
ENDROOT
BRANCH   1   3
HETATM    3  C6  UNL     1      24.351   1.819  51.550  1.00  0.00     0.148 C 
BRANCH   3   4
HETATM    4  C5  UNL     1      22.947   1.328  51.795  1.00  0.00    -0.006 C 
HETATM    5  C4  UNL     1      22.678   0.811  52.976  1.00  0.00     0.013 C 
BRANCH   5   6
HETATM    6  C3  UNL     1      21.696   0.217  53.820  1.00  0.00    -0.018 C 
BRANCH   6   7
HETATM    7  C2  UNL     1      22.152  -0.694  54.670  1.00  0.00    -0.148 C 
HETATM    8  C1  UNL     1      22.908  -1.508  55.379  1.00  0.00     0.097 C 
ENDBRANCH   6   7
BRANCH   6   9
HETATM    9  C14 UNL     1      20.268   0.495  53.856  1.00  0.00     0.046 C 
BRANCH   9  10
HETATM   10  C15 UNL     1      19.482  -0.180  52.797  1.00  0.00     0.001 C 
HETATM   11  C16 UNL     1      18.509  -1.218  53.263  1.00  0.00     0.005 C 
ENDBRANCH   9  10
ENDBRANCH   6   9
ENDBRANCH   5   6
ENDBRANCH   3   4
ENDBRANCH   1   3
BRANCH   1  12
HETATM   12  C7  UNL     1      26.261  -0.078  52.407  1.00  0.00     0.135 A 
HETATM   13  N2  UNL     1      26.396  -1.401  52.300  1.00  0.00    -0.224 NA
HETATM   14  C8  UNL     1      27.436  -2.035  52.823  1.00  0.00     0.235 A 
HETATM   15  N3  UNL     1      28.341  -1.311  53.459  1.00  0.00    -0.241 NA
HETATM   16  C9  UNL     1      28.334   0.013  53.643  1.00  0.00     0.072 A 
HETATM   17  C10 UNL     1      27.232   0.670  53.086  1.00  0.00     0.040 A 
HETATM   18  C13 UNL     1      29.442   0.591  54.377  1.00  0.00     0.056 A 
HETATM   19  C11 UNL     1      27.248   2.147  53.309  1.00  0.00     0.219 A 
HETATM   20  O1  UNL     1      28.347   2.609  54.014  1.00  0.00    -0.358 OA
HETATM   21  C12 UNL     1      29.397   1.895  54.532  1.00  0.00     0.137 A 
ENDBRANCH   1  12
TORSDOF 7
ENDMDL
MODEL 7
REMARK VINA RESULT:      -6.8      2.846      4.568
REMARK  7 active torsions:
REMARK  status: ('A' for Active; 'I' for Inactive)
REMARK    1  A    between atoms: C2_2  and  C3_3 
REMARK    2  A    between atoms: C3_3  and  C4_4 
REMARK    3  A    between atoms: C3_3  and  C14_18 
REMARK    4  A    between atoms: C5_5  and  C6_6 
REMARK    5  A    between atoms: C6_6  and  N1_7 
REMARK    6  A    between atoms: N1_7  and  C7_8 
REMARK    7  A    between atoms: C14_18  and  C15_19 
ROOT
HETATM    1  N1  UNL     1      24.186   0.147  53.278  1.00  0.00    -0.371 N 
HETATM    2  H7  UNL     1      24.677   0.264  54.228  1.00  0.00     0.161 HD
ENDROOT
BRANCH   1   3
HETATM    3  C6  UNL     1      23.252  -0.673  53.900  1.00  0.00     0.148 C 
BRANCH   3   4
HETATM    4  C5  UNL     1      22.017  -0.834  53.050  1.00  0.00    -0.006 C 
HETATM    5  C4  UNL     1      21.695   0.158  52.246  1.00  0.00     0.013 C 
BRANCH   5   6
HETATM    6  C3  UNL     1      20.781   0.652  51.271  1.00  0.00    -0.018 C 
BRANCH   6   7
HETATM    7  C2  UNL     1      21.279   0.803  50.050  1.00  0.00    -0.148 C 
HETATM    8  C1  UNL     1      21.450   1.051  48.767  1.00  0.00     0.097 C 
ENDBRANCH   6   7
BRANCH   6   9
HETATM    9  C14 UNL     1      19.381   1.002  51.459  1.00  0.00     0.046 C 
BRANCH   9  10
HETATM   10  C15 UNL     1      18.439  -0.133  51.316  1.00  0.00     0.001 C 
HETATM   11  C16 UNL     1      18.047  -0.823  52.586  1.00  0.00     0.005 C 
ENDBRANCH   9  10
ENDBRANCH   6   9
ENDBRANCH   5   6
ENDBRANCH   3   4
ENDBRANCH   1   3
BRANCH   1  12
HETATM   12  C7  UNL     1      25.150   0.995  52.635  1.00  0.00     0.135 A 
HETATM   13  N2  UNL     1      25.129   1.840  51.603  1.00  0.00    -0.224 NA
HETATM   14  C8  UNL     1      26.215   2.504  51.231  1.00  0.00     0.235 A 
HETATM   15  N3  UNL     1      27.325   2.301  51.919  1.00  0.00    -0.241 NA
HETATM   16  C9  UNL     1      27.490   1.489  52.968  1.00  0.00     0.072 A 
HETATM   17  C10 UNL     1      26.338   0.795  53.351  1.00  0.00     0.040 A 
HETATM   18  C13 UNL     1      28.809   1.431  53.567  1.00  0.00     0.056 A 
HETATM   19  C11 UNL     1      26.551  -0.107  54.523  1.00  0.00     0.219 A 
HETATM   20  O1  UNL     1      27.839  -0.092  55.030  1.00  0.00    -0.358 OA
HETATM   21  C12 UNL     1      28.926   0.623  54.596  1.00  0.00     0.137 A 
ENDBRANCH   1  12
TORSDOF 7
ENDMDL
MODEL 8
REMARK VINA RESULT:      -6.7      1.820      3.251
REMARK  7 active torsions:
REMARK  status: ('A' for Active; 'I' for Inactive)
REMARK    1  A    between atoms: C2_2  and  C3_3 
REMARK    2  A    between atoms: C3_3  and  C4_4 
REMARK    3  A    between atoms: C3_3  and  C14_18 
REMARK    4  A    between atoms: C5_5  and  C6_6 
REMARK    5  A    between atoms: C6_6  and  N1_7 
REMARK    6  A    between atoms: N1_7  and  C7_8 
REMARK    7  A    between atoms: C14_18  and  C15_19 
ROOT
HETATM    1  N1  UNL     1      24.779  -0.334  53.290  1.00  0.00    -0.371 N 
HETATM    2  H7  UNL     1      25.189   0.610  53.605  1.00  0.00     0.161 HD
ENDROOT
BRANCH   1   3
HETATM    3  C6  UNL     1      23.512   0.234  53.356  1.00  0.00     0.148 C 
BRANCH   3   4
HETATM    4  C5  UNL     1      23.101   0.807  52.024  1.00  0.00    -0.006 C 
HETATM    5  C4  UNL     1      23.771   1.848  51.574  1.00  0.00     0.013 C 
BRANCH   5   6
HETATM    6  C3  UNL     1      23.928   2.800  50.526  1.00  0.00    -0.018 C 
BRANCH   6   7
HETATM    7  C2  UNL     1      25.182   3.099  50.212  1.00  0.00    -0.148 C 
HETATM    8  C1  UNL     1      26.489   3.087  50.039  1.00  0.00     0.097 C 
ENDBRANCH   6   7
BRANCH   6   9
HETATM    9  C14 UNL     1      22.882   3.472  49.769  1.00  0.00     0.046 C 
BRANCH   9  10
HETATM   10  C15 UNL     1      22.693   2.959  48.392  1.00  0.00     0.001 C 
HETATM   11  C16 UNL     1      22.034   1.620  48.276  1.00  0.00     0.005 C 
ENDBRANCH   9  10
ENDBRANCH   6   9
ENDBRANCH   5   6
ENDBRANCH   3   4
ENDBRANCH   1   3
BRANCH   1  12
HETATM   12  C7  UNL     1      26.087  -0.920  53.220  1.00  0.00     0.135 A 
HETATM   13  N2  UNL     1      26.567  -2.135  52.955  1.00  0.00    -0.224 NA
HETATM   14  C8  UNL     1      27.870  -2.383  52.967  1.00  0.00     0.235 A 
HETATM   15  N3  UNL     1      28.683  -1.381  53.251  1.00  0.00    -0.241 NA
HETATM   16  C9  UNL     1      28.344  -0.119  53.536  1.00  0.00     0.072 A 
HETATM   17  C10 UNL     1      26.967   0.129  53.520  1.00  0.00     0.040 A 
HETATM   18  C13 UNL     1      29.417   0.814  53.816  1.00  0.00     0.056 A 
HETATM   19  C11 UNL     1      26.616   1.544  53.843  1.00  0.00     0.219 A 
HETATM   20  O1  UNL     1      27.705   2.362  54.091  1.00  0.00    -0.358 OA
HETATM   21  C12 UNL     1      29.039   2.042  54.088  1.00  0.00     0.137 A 
ENDBRANCH   1  12
TORSDOF 7
ENDMDL
MODEL 9
REMARK VINA RESULT:      -6.5      2.320      3.762
REMARK  7 active torsions:
REMARK  status: ('A' for Active; 'I' for Inactive)
REMARK    1  A    between atoms: C2_2  and  C3_3 
REMARK    2  A    between atoms: C3_3  and  C4_4 
REMARK    3  A    between atoms: C3_3  and  C14_18 
REMARK    4  A    between atoms: C5_5  and  C6_6 
REMARK    5  A    between atoms: C6_6  and  N1_7 
REMARK    6  A    between atoms: N1_7  and  C7_8 
REMARK    7  A    between atoms: C14_18  and  C15_19 
ROOT
HETATM    1  N1  UNL     1      25.241   0.697  53.280  1.00  0.00    -0.371 N 
HETATM    2  H7  UNL     1      25.082   0.583  54.338  1.00  0.00     0.161 HD
ENDROOT
BRANCH   1   3
HETATM    3  C6  UNL     1      23.917   0.326  53.077  1.00  0.00     0.148 C 
BRANCH   3   4
HETATM    4  C5  UNL     1      23.282   1.149  51.985  1.00  0.00    -0.006 C 
HETATM    5  C4  UNL     1      22.037   0.871  51.657  1.00  0.00     0.013 C 
BRANCH   5   6
HETATM    6  C3  UNL     1      20.927   1.189  50.823  1.00  0.00    -0.018 C 
BRANCH   6   7
HETATM    7  C2  UNL     1      21.207   1.340  49.535  1.00  0.00    -0.148 C 
HETATM    8  C1  UNL     1      21.764   1.305  48.340  1.00  0.00     0.097 C 
ENDBRANCH   6   7
BRANCH   6   9
HETATM    9  C14 UNL     1      19.537   1.363  51.219  1.00  0.00     0.046 C 
BRANCH   9  10
HETATM   10  C15 UNL     1      18.874   0.127  51.698  1.00  0.00     0.001 C 
HETATM   11  C16 UNL     1      17.638  -0.283  50.959  1.00  0.00     0.005 C 
ENDBRANCH   9  10
ENDBRANCH   6   9
ENDBRANCH   5   6
ENDBRANCH   3   4
ENDBRANCH   1   3
BRANCH   1  12
HETATM   12  C7  UNL     1      26.608   1.081  53.490  1.00  0.00     0.135 A 
HETATM   13  N2  UNL     1      27.241   2.226  53.750  1.00  0.00    -0.224 NA
HETATM   14  C8  UNL     1      28.558   2.271  53.897  1.00  0.00     0.235 A 
HETATM   15  N3  UNL     1      29.228   1.139  53.777  1.00  0.00    -0.241 NA
HETATM   16  C9  UNL     1      28.729  -0.075  53.519  1.00  0.00     0.072 A 
HETATM   17  C10 UNL     1      27.339  -0.109  53.367  1.00  0.00     0.040 A 
HETATM   18  C13 UNL     1      29.664  -1.178  53.434  1.00  0.00     0.056 A 
HETATM   19  C11 UNL     1      26.807  -1.474  53.077  1.00  0.00     0.219 A 
HETATM   20  O1  UNL     1      27.773  -2.465  53.020  1.00  0.00    -0.358 OA
HETATM   21  C12 UNL     1      29.130  -2.352  53.182  1.00  0.00     0.137 A 
ENDBRANCH   1  12
TORSDOF 7
ENDMDL
