MODEL 1
REMARK VINA RESULT:      -8.9      0.000      0.000
REMARK  2 active torsions:
REMARK  status: ('A' for Active; 'I' for Inactive)
REMARK    1  A    between atoms: C9_11  and  N2_12 
REMARK    2  A    between atoms: N2_12  and  C10_13 
ROOT
HETATM    1  F1  UNL     1      29.761  -1.664  53.173  1.00  0.00    -0.206 F 
HETATM    2  C1  UNL     1      28.897  -0.646  53.395  1.00  0.00     0.117 A 
HETATM    3  C2  UNL     1      29.270   0.675  53.459  1.00  0.00     0.045 A 
HETATM    4  C3  UNL     1      28.357   1.683  53.684  1.00  0.00     0.041 A 
HETATM    5  C4  UNL     1      27.004   1.375  53.856  1.00  0.00     0.086 A 
HETATM    6  C5  UNL     1      26.648   0.029  53.785  1.00  0.00    -0.004 A 
HETATM    7  C6  UNL     1      27.562  -0.985  53.560  1.00  0.00     0.054 A 
HETATM    8  C7  UNL     1      25.290  -0.543  53.940  1.00  0.00     0.161 C 
HETATM    9  N1  UNL     1      24.322   0.147  53.125  1.00  0.00    -0.379 N 
HETATM   10  C8  UNL     1      24.063   1.559  52.984  1.00  0.00     0.129 A 
HETATM   11  C9  UNL     1      22.860   1.680  52.335  1.00  0.00     0.160 A 
HETATM   12  N3  UNL     1      22.484   2.976  52.133  1.00  0.00    -0.222 NA
HETATM   13  C16 UNL     1      23.218   4.004  52.530  1.00  0.00     0.238 A 
HETATM   14  N4  UNL     1      24.391   3.820  53.159  1.00  0.00    -0.215 NA
HETATM   15  C17 UNL     1      24.888   2.594  53.426  1.00  0.00     0.202 A 
HETATM   16  O1  UNL     1      26.113   2.453  54.082  1.00  0.00    -0.289 OA
HETATM   17  H6  UNL     1      23.698  -0.457  52.541  1.00  0.00     0.160 HD
ENDROOT
BRANCH  11  18
HETATM   18  N2  UNL     1      22.017   0.647  51.887  1.00  0.00    -0.339 N 
HETATM   19  H7  UNL     1      22.702   0.180  51.224  1.00  0.00     0.167 HD
BRANCH  18  20
HETATM   20  C10 UNL     1      20.708   0.192  52.095  1.00  0.00     0.035 A 
HETATM   21  C11 UNL     1      20.460  -0.449  53.275  1.00  0.00     0.029 A 
HETATM   22  C12 UNL     1      19.205  -0.953  53.548  1.00  0.00     0.004 A 
HETATM   23  C13 UNL     1      18.258  -0.768  52.576  1.00  0.00     0.019 A 
HETATM   24  C14 UNL     1      18.467  -0.119  51.360  1.00  0.00     0.013 A 
HETATM   25 BR1  UNL     1      17.096   0.085  50.038  1.00  0.00    -0.051 Br
HETATM   26  C15 UNL     1      19.746   0.367  51.139  1.00  0.00     0.048 A 
ENDBRANCH  18  20
ENDBRANCH  11  18
TORSDOF 2
ENDMDL
MODEL 2
REMARK VINA RESULT:      -8.5      3.981      5.378
REMARK  2 active torsions:
REMARK  status: ('A' for Active; 'I' for Inactive)
REMARK    1  A    between atoms: C9_11  and  N2_12 
REMARK    2  A    between atoms: N2_12  and  C10_13 
ROOT
HETATM    1  F1  UNL     1      24.371   7.664  47.641  1.00  0.00    -0.206 F 
HETATM    2  C1  UNL     1      25.008   6.609  48.202  1.00  0.00     0.117 A 
HETATM    3  C2  UNL     1      26.365   6.553  48.406  1.00  0.00     0.045 A 
HETATM    4  C3  UNL     1      26.974   5.460  48.984  1.00  0.00     0.041 A 
HETATM    5  C4  UNL     1      26.206   4.362  49.383  1.00  0.00     0.086 A 
HETATM    6  C5  UNL     1      24.831   4.441  49.168  1.00  0.00    -0.004 A 
HETATM    7  C6  UNL     1      24.217   5.536  48.587  1.00  0.00     0.054 A 
HETATM    8  C7  UNL     1      23.817   3.411  49.497  1.00  0.00     0.161 C 
HETATM    9  N1  UNL     1      23.961   2.929  50.847  1.00  0.00    -0.379 N 
HETATM   10  C8  UNL     1      25.132   2.463  51.548  1.00  0.00     0.129 A 
HETATM   11  C9  UNL     1      24.693   1.838  52.687  1.00  0.00     0.160 A 
HETATM   12  N3  UNL     1      25.705   1.340  53.454  1.00  0.00    -0.222 NA
HETATM   13  C16 UNL     1      26.981   1.457  53.120  1.00  0.00     0.238 A 
HETATM   14  N4  UNL     1      27.349   2.084  51.990  1.00  0.00    -0.215 NA
HETATM   15  C17 UNL     1      26.456   2.625  51.135  1.00  0.00     0.202 A 
HETATM   16  O1  UNL     1      26.887   3.269  49.973  1.00  0.00    -0.289 OA
HETATM   17  H6  UNL     1      23.087   2.902  51.422  1.00  0.00     0.160 HD
ENDROOT
BRANCH  11  18
HETATM   18  N2  UNL     1      23.364   1.664  53.114  1.00  0.00    -0.339 N 
HETATM   19  H7  UNL     1      23.082   2.687  53.125  1.00  0.00     0.167 HD
BRANCH  18  20
HETATM   20  C10 UNL     1      22.498   0.618  53.461  1.00  0.00     0.035 A 
HETATM   21  C11 UNL     1      23.014  -0.372  54.247  1.00  0.00     0.029 A 
HETATM   22  C12 UNL     1      22.238  -1.453  54.612  1.00  0.00     0.004 A 
HETATM   23  C13 UNL     1      20.952  -1.456  54.140  1.00  0.00     0.019 A 
HETATM   24  C14 UNL     1      20.385  -0.468  53.338  1.00  0.00     0.013 A 
HETATM   25 BR1  UNL     1      18.581  -0.552  52.699  1.00  0.00    -0.051 Br
HETATM   26  C15 UNL     1      21.210   0.594  53.003  1.00  0.00     0.048 A 
ENDBRANCH  18  20
ENDBRANCH  11  18
TORSDOF 2
ENDMDL
MODEL 3
REMARK VINA RESULT:      -8.5      4.414      7.001
REMARK  2 active torsions:
REMARK  status: ('A' for Active; 'I' for Inactive)
REMARK    1  A    between atoms: C9_11  and  N2_12 
REMARK    2  A    between atoms: N2_12  and  C10_13 
ROOT
HETATM    1  F1  UNL     1      23.432  -1.765  55.708  1.00  0.00    -0.206 F 
HETATM    2  C1  UNL     1      22.827  -0.921  54.841  1.00  0.00     0.117 A 
HETATM    3  C2  UNL     1      21.492  -0.598  54.890  1.00  0.00     0.045 A 
HETATM    4  C3  UNL     1      20.915   0.269  53.987  1.00  0.00     0.041 A 
HETATM    5  C4  UNL     1      21.694   0.850  52.981  1.00  0.00     0.086 A 
HETATM    6  C5  UNL     1      23.045   0.510  52.951  1.00  0.00    -0.004 A 
HETATM    7  C6  UNL     1      23.627  -0.361  53.855  1.00  0.00     0.054 A 
HETATM    8  C7  UNL     1      24.064   0.987  51.985  1.00  0.00     0.161 C 
HETATM    9  N1  UNL     1      24.031   2.420  51.837  1.00  0.00    -0.379 N 
HETATM   10  C8  UNL     1      22.919   3.305  51.595  1.00  0.00     0.129 A 
HETATM   11  C9  UNL     1      23.446   4.519  51.235  1.00  0.00     0.160 A 
HETATM   12  N3  UNL     1      22.497   5.463  50.971  1.00  0.00    -0.222 NA
HETATM   13  C16 UNL     1      21.199   5.217  51.059  1.00  0.00     0.238 A 
HETATM   14  N4  UNL     1      20.744   4.006  51.422  1.00  0.00    -0.215 NA
HETATM   15  C17 UNL     1      21.567   2.976  51.711  1.00  0.00     0.202 A 
HETATM   16  O1  UNL     1      21.047   1.735  52.084  1.00  0.00    -0.289 OA
HETATM   17  H6  UNL     1      24.953   2.911  51.909  1.00  0.00     0.160 HD
ENDROOT
BRANCH  11  18
HETATM   18  N2  UNL     1      24.805   4.863  51.111  1.00  0.00    -0.339 N 
HETATM   19  H7  UNL     1      25.094   4.671  52.113  1.00  0.00     0.167 HD
BRANCH  18  20
HETATM   20  C10 UNL     1      25.688   5.320  50.124  1.00  0.00     0.035 A 
HETATM   21  C11 UNL     1      26.549   4.401  49.596  1.00  0.00     0.029 A 
HETATM   22  C12 UNL     1      27.472   4.774  48.639  1.00  0.00     0.004 A 
HETATM   23  C13 UNL     1      27.457   6.093  48.273  1.00  0.00     0.019 A 
HETATM   24  C14 UNL     1      26.596   7.063  48.783  1.00  0.00     0.013 A 
HETATM   25 BR1  UNL     1      26.649   8.897  48.234  1.00  0.00    -0.051 Br
HETATM   26  C15 UNL     1      25.691   6.633  49.741  1.00  0.00     0.048 A 
ENDBRANCH  18  20
ENDBRANCH  11  18
TORSDOF 2
ENDMDL
MODEL 4
REMARK VINA RESULT:      -8.4      4.308      7.142
REMARK  2 active torsions:
REMARK  status: ('A' for Active; 'I' for Inactive)
REMARK    1  A    between atoms: C9_11  and  N2_12 
REMARK    2  A    between atoms: N2_12  and  C10_13 
ROOT
HETATM    1  F1  UNL     1      18.677  -0.994  53.181  1.00  0.00    -0.206 F 
HETATM    2  C1  UNL     1      19.980  -0.756  53.458  1.00  0.00     0.117 A 
HETATM    3  C2  UNL     1      20.796  -1.641  54.121  1.00  0.00     0.045 A 
HETATM    4  C3  UNL     1      22.121  -1.360  54.382  1.00  0.00     0.041 A 
HETATM    5  C4  UNL     1      22.672  -0.144  53.967  1.00  0.00     0.086 A 
HETATM    6  C5  UNL     1      21.827   0.737  53.294  1.00  0.00    -0.004 A 
HETATM    7  C6  UNL     1      20.497   0.459  53.032  1.00  0.00     0.054 A 
HETATM    8  C7  UNL     1      22.175   2.077  52.766  1.00  0.00     0.161 C 
HETATM    9  N1  UNL     1      23.387   2.049  51.988  1.00  0.00    -0.379 N 
HETATM   10  C8  UNL     1      24.676   1.480  52.296  1.00  0.00     0.129 A 
HETATM   11  C9  UNL     1      25.562   1.980  51.375  1.00  0.00     0.160 A 
HETATM   12  N3  UNL     1      26.836   1.523  51.549  1.00  0.00    -0.222 NA
HETATM   13  C16 UNL     1      27.168   0.680  52.514  1.00  0.00     0.238 A 
HETATM   14  N4  UNL     1      26.252   0.223  53.384  1.00  0.00    -0.215 NA
HETATM   15  C17 UNL     1      24.955   0.589  53.334  1.00  0.00     0.202 A 
HETATM   16  O1  UNL     1      24.039   0.086  54.260  1.00  0.00    -0.289 OA
HETATM   17  H6  UNL     1      23.344   2.514  51.051  1.00  0.00     0.160 HD
ENDROOT
BRANCH  11  18
HETATM   18  N2  UNL     1      25.296   2.879  50.327  1.00  0.00    -0.339 N 
HETATM   19  H7  UNL     1      24.508   2.337  49.868  1.00  0.00     0.167 HD
BRANCH  18  20
HETATM   20  C10 UNL     1      25.767   4.111  49.852  1.00  0.00     0.035 A 
HETATM   21  C11 UNL     1      26.915   4.086  49.113  1.00  0.00     0.029 A 
HETATM   22  C12 UNL     1      27.463   5.258  48.631  1.00  0.00     0.004 A 
HETATM   23  C13 UNL     1      26.788   6.409  48.941  1.00  0.00     0.019 A 
HETATM   24  C14 UNL     1      25.615   6.479  49.689  1.00  0.00     0.013 A 
HETATM   25 BR1  UNL     1      24.738   8.132  50.100  1.00  0.00    -0.051 Br
HETATM   26  C15 UNL     1      25.110   5.272  50.148  1.00  0.00     0.048 A 
ENDBRANCH  18  20
ENDBRANCH  11  18
TORSDOF 2
ENDMDL
MODEL 5
REMARK VINA RESULT:      -8.3      4.007      6.338
REMARK  2 active torsions:
REMARK  status: ('A' for Active; 'I' for Inactive)
REMARK    1  A    between atoms: C9_11  and  N2_12 
REMARK    2  A    between atoms: N2_12  and  C10_13 
ROOT
HETATM    1  F1  UNL     1      28.772  -0.472  53.621  1.00  0.00    -0.206 F 
HETATM    2  C1  UNL     1      27.523  -0.134  53.221  1.00  0.00     0.117 A 
HETATM    3  C2  UNL     1      26.398  -0.861  53.526  1.00  0.00     0.045 A 
HETATM    4  C3  UNL     1      25.143  -0.481  53.101  1.00  0.00     0.041 A 
HETATM    5  C4  UNL     1      24.987   0.678  52.333  1.00  0.00     0.086 A 
HETATM    6  C5  UNL     1      26.142   1.401  52.038  1.00  0.00    -0.004 A 
HETATM    7  C6  UNL     1      27.403   1.021  52.462  1.00  0.00     0.054 A 
HETATM    8  C7  UNL     1      26.233   2.648  51.242  1.00  0.00     0.161 C 
HETATM    9  N1  UNL     1      25.272   3.631  51.675  1.00  0.00    -0.379 N 
HETATM   10  C8  UNL     1      23.856   3.504  51.913  1.00  0.00     0.129 A 
HETATM   11  C9  UNL     1      23.352   4.777  52.010  1.00  0.00     0.160 A 
HETATM   12  N3  UNL     1      22.007   4.810  52.236  1.00  0.00    -0.222 NA
HETATM   13  C16 UNL     1      21.274   3.713  52.349  1.00  0.00     0.238 A 
HETATM   14  N4  UNL     1      21.827   2.493  52.247  1.00  0.00    -0.215 NA
HETATM   15  C17 UNL     1      23.144   2.308  52.024  1.00  0.00     0.202 A 
HETATM   16  O1  UNL     1      23.674   1.020  51.927  1.00  0.00    -0.289 OA
HETATM   17  H6  UNL     1      25.644   4.595  51.842  1.00  0.00     0.160 HD
ENDROOT
BRANCH  11  18
HETATM   18  N2  UNL     1      24.056   5.990  51.897  1.00  0.00    -0.339 N 
HETATM   19  H7  UNL     1      24.451   6.019  52.881  1.00  0.00     0.167 HD
BRANCH  18  20
HETATM   20  C10 UNL     1      24.298   6.981  50.936  1.00  0.00     0.035 A 
HETATM   21  C11 UNL     1      23.214   7.678  50.486  1.00  0.00     0.029 A 
HETATM   22  C12 UNL     1      23.359   8.652  49.519  1.00  0.00     0.004 A 
HETATM   23  C13 UNL     1      24.633   8.857  49.060  1.00  0.00     0.019 A 
HETATM   24  C14 UNL     1      25.766   8.171  49.492  1.00  0.00     0.013 A 
HETATM   25 BR1  UNL     1      27.516   8.501  48.787  1.00  0.00    -0.051 Br
HETATM   26  C15 UNL     1      25.561   7.204  50.464  1.00  0.00     0.048 A 
ENDBRANCH  18  20
ENDBRANCH  11  18
TORSDOF 2
ENDMDL
MODEL 6
REMARK VINA RESULT:      -8.3      4.674      7.557
REMARK  2 active torsions:
REMARK  status: ('A' for Active; 'I' for Inactive)
REMARK    1  A    between atoms: C9_11  and  N2_12 
REMARK    2  A    between atoms: N2_12  and  C10_13 
ROOT
HETATM    1  F1  UNL     1      19.222  -0.141  51.168  1.00  0.00    -0.206 F 
HETATM    2  C1  UNL     1      20.368   0.251  51.772  1.00  0.00     0.117 A 
HETATM    3  C2  UNL     1      20.930  -0.400  52.844  1.00  0.00     0.045 A 
HETATM    4  C3  UNL     1      22.101   0.031  53.430  1.00  0.00     0.041 A 
HETATM    5  C4  UNL     1      22.755   1.164  52.934  1.00  0.00     0.086 A 
HETATM    6  C5  UNL     1      22.167   1.807  51.845  1.00  0.00    -0.004 A 
HETATM    7  C6  UNL     1      20.992   1.378  51.256  1.00  0.00     0.054 A 
HETATM    8  C7  UNL     1      22.664   3.020  51.153  1.00  0.00     0.161 C 
HETATM    9  N1  UNL     1      24.062   2.912  50.820  1.00  0.00    -0.379 N 
HETATM   10  C8  UNL     1      25.185   2.526  51.637  1.00  0.00     0.129 A 
HETATM   11  C9  UNL     1      26.319   2.875  50.947  1.00  0.00     0.160 A 
HETATM   12  N3  UNL     1      27.471   2.567  51.610  1.00  0.00    -0.222 NA
HETATM   13  C16 UNL     1      27.478   1.987  52.800  1.00  0.00     0.238 A 
HETATM   14  N4  UNL     1      26.332   1.665  53.424  1.00  0.00    -0.215 NA
HETATM   15  C17 UNL     1      25.119   1.911  52.889  1.00  0.00     0.202 A 
HETATM   16  O1  UNL     1      23.955   1.557  53.575  1.00  0.00    -0.289 OA
HETATM   17  H6  UNL     1      24.320   3.154  49.834  1.00  0.00     0.160 HD
ENDROOT
BRANCH  11  18
HETATM   18  N2  UNL     1      26.401   3.497  49.688  1.00  0.00    -0.339 N 
HETATM   19  H7  UNL     1      26.192   2.645  49.093  1.00  0.00     0.167 HD
BRANCH  18  20
HETATM   20  C10 UNL     1      26.653   4.770  49.158  1.00  0.00     0.035 A 
HETATM   21  C11 UNL     1      27.880   4.969  48.594  1.00  0.00     0.029 A 
HETATM   22  C12 UNL     1      28.221   6.201  48.073  1.00  0.00     0.004 A 
HETATM   23  C13 UNL     1      27.264   7.176  48.163  1.00  0.00     0.019 A 
HETATM   24  C14 UNL     1      26.000   7.016  48.727  1.00  0.00     0.013 A 
HETATM   25 BR1  UNL     1      24.718   8.437  48.835  1.00  0.00    -0.051 Br
HETATM   26  C15 UNL     1      25.712   5.759  49.234  1.00  0.00     0.048 A 
ENDBRANCH  18  20
ENDBRANCH  11  18
TORSDOF 2
ENDMDL
MODEL 7
REMARK VINA RESULT:      -8.2      5.745      8.246
REMARK  2 active torsions:
REMARK  status: ('A' for Active; 'I' for Inactive)
REMARK    1  A    between atoms: C9_11  and  N2_12 
REMARK    2  A    between atoms: N2_12  and  C10_13 
ROOT
HETATM    1  F1  UNL     1      27.032  -0.322  52.922  1.00  0.00    -0.206 F 
HETATM    2  C1  UNL     1      26.118   0.549  52.434  1.00  0.00     0.117 A 
HETATM    3  C2  UNL     1      24.780   0.508  52.743  1.00  0.00     0.045 A 
HETATM    4  C3  UNL     1      23.881   1.417  52.225  1.00  0.00     0.041 A 
HETATM    5  C4  UNL     1      24.324   2.420  51.358  1.00  0.00     0.086 A 
HETATM    6  C5  UNL     1      25.686   2.444  51.061  1.00  0.00    -0.004 A 
HETATM    7  C6  UNL     1      26.590   1.532  51.577  1.00  0.00     0.054 A 
HETATM    8  C7  UNL     1      26.387   3.399  50.170  1.00  0.00     0.161 C 
HETATM    9  N1  UNL     1      26.043   4.765  50.472  1.00  0.00    -0.379 N 
HETATM   10  C8  UNL     1      24.751   5.380  50.650  1.00  0.00     0.129 A 
HETATM   11  C9  UNL     1      24.948   6.738  50.616  1.00  0.00     0.160 A 
HETATM   12  N3  UNL     1      23.797   7.454  50.772  1.00  0.00    -0.222 NA
HETATM   13  C16 UNL     1      22.615   6.882  50.938  1.00  0.00     0.238 A 
HETATM   14  N4  UNL     1      22.487   5.545  50.966  1.00  0.00    -0.215 NA
HETATM   15  C17 UNL     1      23.538   4.711  50.824  1.00  0.00     0.202 A 
HETATM   16  O1  UNL     1      23.356   3.327  50.861  1.00  0.00    -0.289 OA
HETATM   17  H6  UNL     1      26.845   5.430  50.577  1.00  0.00     0.160 HD
ENDROOT
BRANCH  11  18
HETATM   18  N2  UNL     1      26.162   7.426  50.438  1.00  0.00    -0.339 N 
HETATM   19  H7  UNL     1      26.463   7.452  51.455  1.00  0.00     0.167 HD
BRANCH  18  20
HETATM   20  C10 UNL     1      26.914   7.979  49.393  1.00  0.00     0.035 A 
HETATM   21  C11 UNL     1      26.630   7.540  48.132  1.00  0.00     0.029 A 
HETATM   22  C12 UNL     1      27.343   8.012  47.048  1.00  0.00     0.004 A 
HETATM   23  C13 UNL     1      28.325   8.925  47.327  1.00  0.00     0.019 A 
HETATM   24  C14 UNL     1      28.647   9.401  48.596  1.00  0.00     0.013 A 
HETATM   25 BR1  UNL     1      30.050  10.666  48.911  1.00  0.00    -0.051 Br
HETATM   26  C15 UNL     1      27.899   8.893  49.647  1.00  0.00     0.048 A 
ENDBRANCH  18  20
ENDBRANCH  11  18
TORSDOF 2
ENDMDL
MODEL 8
REMARK VINA RESULT:      -7.9      5.193      7.915
REMARK  2 active torsions:
REMARK  status: ('A' for Active; 'I' for Inactive)
REMARK    1  A    between atoms: C9_11  and  N2_12 
REMARK    2  A    between atoms: N2_12  and  C10_13 
ROOT
HETATM    1  F1  UNL     1      20.968  -0.025  55.040  1.00  0.00    -0.206 F 
HETATM    2  C1  UNL     1      21.014   0.196  53.706  1.00  0.00     0.117 A 
HETATM    3  C2  UNL     1      19.962  -0.036  52.853  1.00  0.00     0.045 A 
HETATM    4  C3  UNL     1      20.051   0.205  51.499  1.00  0.00     0.041 A 
HETATM    5  C4  UNL     1      21.239   0.702  50.954  1.00  0.00     0.086 A 
HETATM    6  C5  UNL     1      22.292   0.932  51.837  1.00  0.00    -0.004 A 
HETATM    7  C6  UNL     1      22.207   0.690  53.197  1.00  0.00     0.054 A 
HETATM    8  C7  UNL     1      23.642   1.446  51.501  1.00  0.00     0.161 C 
HETATM    9  N1  UNL     1      23.575   2.626  50.677  1.00  0.00    -0.379 N 
HETATM   10  C8  UNL     1      22.826   2.876  49.470  1.00  0.00     0.129 A 
HETATM   11  C9  UNL     1      23.336   4.023  48.915  1.00  0.00     0.160 A 
HETATM   12  N3  UNL     1      22.716   4.382  47.754  1.00  0.00    -0.222 NA
HETATM   13  C16 UNL     1      21.721   3.684  47.228  1.00  0.00     0.238 A 
HETATM   14  N4  UNL     1      21.263   2.570  47.823  1.00  0.00    -0.215 NA
HETATM   15  C17 UNL     1      21.780   2.095  48.975  1.00  0.00     0.202 A 
HETATM   16  O1  UNL     1      21.270   0.933  49.556  1.00  0.00    -0.289 OA
HETATM   17  H6  UNL     1      24.161   3.437  50.985  1.00  0.00     0.160 HD
ENDROOT
BRANCH  11  18
HETATM   18  N2  UNL     1      24.390   4.817  49.401  1.00  0.00    -0.339 N 
HETATM   19  H7  UNL     1      24.005   4.988  50.374  1.00  0.00     0.167 HD
BRANCH  18  20
HETATM   20  C10 UNL     1      25.612   5.334  48.951  1.00  0.00     0.035 A 
HETATM   21  C11 UNL     1      26.699   4.513  49.047  1.00  0.00     0.029 A 
HETATM   22  C12 UNL     1      27.947   4.952  48.652  1.00  0.00     0.004 A 
HETATM   23  C13 UNL     1      28.008   6.234  48.173  1.00  0.00     0.019 A 
HETATM   24  C14 UNL     1      26.926   7.103  48.056  1.00  0.00     0.013 A 
HETATM   25 BR1  UNL     1      27.094   8.893  47.392  1.00  0.00    -0.051 Br
HETATM   26  C15 UNL     1      25.698   6.609  48.466  1.00  0.00     0.048 A 
ENDBRANCH  18  20
ENDBRANCH  11  18
TORSDOF 2
ENDMDL
MODEL 9
REMARK VINA RESULT:      -7.7      8.113     11.427
REMARK  2 active torsions:
REMARK  status: ('A' for Active; 'I' for Inactive)
REMARK    1  A    between atoms: C9_11  and  N2_12 
REMARK    2  A    between atoms: N2_12  and  C10_13 
ROOT
HETATM    1  F1  UNL     1      23.913   3.913  50.755  1.00  0.00    -0.206 F 
HETATM    2  C1  UNL     1      24.524   4.844  49.987  1.00  0.00     0.117 A 
HETATM    3  C2  UNL     1      23.919   6.001  49.558  1.00  0.00     0.045 A 
HETATM    4  C3  UNL     1      24.580   6.927  48.779  1.00  0.00     0.041 A 
HETATM    5  C4  UNL     1      25.907   6.702  48.401  1.00  0.00     0.086 A 
HETATM    6  C5  UNL     1      26.501   5.523  48.849  1.00  0.00    -0.004 A 
HETATM    7  C6  UNL     1      25.841   4.592  49.630  1.00  0.00     0.054 A 
HETATM    8  C7  UNL     1      27.884   5.063  48.576  1.00  0.00     0.161 C 
HETATM    9  N1  UNL     1      28.853   6.097  48.836  1.00  0.00    -0.379 N 
HETATM   10  C8  UNL     1      28.882   7.473  48.406  1.00  0.00     0.129 A 
HETATM   11  C9  UNL     1      30.147   7.943  48.657  1.00  0.00     0.160 A 
HETATM   12  N3  UNL     1      30.320   9.246  48.294  1.00  0.00    -0.222 NA
HETATM   13  C16 UNL     1      29.354   9.974  47.755  1.00  0.00     0.238 A 
HETATM   14  N4  UNL     1      28.133   9.457  47.537  1.00  0.00    -0.215 NA
HETATM   15  C17 UNL     1      27.818   8.182  47.846  1.00  0.00     0.202 A 
HETATM   16  O1  UNL     1      26.534   7.690  47.602  1.00  0.00    -0.289 OA
HETATM   17  H6  UNL     1      29.675   5.821  49.423  1.00  0.00     0.160 HD
ENDROOT
BRANCH  11  18
HETATM   18  N2  UNL     1      31.229   7.240  49.217  1.00  0.00    -0.339 N 
HETATM   19  H7  UNL     1      30.971   7.369  50.238  1.00  0.00     0.167 HD
BRANCH  18  20
HETATM   20  C10 UNL     1      32.362   6.536  48.788  1.00  0.00     0.035 A 
HETATM   21  C11 UNL     1      33.528   7.242  48.704  1.00  0.00     0.029 A 
HETATM   22  C12 UNL     1      34.686   6.632  48.263  1.00  0.00     0.004 A 
HETATM   23  C13 UNL     1      34.577   5.309  47.927  1.00  0.00     0.019 A 
HETATM   24  C14 UNL     1      33.410   4.552  47.998  1.00  0.00     0.013 A 
HETATM   25 BR1  UNL     1      33.332   2.706  47.491  1.00  0.00    -0.051 Br
HETATM   26  C15 UNL     1      32.279   5.215  48.448  1.00  0.00     0.048 A 
ENDBRANCH  18  20
ENDBRANCH  11  18
TORSDOF 2
ENDMDL
