MODEL 1
REMARK VINA RESULT:      -7.8      0.000      0.000
REMARK  2 active torsions:
REMARK  status: ('A' for Active; 'I' for Inactive)
REMARK    1  A    between atoms: O1_2  and  S1_3 
REMARK    2  A    between atoms: C5_9  and  N3_10 
ROOT
HETATM    1  S1  UNL     1      27.070  -0.102  53.569  1.00  0.00    -0.064 SA
HETATM    2  C2  UNL     1      27.113   1.331  52.779  1.00  0.00     0.094 C 
HETATM    3  C3  UNL     1      26.149   2.200  52.024  1.00  0.00     0.077 A 
HETATM    4  N1  UNL     1      26.967   2.694  51.083  1.00  0.00    -0.241 NA
HETATM    5  C4  UNL     1      26.690   3.521  50.068  1.00  0.00     0.236 A 
HETATM    6  N2  UNL     1      25.419   3.919  49.968  1.00  0.00    -0.224 NA
HETATM    7  C5  UNL     1      24.589   3.409  50.938  1.00  0.00     0.142 A 
HETATM    8  C14 UNL     1      24.818   2.529  52.039  1.00  0.00     0.041 A 
HETATM    9  C15 UNL     1      23.479   2.379  52.653  1.00  0.00     0.212 C 
HETATM   10  O2  UNL     1      22.840   1.184  52.649  1.00  0.00    -0.386 OA
HETATM   11  C16 UNL     1      23.147   0.190  53.554  1.00  0.00     0.168 C 
HETATM   12  C17 UNL     1      24.552   0.042  53.509  1.00  0.00     0.038 C 
HETATM   13  C18 UNL     1      25.448  -0.768  54.310  1.00  0.00     0.098 C 
ENDROOT
BRANCH   7  14
HETATM   14  N3  UNL     1      23.337   4.081  50.544  1.00  0.00    -0.330 N 
HETATM   15  C6  UNL     1      22.764   5.399  50.714  1.00  0.00     0.135 C 
HETATM   16  C7  UNL     1      21.289   5.137  50.815  1.00  0.00     0.061 C 
HETATM   17  C8  UNL     1      21.090   3.976  49.923  1.00  0.00    -0.030 A 
HETATM   18  C9  UNL     1      19.987   3.455  49.277  1.00  0.00     0.009 A 
HETATM   19  C13 UNL     1      22.319   3.380  49.793  1.00  0.00     0.042 A 
HETATM   20  C10 UNL     1      20.069   2.331  48.485  1.00  0.00     0.001 A 
HETATM   21  C11 UNL     1      21.299   1.709  48.337  1.00  0.00     0.002 A 
HETATM   22  C12 UNL     1      22.394   2.238  48.987  1.00  0.00     0.030 A 
ENDBRANCH   7  14
BRANCH   1  23
HETATM   23  O1  UNL     1      28.502  -0.734  54.298  1.00  0.00    -0.332 OA
HETATM   24  C1  UNL     1      29.658  -0.648  53.557  1.00  0.00     0.219 C 
ENDBRANCH   1  23
TORSDOF 2
ENDMDL
MODEL 2
REMARK VINA RESULT:      -7.8      2.928      6.690
REMARK  2 active torsions:
REMARK  status: ('A' for Active; 'I' for Inactive)
REMARK    1  A    between atoms: O1_2  and  S1_3 
REMARK    2  A    between atoms: C5_9  and  N3_10 
ROOT
HETATM    1  S1  UNL     1      19.611   0.637  51.198  1.00  0.00    -0.064 SA
HETATM    2  C2  UNL     1      21.113   0.916  50.612  1.00  0.00     0.094 C 
HETATM    3  C3  UNL     1      22.493   1.111  51.171  1.00  0.00     0.077 A 
HETATM    4  N1  UNL     1      22.975   2.007  50.297  1.00  0.00    -0.241 NA
HETATM    5  C4  UNL     1      24.168   2.613  50.275  1.00  0.00     0.236 A 
HETATM    6  N2  UNL     1      25.009   2.285  51.259  1.00  0.00    -0.224 NA
HETATM    7  C5  UNL     1      24.507   1.365  52.149  1.00  0.00     0.142 A 
HETATM    8  C14 UNL     1      23.252   0.686  52.230  1.00  0.00     0.041 A 
HETATM    9  C15 UNL     1      23.378  -0.139  53.453  1.00  0.00     0.212 C 
HETATM   10  O2  UNL     1      22.602   0.099  54.538  1.00  0.00    -0.386 OA
HETATM   11  C16 UNL     1      21.298  -0.346  54.613  1.00  0.00     0.168 C 
HETATM   12  C17 UNL     1      20.677   0.066  53.412  1.00  0.00     0.038 C 
HETATM   13  C18 UNL     1      19.354  -0.205  52.885  1.00  0.00     0.098 C 
ENDROOT
BRANCH   7  14
HETATM   14  N3  UNL     1      25.686   1.224  53.023  1.00  0.00    -0.330 N 
HETATM   15  C6  UNL     1      26.312   2.011  54.063  1.00  0.00     0.135 C 
HETATM   16  C7  UNL     1      27.775   1.711  53.907  1.00  0.00     0.061 C 
HETATM   17  C8  UNL     1      27.785   0.302  53.459  1.00  0.00    -0.030 A 
HETATM   18  C9  UNL     1      28.743  -0.691  53.476  1.00  0.00     0.009 A 
HETATM   19  C13 UNL     1      26.538   0.058  52.942  1.00  0.00     0.042 A 
HETATM   20  C10 UNL     1      28.496  -1.952  52.982  1.00  0.00     0.001 A 
HETATM   21  C11 UNL     1      27.244  -2.225  52.452  1.00  0.00     0.002 A 
HETATM   22  C12 UNL     1      26.293  -1.226  52.441  1.00  0.00     0.030 A 
ENDBRANCH   7  14
BRANCH   1  23
HETATM   23  O1  UNL     1      18.270   0.499  50.118  1.00  0.00    -0.332 OA
HETATM   24  C1  UNL     1      17.159  -0.156  50.597  1.00  0.00     0.219 C 
ENDBRANCH   1  23
TORSDOF 2
ENDMDL
MODEL 3
REMARK VINA RESULT:      -7.6      1.011      2.207
REMARK  2 active torsions:
REMARK  status: ('A' for Active; 'I' for Inactive)
REMARK    1  A    between atoms: O1_2  and  S1_3 
REMARK    2  A    between atoms: C5_9  and  N3_10 
ROOT
HETATM    1  S1  UNL     1      27.268   0.379  53.631  1.00  0.00    -0.064 SA
HETATM    2  C2  UNL     1      27.133   1.700  52.674  1.00  0.00     0.094 C 
HETATM    3  C3  UNL     1      26.111   2.280  51.738  1.00  0.00     0.077 A 
HETATM    4  N1  UNL     1      26.920   2.818  50.814  1.00  0.00    -0.241 NA
HETATM    5  C4  UNL     1      26.606   3.462  49.683  1.00  0.00     0.236 A 
HETATM    6  N2  UNL     1      25.301   3.594  49.429  1.00  0.00    -0.224 NA
HETATM    7  C5  UNL     1      24.480   3.041  50.383  1.00  0.00     0.142 A 
HETATM    8  C14 UNL     1      24.749   2.345  51.602  1.00  0.00     0.041 A 
HETATM    9  C15 UNL     1      23.403   2.006  52.116  1.00  0.00     0.212 C 
HETATM   10  O2  UNL     1      22.995   0.717  52.208  1.00  0.00    -0.386 OA
HETATM   11  C16 UNL     1      23.381  -0.096  53.254  1.00  0.00     0.168 C 
HETATM   12  C17 UNL     1      24.787   0.027  53.345  1.00  0.00     0.038 C 
HETATM   13  C18 UNL     1      25.726  -0.504  54.312  1.00  0.00     0.098 C 
ENDROOT
BRANCH   7  14
HETATM   14  N3  UNL     1      23.175   3.413  49.806  1.00  0.00    -0.330 N 
HETATM   15  C6  UNL     1      22.161   2.752  49.013  1.00  0.00     0.135 C 
HETATM   16  C7  UNL     1      21.603   3.853  48.158  1.00  0.00     0.061 C 
HETATM   17  C8  UNL     1      21.692   5.040  49.034  1.00  0.00    -0.030 A 
HETATM   18  C9  UNL     1      21.052   6.263  49.041  1.00  0.00     0.009 A 
HETATM   19  C13 UNL     1      22.631   4.740  49.988  1.00  0.00     0.042 A 
HETATM   20  C10 UNL     1      21.324   7.224  49.989  1.00  0.00     0.001 A 
HETATM   21  C11 UNL     1      22.270   6.946  50.964  1.00  0.00     0.002 A 
HETATM   22  C12 UNL     1      22.903   5.721  50.949  1.00  0.00     0.030 A 
ENDBRANCH   7  14
BRANCH   1  23
HETATM   23  O1  UNL     1      28.707   0.117  54.549  1.00  0.00    -0.332 OA
HETATM   24  C1  UNL     1      29.732  -0.544  53.912  1.00  0.00     0.219 C 
ENDBRANCH   1  23
TORSDOF 2
ENDMDL
MODEL 4
REMARK VINA RESULT:      -7.2      2.907      4.053
REMARK  2 active torsions:
REMARK  status: ('A' for Active; 'I' for Inactive)
REMARK    1  A    between atoms: O1_2  and  S1_3 
REMARK    2  A    between atoms: C5_9  and  N3_10 
ROOT
HETATM    1  S1  UNL     1      26.111  -0.130  53.279  1.00  0.00    -0.064 SA
HETATM    2  C2  UNL     1      24.526  -0.489  53.477  1.00  0.00     0.094 C 
HETATM    3  C3  UNL     1      23.206   0.171  53.198  1.00  0.00     0.077 A 
HETATM    4  N1  UNL     1      22.499  -0.266  54.250  1.00  0.00    -0.241 NA
HETATM    5  C4  UNL     1      21.234   0.006  54.594  1.00  0.00     0.236 A 
HETATM    6  N2  UNL     1      20.571   0.830  53.779  1.00  0.00    -0.224 NA
HETATM    7  C5  UNL     1      21.304   1.271  52.702  1.00  0.00     0.142 A 
HETATM    8  C14 UNL     1      22.646   1.022  52.281  1.00  0.00     0.041 A 
HETATM    9  C15 UNL     1      22.786   1.839  51.054  1.00  0.00     0.212 C 
HETATM   10  O2  UNL     1      23.639   2.892  51.011  1.00  0.00    -0.386 OA
HETATM   11  C16 UNL     1      24.994   2.725  50.815  1.00  0.00     0.168 C 
HETATM   12  C17 UNL     1      25.404   1.745  51.747  1.00  0.00     0.038 C 
HETATM   13  C18 UNL     1      26.683   1.089  51.935  1.00  0.00     0.098 C 
ENDROOT
BRANCH   7  14
HETATM   14  N3  UNL     1      20.268   2.082  52.037  1.00  0.00    -0.330 N 
HETATM   15  C6  UNL     1      20.078   3.484  51.731  1.00  0.00     0.135 C 
HETATM   16  C7  UNL     1      18.591   3.672  51.825  1.00  0.00     0.061 C 
HETATM   17  C8  UNL     1      18.056   2.378  51.353  1.00  0.00    -0.030 A 
HETATM   18  C9  UNL     1      16.833   1.985  50.848  1.00  0.00     0.009 A 
HETATM   19  C13 UNL     1      19.073   1.469  51.498  1.00  0.00     0.042 A 
HETATM   20  C10 UNL     1      16.581   0.684  50.475  1.00  0.00     0.001 A 
HETATM   21  C11 UNL     1      17.592  -0.255  50.612  1.00  0.00     0.002 A 
HETATM   22  C12 UNL     1      18.811   0.148  51.117  1.00  0.00     0.030 A 
ENDBRANCH   7  14
BRANCH   1  23
HETATM   23  O1  UNL     1      27.323  -1.247  53.796  1.00  0.00    -0.332 OA
HETATM   24  C1  UNL     1      28.617  -0.966  53.422  1.00  0.00     0.219 C 
ENDBRANCH   1  23
TORSDOF 2
ENDMDL
MODEL 5
REMARK VINA RESULT:      -7.1      3.360      6.795
REMARK  2 active torsions:
REMARK  status: ('A' for Active; 'I' for Inactive)
REMARK    1  A    between atoms: O1_2  and  S1_3 
REMARK    2  A    between atoms: C5_9  and  N3_10 
ROOT
HETATM    1  S1  UNL     1      22.719   6.469  47.968  1.00  0.00    -0.064 SA
HETATM    2  C2  UNL     1      23.423   6.078  49.393  1.00  0.00     0.094 C 
HETATM    3  C3  UNL     1      23.444   4.899  50.322  1.00  0.00     0.077 A 
HETATM    4  N1  UNL     1      23.519   5.533  51.502  1.00  0.00    -0.241 NA
HETATM    5  C4  UNL     1      23.537   5.023  52.739  1.00  0.00     0.236 A 
HETATM    6  N2  UNL     1      23.472   3.691  52.823  1.00  0.00    -0.224 NA
HETATM    7  C5  UNL     1      23.397   3.051  51.609  1.00  0.00     0.142 A 
HETATM    8  C14 UNL     1      23.373   3.532  50.264  1.00  0.00     0.041 A 
HETATM    9  C15 UNL     1      23.255   2.299  49.453  1.00  0.00     0.212 C 
HETATM   10  O2  UNL     1      22.144   2.053  48.716  1.00  0.00    -0.386 OA
HETATM   11  C16 UNL     1      21.941   2.643  47.485  1.00  0.00     0.168 C 
HETATM   12  C17 UNL     1      22.157   4.027  47.677  1.00  0.00     0.038 C 
HETATM   13  C18 UNL     1      22.191   5.123  46.730  1.00  0.00     0.098 C 
ENDROOT
BRANCH   7  14
HETATM   14  N3  UNL     1      23.390   1.655  52.086  1.00  0.00    -0.330 N 
HETATM   15  C6  UNL     1      22.381   0.671  52.414  1.00  0.00     0.135 C 
HETATM   16  C7  UNL     1      23.002  -0.119  53.529  1.00  0.00     0.061 C 
HETATM   17  C8  UNL     1      24.440  -0.114  53.188  1.00  0.00    -0.030 A 
HETATM   18  C9  UNL     1      25.503  -0.916  53.549  1.00  0.00     0.009 A 
HETATM   19  C13 UNL     1      24.626   0.949  52.341  1.00  0.00     0.042 A 
HETATM   20  C10 UNL     1      26.780  -0.691  53.083  1.00  0.00     0.001 A 
HETATM   21  C11 UNL     1      26.995   0.377  52.226  1.00  0.00     0.002 A 
HETATM   22  C12 UNL     1      25.926   1.173  51.871  1.00  0.00     0.030 A 
ENDBRANCH   7  14
BRANCH   1  23
HETATM   23  O1  UNL     1      22.989   8.022  47.264  1.00  0.00    -0.332 OA
HETATM   24  C1  UNL     1      23.462   9.004  48.104  1.00  0.00     0.219 C 
ENDBRANCH   1  23
TORSDOF 2
ENDMDL
MODEL 6
REMARK VINA RESULT:      -6.9      3.551      6.064
REMARK  2 active torsions:
REMARK  status: ('A' for Active; 'I' for Inactive)
REMARK    1  A    between atoms: O1_2  and  S1_3 
REMARK    2  A    between atoms: C5_9  and  N3_10 
ROOT
HETATM    1  S1  UNL     1      24.200   5.862  49.019  1.00  0.00    -0.064 SA
HETATM    2  C2  UNL     1      23.160   4.694  48.535  1.00  0.00     0.094 C 
HETATM    3  C3  UNL     1      22.489   3.498  49.146  1.00  0.00     0.077 A 
HETATM    4  N1  UNL     1      22.479   2.671  48.090  1.00  0.00    -0.241 NA
HETATM    5  C4  UNL     1      22.035   1.411  48.004  1.00  0.00     0.236 A 
HETATM    6  N2  UNL     1      21.524   0.893  49.124  1.00  0.00    -0.224 NA
HETATM    7  C5  UNL     1      21.536   1.749  50.200  1.00  0.00     0.142 A 
HETATM    8  C14 UNL     1      21.993   3.093  50.358  1.00  0.00     0.041 A 
HETATM    9  C15 UNL     1      21.728   3.388  51.785  1.00  0.00     0.212 C 
HETATM   10  O2  UNL     1      22.745   3.610  52.652  1.00  0.00    -0.386 OA
HETATM   11  C16 UNL     1      23.387   4.828  52.726  1.00  0.00     0.168 C 
HETATM   12  C17 UNL     1      23.736   5.166  51.398  1.00  0.00     0.038 C 
HETATM   13  C18 UNL     1      24.327   6.369  50.848  1.00  0.00     0.098 C 
ENDROOT
BRANCH   7  14
HETATM   14  N3  UNL     1      20.879   0.879  51.192  1.00  0.00    -0.330 N 
HETATM   15  C6  UNL     1      19.536   0.392  51.423  1.00  0.00     0.135 C 
HETATM   16  C7  UNL     1      19.444   0.293  52.919  1.00  0.00     0.061 C 
HETATM   17  C8  UNL     1      20.817  -0.083  53.317  1.00  0.00    -0.030 A 
HETATM   18  C9  UNL     1      21.348  -0.675  54.445  1.00  0.00     0.009 A 
HETATM   19  C13 UNL     1      21.630   0.283  52.275  1.00  0.00     0.042 A 
HETATM   20  C10 UNL     1      22.697  -0.920  54.574  1.00  0.00     0.001 A 
HETATM   21  C11 UNL     1      23.541  -0.559  53.535  1.00  0.00     0.002 A 
HETATM   22  C12 UNL     1      23.000   0.031  52.412  1.00  0.00     0.030 A 
ENDBRANCH   7  14
BRANCH   1  23
HETATM   23  O1  UNL     1      24.728   7.069  47.902  1.00  0.00    -0.332 OA
HETATM   24  C1  UNL     1      25.830   7.806  48.269  1.00  0.00     0.219 C 
ENDBRANCH   1  23
TORSDOF 2
ENDMDL
MODEL 7
REMARK VINA RESULT:      -6.9      4.078      7.389
REMARK  2 active torsions:
REMARK  status: ('A' for Active; 'I' for Inactive)
REMARK    1  A    between atoms: O1_2  and  S1_3 
REMARK    2  A    between atoms: C5_9  and  N3_10 
ROOT
HETATM    1  S1  UNL     1      17.416  -0.882  51.907  1.00  0.00    -0.064 SA
HETATM    2  C2  UNL     1      18.525  -0.715  53.099  1.00  0.00     0.094 C 
HETATM    3  C3  UNL     1      19.946  -0.245  53.221  1.00  0.00     0.077 A 
HETATM    4  N1  UNL     1      20.387  -1.079  54.175  1.00  0.00    -0.241 NA
HETATM    5  C4  UNL     1      21.609  -1.186  54.710  1.00  0.00     0.236 A 
HETATM    6  N2  UNL     1      22.531  -0.345  54.233  1.00  0.00    -0.224 NA
HETATM    7  C5  UNL     1      22.070   0.506  53.257  1.00  0.00     0.142 A 
HETATM    8  C14 UNL     1      20.789   0.670  52.646  1.00  0.00     0.041 A 
HETATM    9  C15 UNL     1      21.008   1.748  51.655  1.00  0.00     0.212 C 
HETATM   10  O2  UNL     1      20.909   1.504  50.325  1.00  0.00    -0.386 OA
HETATM   11  C16 UNL     1      19.688   1.438  49.686  1.00  0.00     0.168 C 
HETATM   12  C17 UNL     1      18.895   0.552  50.451  1.00  0.00     0.038 C 
HETATM   13  C18 UNL     1      17.500   0.180  50.330  1.00  0.00     0.098 C 
ENDROOT
BRANCH   7  14
HETATM   14  N3  UNL     1      23.304   1.278  53.023  1.00  0.00    -0.330 N 
HETATM   15  C6  UNL     1      23.655   2.678  52.923  1.00  0.00     0.135 C 
HETATM   16  C7  UNL     1      24.776   2.696  51.925  1.00  0.00     0.061 C 
HETATM   17  C8  UNL     1      25.476   1.419  52.180  1.00  0.00    -0.030 A 
HETATM   18  C9  UNL     1      26.748   0.963  51.901  1.00  0.00     0.009 A 
HETATM   19  C13 UNL     1      24.573   0.612  52.824  1.00  0.00     0.042 A 
HETATM   20  C10 UNL     1      27.164  -0.302  52.251  1.00  0.00     0.001 A 
HETATM   21  C11 UNL     1      26.270  -1.139  52.903  1.00  0.00     0.002 A 
HETATM   22  C12 UNL     1      25.001  -0.674  53.177  1.00  0.00     0.030 A 
ENDBRANCH   7  14
BRANCH   1  23
HETATM   23  O1  UNL     1      15.848  -1.512  52.264  1.00  0.00    -0.332 OA
HETATM   24  C1  UNL     1      14.839  -0.592  52.432  1.00  0.00     0.219 C 
ENDBRANCH   1  23
TORSDOF 2
ENDMDL
MODEL 8
REMARK VINA RESULT:      -6.9      3.486      7.121
REMARK  2 active torsions:
REMARK  status: ('A' for Active; 'I' for Inactive)
REMARK    1  A    between atoms: O1_2  and  S1_3 
REMARK    2  A    between atoms: C5_9  and  N3_10 
ROOT
HETATM    1  S1  UNL     1      21.272   6.727  48.641  1.00  0.00    -0.064 SA
HETATM    2  C2  UNL     1      20.925   5.152  48.921  1.00  0.00     0.094 C 
HETATM    3  C3  UNL     1      21.547   4.005  49.663  1.00  0.00     0.077 A 
HETATM    4  N1  UNL     1      21.208   2.991  48.852  1.00  0.00    -0.241 NA
HETATM    5  C4  UNL     1      21.504   1.690  48.952  1.00  0.00     0.236 A 
HETATM    6  N2  UNL     1      22.242   1.337  50.008  1.00  0.00    -0.224 NA
HETATM    7  C5  UNL     1      22.584   2.382  50.833  1.00  0.00     0.142 A 
HETATM    8  C14 UNL     1      22.304   3.782  50.784  1.00  0.00     0.041 A 
HETATM    9  C15 UNL     1      23.001   4.321  51.974  1.00  0.00     0.212 C 
HETATM   10  O2  UNL     1      24.050   5.169  51.842  1.00  0.00    -0.386 OA
HETATM   11  C16 UNL     1      23.873   6.513  51.585  1.00  0.00     0.168 C 
HETATM   12  C17 UNL     1      22.989   6.585  50.484  1.00  0.00     0.038 C 
HETATM   13  C18 UNL     1      22.361   7.723  49.843  1.00  0.00     0.098 C 
ENDROOT
BRANCH   7  14
HETATM   14  N3  UNL     1      23.321   1.628  51.864  1.00  0.00    -0.330 N 
HETATM   15  C6  UNL     1      24.712   1.411  52.200  1.00  0.00     0.135 C 
HETATM   16  C7  UNL     1      24.733   0.011  52.744  1.00  0.00     0.061 C 
HETATM   17  C8  UNL     1      23.423  -0.110  53.418  1.00  0.00    -0.030 A 
HETATM   18  C9  UNL     1      22.936  -0.948  54.400  1.00  0.00     0.009 A 
HETATM   19  C13 UNL     1      22.621   0.857  52.868  1.00  0.00     0.042 A 
HETATM   20  C10 UNL     1      21.642  -0.855  54.864  1.00  0.00     0.001 A 
HETATM   21  C11 UNL     1      20.811   0.114  54.324  1.00  0.00     0.002 A 
HETATM   22  C12 UNL     1      21.307   0.947  53.344  1.00  0.00     0.030 A 
ENDBRANCH   7  14
BRANCH   1  23
HETATM   23  O1  UNL     1      20.218   7.687  47.667  1.00  0.00    -0.332 OA
HETATM   24  C1  UNL     1      19.303   8.467  48.336  1.00  0.00     0.219 C 
ENDBRANCH   1  23
TORSDOF 2
ENDMDL
MODEL 9
REMARK VINA RESULT:      -6.8      2.007      3.597
REMARK  2 active torsions:
REMARK  status: ('A' for Active; 'I' for Inactive)
REMARK    1  A    between atoms: O1_2  and  S1_3 
REMARK    2  A    between atoms: C5_9  and  N3_10 
ROOT
HETATM    1  S1  UNL     1      26.745   0.717  53.905  1.00  0.00    -0.064 SA
HETATM    2  C2  UNL     1      25.230   0.133  53.698  1.00  0.00     0.094 C 
HETATM    3  C3  UNL     1      23.983   0.545  52.970  1.00  0.00     0.077 A 
HETATM    4  N1  UNL     1      23.054   0.106  53.831  1.00  0.00    -0.241 NA
HETATM    5  C4  UNL     1      21.721   0.205  53.764  1.00  0.00     0.236 A 
HETATM    6  N2  UNL     1      21.235   0.830  52.689  1.00  0.00    -0.224 NA
HETATM    7  C5  UNL     1      22.194   1.276  51.811  1.00  0.00     0.142 A 
HETATM    8  C14 UNL     1      23.621   1.203  51.824  1.00  0.00     0.041 A 
HETATM    9  C15 UNL     1      24.019   1.909  50.584  1.00  0.00     0.212 C 
HETATM   10  O2  UNL     1      24.709   3.075  50.636  1.00  0.00    -0.386 OA
HETATM   11  C16 UNL     1      26.071   3.106  50.854  1.00  0.00     0.168 C 
HETATM   12  C17 UNL     1      26.302   2.298  51.991  1.00  0.00     0.038 C 
HETATM   13  C18 UNL     1      27.537   1.875  52.620  1.00  0.00     0.098 C 
ENDROOT
BRANCH   7  14
HETATM   14  N3  UNL     1      21.312   1.844  50.775  1.00  0.00    -0.330 N 
HETATM   15  C6  UNL     1      20.427   1.318  49.758  1.00  0.00     0.135 C 
HETATM   16  C7  UNL     1      20.532   2.316  48.642  1.00  0.00     0.061 C 
HETATM   17  C8  UNL     1      20.727   3.598  49.352  1.00  0.00    -0.030 A 
HETATM   18  C9  UNL     1      20.540   4.918  48.995  1.00  0.00     0.009 A 
HETATM   19  C13 UNL     1      21.191   3.274  50.602  1.00  0.00     0.042 A 
HETATM   20  C10 UNL     1      20.805   5.954  49.863  1.00  0.00     0.001 A 
HETATM   21  C11 UNL     1      21.276   5.654  51.132  1.00  0.00     0.002 A 
HETATM   22  C12 UNL     1      21.459   4.332  51.479  1.00  0.00     0.030 A 
ENDBRANCH   7  14
BRANCH   1  23
HETATM   23  O1  UNL     1      27.876  -0.137  54.892  1.00  0.00    -0.332 OA
HETATM   24  C1  UNL     1      29.067  -0.487  54.301  1.00  0.00     0.219 C 
ENDBRANCH   1  23
TORSDOF 2
ENDMDL
