MODEL 1
REMARK VINA RESULT:      -9.4      0.000      0.000
REMARK  5 active torsions:
REMARK  status: ('A' for Active; 'I' for Inactive)
REMARK       I    between atoms: C1_2  and  N1_3 
REMARK    1  A    between atoms: C1_2  and  C18_24 
REMARK    2  A    between atoms: N1_3  and  C2_4 
REMARK    3  A    between atoms: C6_8  and  N2_9 
REMARK    4  A    between atoms: N2_9  and  C7_10 
REMARK    5  A    between atoms: C11_15  and  C12_16 
ROOT
HETATM    1  C2  UNL     1      23.503  -0.285  53.619  1.00  0.00     0.037 A 
HETATM    2  C3  UNL     1      22.680  -0.835  54.580  1.00  0.00     0.029 A 
HETATM    3  C4  UNL     1      21.381  -0.433  54.613  1.00  0.00     0.004 A 
HETATM    4  C5  UNL     1      20.930   0.497  53.701  1.00  0.00     0.029 A 
HETATM    5  C6  UNL     1      21.704   1.078  52.723  1.00  0.00     0.032 A 
HETATM    6  C17 UNL     1      23.010   0.643  52.727  1.00  0.00     0.058 A 
ENDROOT
BRANCH   5   7
HETATM    7  N2  UNL     1      21.228   2.030  51.789  1.00  0.00    -0.363 N 
HETATM    8  H5  UNL     1      20.674   1.628  50.974  1.00  0.00     0.162 HD
BRANCH   7   9
HETATM    9  C7  UNL     1      21.441   3.455  51.876  1.00  0.00     0.248 C 
HETATM   10  C8  UNL     1      20.309   4.221  51.239  1.00  0.00     0.137 C 
HETATM   11  N3  UNL     1      19.976   4.404  50.004  1.00  0.00    -0.273 NA
HETATM   12  C9  UNL     1      20.714   3.847  48.892  1.00  0.00     0.118 C 
HETATM   13  C10 UNL     1      22.036   3.600  48.847  1.00  0.00     0.051 C 
HETATM   14  C11 UNL     1      22.990   3.850  49.924  1.00  0.00     0.067 C 
HETATM   15  N5  UNL     1      22.679   3.773  51.195  1.00  0.00    -0.258 NA
BRANCH  14  16
HETATM   16  C12 UNL     1      24.372   4.197  49.583  1.00  0.00     0.010 A 
HETATM   17  C13 UNL     1      25.463   3.368  49.707  1.00  0.00     0.017 A 
HETATM   18  C14 UNL     1      26.721   3.819  49.349  1.00  0.00     0.020 A 
HETATM   19  C15 UNL     1      26.926   5.099  48.861  1.00  0.00     0.116 A 
HETATM   20  N4  UNL     1      25.828   5.895  48.749  1.00  0.00    -0.272 NA
HETATM   21  C16 UNL     1      24.600   5.466  49.094  1.00  0.00     0.130 A 
ENDBRANCH  14  16
ENDBRANCH   7   9
ENDBRANCH   5   7
BRANCH   1  22
HETATM   22  N1  UNL     1      24.891  -0.648  53.505  1.00  0.00    -0.323 N 
HETATM   23  C1  UNL     1      25.984   0.215  53.776  1.00  0.00     0.256 C 
HETATM   24  O1  UNL     1      25.851   1.411  54.153  1.00  0.00    -0.267 OA
HETATM   25  H1  UNL     1      25.009  -1.622  53.197  1.00  0.00     0.169 HD
BRANCH  23  26
HETATM   26  C18 UNL     1      27.361  -0.248  53.630  1.00  0.00     0.032 A 
HETATM   27  C19 UNL     1      28.398   0.616  53.911  1.00  0.00     0.017 A 
HETATM   28  C20 UNL     1      29.746   0.258  53.798  1.00  0.00     0.001 A 
HETATM   29  C21 UNL     1      30.067  -1.020  53.386  1.00  0.00     0.000 A 
HETATM   30  C22 UNL     1      29.023  -1.903  53.098  1.00  0.00     0.001 A 
HETATM   31  C23 UNL     1      27.721  -1.514  53.221  1.00  0.00     0.017 A 
ENDBRANCH  23  26
ENDBRANCH   1  22
TORSDOF 5
ENDMDL
MODEL 2
REMARK VINA RESULT:      -9.3      4.043      7.713
REMARK  5 active torsions:
REMARK  status: ('A' for Active; 'I' for Inactive)
REMARK       I    between atoms: C1_2  and  N1_3 
REMARK    1  A    between atoms: C1_2  and  C18_24 
REMARK    2  A    between atoms: N1_3  and  C2_4 
REMARK    3  A    between atoms: C6_8  and  N2_9 
REMARK    4  A    between atoms: N2_9  and  C7_10 
REMARK    5  A    between atoms: C11_15  and  C12_16 
ROOT
HETATM    1  C2  UNL     1      28.527   5.663  48.191  1.00  0.00     0.037 A 
HETATM    2  C3  UNL     1      28.166   6.932  47.785  1.00  0.00     0.029 A 
HETATM    3  C4  UNL     1      26.959   7.411  48.186  1.00  0.00     0.004 A 
HETATM    4  C5  UNL     1      26.140   6.629  48.974  1.00  0.00     0.029 A 
HETATM    5  C6  UNL     1      26.446   5.360  49.408  1.00  0.00     0.032 A 
HETATM    6  C17 UNL     1      27.677   4.916  48.979  1.00  0.00     0.058 A 
ENDROOT
BRANCH   5   7
HETATM    7  N2  UNL     1      25.599   4.568  50.220  1.00  0.00    -0.363 N 
HETATM    8  H5  UNL     1      25.053   5.102  50.962  1.00  0.00     0.162 HD
BRANCH   7   9
HETATM    9  C7  UNL     1      25.437   3.139  50.104  1.00  0.00     0.248 C 
HETATM   10  C8  UNL     1      23.988   2.738  50.200  1.00  0.00     0.137 C 
HETATM   11  N3  UNL     1      23.168   2.691  51.198  1.00  0.00    -0.273 NA
HETATM   12  C9  UNL     1      23.539   3.052  52.548  1.00  0.00     0.118 C 
HETATM   13  C10 UNL     1      24.756   2.922  53.110  1.00  0.00     0.051 C 
HETATM   14  C11 UNL     1      25.946   2.384  52.457  1.00  0.00     0.067 C 
HETATM   15  N5  UNL     1      26.182   2.508  51.173  1.00  0.00    -0.258 NA
BRANCH  14  16
HETATM   16  C12 UNL     1      26.941   1.675  53.266  1.00  0.00     0.010 A 
HETATM   17  C13 UNL     1      28.260   2.036  53.414  1.00  0.00     0.017 A 
HETATM   18  C14 UNL     1      29.101   1.277  54.209  1.00  0.00     0.020 A 
HETATM   19  C15 UNL     1      28.654   0.147  54.873  1.00  0.00     0.116 A 
HETATM   20  N4  UNL     1      27.345  -0.184  54.707  1.00  0.00    -0.272 NA
HETATM   21  C16 UNL     1      26.519   0.547  53.936  1.00  0.00     0.130 A 
ENDBRANCH  14  16
ENDBRANCH   7   9
ENDBRANCH   5   7
BRANCH   1  22
HETATM   22  N1  UNL     1      29.784   5.071  47.818  1.00  0.00    -0.323 N 
HETATM   23  C1  UNL     1      31.045   5.422  48.365  1.00  0.00     0.256 C 
HETATM   24  O1  UNL     1      31.199   6.305  49.251  1.00  0.00    -0.267 OA
HETATM   25  H1  UNL     1      29.667   4.349  47.094  1.00  0.00     0.169 HD
BRANCH  23  26
HETATM   26  C18 UNL     1      32.267   4.760  47.919  1.00  0.00     0.032 A 
HETATM   27  C19 UNL     1      33.490   5.278  48.290  1.00  0.00     0.017 A 
HETATM   28  C20 UNL     1      34.711   4.710  47.909  1.00  0.00     0.001 A 
HETATM   29  C21 UNL     1      34.705   3.575  47.122  1.00  0.00     0.000 A 
HETATM   30  C22 UNL     1      33.470   3.043  46.741  1.00  0.00     0.001 A 
HETATM   31  C23 UNL     1      32.302   3.627  47.135  1.00  0.00     0.017 A 
ENDBRANCH  23  26
ENDBRANCH   1  22
TORSDOF 5
ENDMDL
MODEL 3
REMARK VINA RESULT:      -9.3      1.668      5.118
REMARK  5 active torsions:
REMARK  status: ('A' for Active; 'I' for Inactive)
REMARK       I    between atoms: C1_2  and  N1_3 
REMARK    1  A    between atoms: C1_2  and  C18_24 
REMARK    2  A    between atoms: N1_3  and  C2_4 
REMARK    3  A    between atoms: C6_8  and  N2_9 
REMARK    4  A    between atoms: N2_9  and  C7_10 
REMARK    5  A    between atoms: C11_15  and  C12_16 
ROOT
HETATM    1  C2  UNL     1      25.499   3.200  50.246  1.00  0.00     0.037 A 
HETATM    2  C3  UNL     1      25.915   4.389  49.685  1.00  0.00     0.029 A 
HETATM    3  C4  UNL     1      24.972   5.202  49.139  1.00  0.00     0.004 A 
HETATM    4  C5  UNL     1      23.647   4.821  49.160  1.00  0.00     0.029 A 
HETATM    5  C6  UNL     1      23.174   3.649  49.703  1.00  0.00     0.032 A 
HETATM    6  C17 UNL     1      24.163   2.858  50.244  1.00  0.00     0.058 A 
ENDROOT
BRANCH   5   7
HETATM    7  N2  UNL     1      21.810   3.270  49.722  1.00  0.00    -0.363 N 
HETATM    8  H5  UNL     1      21.117   4.074  49.808  1.00  0.00     0.162 HD
BRANCH   7   9
HETATM    9  C7  UNL     1      21.325   1.914  49.634  1.00  0.00     0.248 C 
HETATM   10  C8  UNL     1      19.826   1.875  49.480  1.00  0.00     0.137 C 
HETATM   11  N3  UNL     1      18.864   2.103  50.312  1.00  0.00    -0.273 NA
HETATM   12  C9  UNL     1      19.081   2.476  51.693  1.00  0.00     0.118 C 
HETATM   13  C10 UNL     1      20.117   2.110  52.471  1.00  0.00     0.051 C 
HETATM   14  C11 UNL     1      21.230   1.256  52.068  1.00  0.00     0.067 C 
HETATM   15  N5  UNL     1      21.702   1.215  50.844  1.00  0.00    -0.258 NA
BRANCH  14  16
HETATM   16  C12 UNL     1      21.871   0.401  53.071  1.00  0.00     0.010 A 
HETATM   17  C13 UNL     1      23.212   0.103  53.133  1.00  0.00     0.017 A 
HETATM   18  C14 UNL     1      23.693  -0.722  54.135  1.00  0.00     0.020 A 
HETATM   19  C15 UNL     1      22.857  -1.267  55.095  1.00  0.00     0.116 A 
HETATM   20  N4  UNL     1      21.536  -0.953  55.007  1.00  0.00    -0.272 NA
HETATM   21  C16 UNL     1      21.058  -0.152  54.037  1.00  0.00     0.130 A 
ENDBRANCH  14  16
ENDBRANCH   7   9
ENDBRANCH   5   7
BRANCH   1  22
HETATM   22  N1  UNL     1      26.423   2.275  50.848  1.00  0.00    -0.323 N 
HETATM   23  C1  UNL     1      26.496   1.982  52.234  1.00  0.00     0.256 C 
HETATM   24  O1  UNL     1      25.746   2.510  53.099  1.00  0.00    -0.267 OA
HETATM   25  H1  UNL     1      27.040   1.840  50.149  1.00  0.00     0.169 HD
BRANCH  23  26
HETATM   26  C18 UNL     1      27.472   1.026  52.749  1.00  0.00     0.032 A 
HETATM   27  C19 UNL     1      27.214  -0.325  52.645  1.00  0.00     0.017 A 
HETATM   28  C20 UNL     1      28.091  -1.311  53.111  1.00  0.00     0.001 A 
HETATM   29  C21 UNL     1      29.275  -0.926  53.706  1.00  0.00     0.000 A 
HETATM   30  C22 UNL     1      29.546   0.441  53.817  1.00  0.00     0.001 A 
HETATM   31  C23 UNL     1      28.664   1.370  53.349  1.00  0.00     0.017 A 
ENDBRANCH  23  26
ENDBRANCH   1  22
TORSDOF 5
ENDMDL
MODEL 4
REMARK VINA RESULT:      -9.2      1.720      2.683
REMARK  5 active torsions:
REMARK  status: ('A' for Active; 'I' for Inactive)
REMARK       I    between atoms: C1_2  and  N1_3 
REMARK    1  A    between atoms: C1_2  and  C18_24 
REMARK    2  A    between atoms: N1_3  and  C2_4 
REMARK    3  A    between atoms: C6_8  and  N2_9 
REMARK    4  A    between atoms: N2_9  and  C7_10 
REMARK    5  A    between atoms: C11_15  and  C12_16 
ROOT
HETATM    1  C2  UNL     1      23.800   1.499  52.314  1.00  0.00     0.037 A 
HETATM    2  C3  UNL     1      22.640   1.012  52.880  1.00  0.00     0.029 A 
HETATM    3  C4  UNL     1      21.500   1.734  52.718  1.00  0.00     0.004 A 
HETATM    4  C5  UNL     1      21.533   2.914  52.004  1.00  0.00     0.029 A 
HETATM    5  C6  UNL     1      22.658   3.447  51.419  1.00  0.00     0.032 A 
HETATM    6  C17 UNL     1      23.788   2.683  51.609  1.00  0.00     0.058 A 
ENDROOT
BRANCH   5   7
HETATM    7  N2  UNL     1      22.679   4.657  50.685  1.00  0.00    -0.363 N 
HETATM    8  H5  UNL     1      22.111   4.652  49.784  1.00  0.00     0.162 HD
BRANCH   7   9
HETATM    9  C7  UNL     1      23.395   5.849  51.072  1.00  0.00     0.248 C 
HETATM   10  C8  UNL     1      22.621   7.095  50.720  1.00  0.00     0.137 C 
HETATM   11  N3  UNL     1      22.383   7.675  49.591  1.00  0.00    -0.273 NA
HETATM   12  C9  UNL     1      22.872   7.177  48.324  1.00  0.00     0.118 C 
HETATM   13  C10 UNL     1      24.015   6.496  48.115  1.00  0.00     0.051 C 
HETATM   14  C11 UNL     1      24.989   6.126  49.136  1.00  0.00     0.067 C 
HETATM   15  N5  UNL     1      24.666   5.862  50.380  1.00  0.00    -0.258 NA
BRANCH  14  16
HETATM   16  C12 UNL     1      26.405   6.033  48.768  1.00  0.00     0.010 A 
HETATM   17  C13 UNL     1      27.183   7.068  48.302  1.00  0.00     0.017 A 
HETATM   18  C14 UNL     1      28.512   6.847  47.987  1.00  0.00     0.020 A 
HETATM   19  C15 UNL     1      29.098   5.600  48.128  1.00  0.00     0.116 A 
HETATM   20  N4  UNL     1      28.304   4.598  48.592  1.00  0.00    -0.272 NA
HETATM   21  C16 UNL     1      27.009   4.802  48.900  1.00  0.00     0.130 A 
ENDBRANCH  14  16
ENDBRANCH   7   9
ENDBRANCH   5   7
BRANCH   1  22
HETATM   22  N1  UNL     1      25.056   0.806  52.431  1.00  0.00    -0.323 N 
HETATM   23  C1  UNL     1      26.109   1.169  53.309  1.00  0.00     0.256 C 
HETATM   24  O1  UNL     1      26.054   2.154  54.094  1.00  0.00    -0.267 OA
HETATM   25  H1  UNL     1      25.110  -0.000  51.793  1.00  0.00     0.169 HD
BRANCH  23  26
HETATM   26  C18 UNL     1      27.348   0.399  53.354  1.00  0.00     0.032 A 
HETATM   27  C19 UNL     1      28.521   1.027  53.718  1.00  0.00     0.017 A 
HETATM   28  C20 UNL     1      29.754   0.369  53.787  1.00  0.00     0.001 A 
HETATM   29  C21 UNL     1      29.813  -0.976  53.479  1.00  0.00     0.000 A 
HETATM   30  C22 UNL     1      28.630  -1.621  53.109  1.00  0.00     0.001 A 
HETATM   31  C23 UNL     1      27.448  -0.943  53.054  1.00  0.00     0.017 A 
ENDBRANCH  23  26
ENDBRANCH   1  22
TORSDOF 5
ENDMDL
MODEL 5
REMARK VINA RESULT:      -9.2      1.875      6.660
REMARK  5 active torsions:
REMARK  status: ('A' for Active; 'I' for Inactive)
REMARK       I    between atoms: C1_2  and  N1_3 
REMARK    1  A    between atoms: C1_2  and  C18_24 
REMARK    2  A    between atoms: N1_3  and  C2_4 
REMARK    3  A    between atoms: C6_8  and  N2_9 
REMARK    4  A    between atoms: N2_9  and  C7_10 
REMARK    5  A    between atoms: C11_15  and  C12_16 
ROOT
HETATM    1  C2  UNL     1      22.789   4.327  51.180  1.00  0.00     0.037 A 
HETATM    2  C3  UNL     1      21.526   4.870  51.068  1.00  0.00     0.029 A 
HETATM    3  C4  UNL     1      20.495   4.212  51.661  1.00  0.00     0.004 A 
HETATM    4  C5  UNL     1      20.735   3.040  52.347  1.00  0.00     0.029 A 
HETATM    5  C6  UNL     1      21.970   2.453  52.491  1.00  0.00     0.032 A 
HETATM    6  C17 UNL     1      22.984   3.152  51.875  1.00  0.00     0.058 A 
ENDROOT
BRANCH   5   7
HETATM    7  N2  UNL     1      22.205   1.251  53.201  1.00  0.00    -0.363 N 
HETATM    8  H5  UNL     1      22.049   1.307  54.253  1.00  0.00     0.162 HD
BRANCH   7   9
HETATM    9  C7  UNL     1      22.624   0.005  52.607  1.00  0.00     0.248 C 
HETATM   10  C8  UNL     1      21.848  -1.161  53.163  1.00  0.00     0.137 C 
HETATM   11  N3  UNL     1      21.888  -1.760  54.307  1.00  0.00    -0.273 NA
HETATM   12  C9  UNL     1      22.789  -1.377  55.372  1.00  0.00     0.118 C 
HETATM   13  C10 UNL     1      24.015  -0.838  55.234  1.00  0.00     0.051 C 
HETATM   14  C11 UNL     1      24.678  -0.534  53.970  1.00  0.00     0.067 C 
HETATM   15  N5  UNL     1      24.033  -0.181  52.884  1.00  0.00    -0.258 NA
BRANCH  14  16
HETATM   16  C12 UNL     1      26.139  -0.616  53.896  1.00  0.00     0.010 A 
HETATM   17  C13 UNL     1      26.859  -1.262  52.917  1.00  0.00     0.017 A 
HETATM   18  C14 UNL     1      28.242  -1.267  52.963  1.00  0.00     0.020 A 
HETATM   19  C15 UNL     1      28.940  -0.632  53.977  1.00  0.00     0.116 A 
HETATM   20  N4  UNL     1      28.201  -0.002  54.929  1.00  0.00    -0.272 NA
HETATM   21  C16 UNL     1      26.855   0.008  54.894  1.00  0.00     0.130 A 
ENDBRANCH  14  16
ENDBRANCH   7   9
ENDBRANCH   5   7
BRANCH   1  22
HETATM   22  N1  UNL     1      23.943   4.949  50.587  1.00  0.00    -0.323 N 
HETATM   23  C1  UNL     1      24.824   4.325  49.667  1.00  0.00     0.256 C 
HETATM   24  O1  UNL     1      24.686   3.138  49.265  1.00  0.00    -0.267 OA
HETATM   25  H1  UNL     1      24.065   5.918  50.910  1.00  0.00     0.169 HD
BRANCH  23  26
HETATM   26  C18 UNL     1      25.971   5.043  49.120  1.00  0.00     0.032 A 
HETATM   27  C19 UNL     1      25.826   6.360  48.738  1.00  0.00     0.017 A 
HETATM   28  C20 UNL     1      26.869   7.124  48.204  1.00  0.00     0.001 A 
HETATM   29  C21 UNL     1      28.111   6.542  48.047  1.00  0.00     0.000 A 
HETATM   30  C22 UNL     1      28.270   5.208  48.430  1.00  0.00     0.001 A 
HETATM   31  C23 UNL     1      27.226   4.498  48.947  1.00  0.00     0.017 A 
ENDBRANCH  23  26
ENDBRANCH   1  22
TORSDOF 5
ENDMDL
MODEL 6
REMARK VINA RESULT:      -9.1      2.222      8.013
REMARK  5 active torsions:
REMARK  status: ('A' for Active; 'I' for Inactive)
REMARK       I    between atoms: C1_2  and  N1_3 
REMARK    1  A    between atoms: C1_2  and  C18_24 
REMARK    2  A    between atoms: N1_3  and  C2_4 
REMARK    3  A    between atoms: C6_8  and  N2_9 
REMARK    4  A    between atoms: N2_9  and  C7_10 
REMARK    5  A    between atoms: C11_15  and  C12_16 
ROOT
HETATM    1  C2  UNL     1      23.882   2.911  50.178  1.00  0.00     0.037 A 
HETATM    2  C3  UNL     1      24.202   3.965  49.347  1.00  0.00     0.029 A 
HETATM    3  C4  UNL     1      25.490   4.398  49.333  1.00  0.00     0.004 A 
HETATM    4  C5  UNL     1      26.427   3.783  50.136  1.00  0.00     0.029 A 
HETATM    5  C6  UNL     1      26.167   2.731  50.983  1.00  0.00     0.032 A 
HETATM    6  C17 UNL     1      24.851   2.326  50.965  1.00  0.00     0.058 A 
ENDROOT
BRANCH   5   7
HETATM    7  N2  UNL     1      27.139   2.105  51.801  1.00  0.00    -0.363 N 
HETATM    8  H5  UNL     1      27.979   1.706  51.282  1.00  0.00     0.162 HD
BRANCH   7   9
HETATM    9  C7  UNL     1      27.060   1.982  53.236  1.00  0.00     0.248 C 
HETATM   10  C8  UNL     1      28.268   1.275  53.796  1.00  0.00     0.137 C 
HETATM   11  N3  UNL     1      28.636   0.037  53.768  1.00  0.00    -0.273 NA
HETATM   12  C9  UNL     1      27.865  -1.006  53.126  1.00  0.00     0.118 C 
HETATM   13  C10 UNL     1      26.526  -1.052  52.996  1.00  0.00     0.051 C 
HETATM   14  C11 UNL     1      25.584  -0.049  53.485  1.00  0.00     0.067 C 
HETATM   15  N5  UNL     1      25.868   1.229  53.564  1.00  0.00    -0.258 NA
BRANCH  14  16
HETATM   16  C12 UNL     1      24.246  -0.475  53.904  1.00  0.00     0.010 A 
HETATM   17  C13 UNL     1      23.083  -0.280  53.197  1.00  0.00     0.017 A 
HETATM   18  C14 UNL     1      21.878  -0.731  53.705  1.00  0.00     0.020 A 
HETATM   19  C15 UNL     1      21.800  -1.386  54.924  1.00  0.00     0.116 A 
HETATM   20  N4  UNL     1      22.967  -1.565  55.599  1.00  0.00    -0.272 NA
HETATM   21  C16 UNL     1      24.144  -1.129  55.113  1.00  0.00     0.130 A 
ENDBRANCH  14  16
ENDBRANCH   7   9
ENDBRANCH   5   7
BRANCH   1  22
HETATM   22  N1  UNL     1      22.547   2.382  50.261  1.00  0.00    -0.323 N 
HETATM   23  C1  UNL     1      21.619   2.670  51.294  1.00  0.00     0.256 C 
HETATM   24  O1  UNL     1      21.871   3.434  52.265  1.00  0.00    -0.267 OA
HETATM   25  H1  UNL     1      22.332   1.756  49.473  1.00  0.00     0.169 HD
BRANCH  23  26
HETATM   26  C18 UNL     1      20.283   2.082  51.290  1.00  0.00     0.032 A 
HETATM   27  C19 UNL     1      19.188   2.888  51.517  1.00  0.00     0.017 A 
HETATM   28  C20 UNL     1      17.873   2.410  51.531  1.00  0.00     0.001 A 
HETATM   29  C21 UNL     1      17.646   1.067  51.308  1.00  0.00     0.000 A 
HETATM   30  C22 UNL     1      18.750   0.240  51.077  1.00  0.00     0.001 A 
HETATM   31  C23 UNL     1      20.017   0.747  51.071  1.00  0.00     0.017 A 
ENDBRANCH  23  26
ENDBRANCH   1  22
TORSDOF 5
ENDMDL
MODEL 7
REMARK VINA RESULT:      -8.8      2.894      8.374
REMARK  5 active torsions:
REMARK  status: ('A' for Active; 'I' for Inactive)
REMARK       I    between atoms: C1_2  and  N1_3 
REMARK    1  A    between atoms: C1_2  and  C18_24 
REMARK    2  A    between atoms: N1_3  and  C2_4 
REMARK    3  A    between atoms: C6_8  and  N2_9 
REMARK    4  A    between atoms: N2_9  and  C7_10 
REMARK    5  A    between atoms: C11_15  and  C12_16 
ROOT
HETATM    1  C2  UNL     1      26.019   4.894  49.251  1.00  0.00     0.037 A 
HETATM    2  C3  UNL     1      24.674   4.740  48.985  1.00  0.00     0.029 A 
HETATM    3  C4  UNL     1      24.031   3.680  49.542  1.00  0.00     0.004 A 
HETATM    4  C5  UNL     1      24.728   2.802  50.345  1.00  0.00     0.029 A 
HETATM    5  C6  UNL     1      26.066   2.905  50.644  1.00  0.00     0.032 A 
HETATM    6  C17 UNL     1      26.677   3.991  50.059  1.00  0.00     0.058 A 
ENDROOT
BRANCH   5   7
HETATM    7  N2  UNL     1      26.770   1.998  51.474  1.00  0.00    -0.363 N 
HETATM    8  H5  UNL     1      27.395   1.305  50.960  1.00  0.00     0.162 HD
BRANCH   7   9
HETATM    9  C7  UNL     1      26.695   1.961  52.914  1.00  0.00     0.248 C 
HETATM   10  C8  UNL     1      27.918   1.316  53.514  1.00  0.00     0.137 C 
HETATM   11  N3  UNL     1      28.312   0.087  53.561  1.00  0.00    -0.273 NA
HETATM   12  C9  UNL     1      27.565  -1.009  52.985  1.00  0.00     0.118 C 
HETATM   13  C10 UNL     1      26.227  -1.093  52.861  1.00  0.00     0.051 C 
HETATM   14  C11 UNL     1      25.263  -0.083  53.288  1.00  0.00     0.067 C 
HETATM   15  N5  UNL     1      25.519   1.204  53.289  1.00  0.00    -0.258 NA
BRANCH  14  16
HETATM   16  C12 UNL     1      23.935  -0.511  53.735  1.00  0.00     0.010 A 
HETATM   17  C13 UNL     1      22.763  -0.356  53.032  1.00  0.00     0.017 A 
HETATM   18  C14 UNL     1      21.569  -0.805  53.567  1.00  0.00     0.020 A 
HETATM   19  C15 UNL     1      21.510  -1.418  54.808  1.00  0.00     0.116 A 
HETATM   20  N4  UNL     1      22.686  -1.558  55.478  1.00  0.00    -0.272 NA
HETATM   21  C16 UNL     1      23.853  -1.123  54.967  1.00  0.00     0.130 A 
ENDBRANCH  14  16
ENDBRANCH   7   9
ENDBRANCH   5   7
BRANCH   1  22
HETATM   22  N1  UNL     1      26.786   5.983  48.707  1.00  0.00    -0.323 N 
HETATM   23  C1  UNL     1      28.131   5.894  48.267  1.00  0.00     0.256 C 
HETATM   24  O1  UNL     1      28.808   4.831  48.305  1.00  0.00    -0.267 OA
HETATM   25  H1  UNL     1      26.241   6.856  48.673  1.00  0.00     0.169 HD
BRANCH  23  26
HETATM   26  C18 UNL     1      28.825   7.060  47.728  1.00  0.00     0.032 A 
HETATM   27  C19 UNL     1      29.984   7.497  48.334  1.00  0.00     0.017 A 
HETATM   28  C20 UNL     1      30.713   8.605  47.888  1.00  0.00     0.001 A 
HETATM   29  C21 UNL     1      30.260   9.304  46.786  1.00  0.00     0.000 A 
HETATM   30  C22 UNL     1      29.085   8.869  46.165  1.00  0.00     0.001 A 
HETATM   31  C23 UNL     1      28.404   7.784  46.633  1.00  0.00     0.017 A 
ENDBRANCH  23  26
ENDBRANCH   1  22
TORSDOF 5
ENDMDL
MODEL 8
REMARK VINA RESULT:      -8.8      2.667      6.882
REMARK  5 active torsions:
REMARK  status: ('A' for Active; 'I' for Inactive)
REMARK       I    between atoms: C1_2  and  N1_3 
REMARK    1  A    between atoms: C1_2  and  C18_24 
REMARK    2  A    between atoms: N1_3  and  C2_4 
REMARK    3  A    between atoms: C6_8  and  N2_9 
REMARK    4  A    between atoms: N2_9  and  C7_10 
REMARK    5  A    between atoms: C11_15  and  C12_16 
ROOT
HETATM    1  C2  UNL     1      24.887   6.040  50.459  1.00  0.00     0.037 A 
HETATM    2  C3  UNL     1      24.137   7.165  50.736  1.00  0.00     0.029 A 
HETATM    3  C4  UNL     1      22.873   6.989  51.206  1.00  0.00     0.004 A 
HETATM    4  C5  UNL     1      22.383   5.713  51.388  1.00  0.00     0.029 A 
HETATM    5  C6  UNL     1      23.083   4.558  51.129  1.00  0.00     0.032 A 
HETATM    6  C17 UNL     1      24.356   4.783  50.656  1.00  0.00     0.058 A 
ENDROOT
BRANCH   5   7
HETATM    7  N2  UNL     1      22.570   3.253  51.324  1.00  0.00    -0.363 N 
HETATM    8  H5  UNL     1      21.769   3.180  52.022  1.00  0.00     0.162 HD
BRANCH   7   9
HETATM    9  C7  UNL     1      23.049   2.065  50.660  1.00  0.00     0.248 C 
HETATM   10  C8  UNL     1      21.969   1.019  50.555  1.00  0.00     0.137 C 
HETATM   11  N3  UNL     1      21.432   0.239  51.434  1.00  0.00    -0.273 NA
HETATM   12  C9  UNL     1      21.816   0.231  52.828  1.00  0.00     0.118 C 
HETATM   13  C10 UNL     1      23.036   0.506  53.328  1.00  0.00     0.051 C 
HETATM   14  C11 UNL     1      24.217   0.869  52.550  1.00  0.00     0.067 C 
HETATM   15  N5  UNL     1      24.160   1.534  51.421  1.00  0.00    -0.258 NA
BRANCH  14  16
HETATM   16  C12 UNL     1      25.541   0.486  53.047  1.00  0.00     0.010 A 
HETATM   17  C13 UNL     1      26.285  -0.584  52.606  1.00  0.00     0.017 A 
HETATM   18  C14 UNL     1      27.527  -0.839  53.160  1.00  0.00     0.020 A 
HETATM   19  C15 UNL     1      28.057  -0.042  54.162  1.00  0.00     0.116 A 
HETATM   20  N4  UNL     1      27.298   1.008  54.576  1.00  0.00    -0.272 NA
HETATM   21  C16 UNL     1      26.088   1.265  54.043  1.00  0.00     0.130 A 
ENDBRANCH  14  16
ENDBRANCH   7   9
ENDBRANCH   5   7
BRANCH   1  22
HETATM   22  N1  UNL     1      26.233   6.124  49.959  1.00  0.00    -0.323 N 
HETATM   23  C1  UNL     1      26.591   6.506  48.640  1.00  0.00     0.256 C 
HETATM   24  O1  UNL     1      25.752   6.817  47.753  1.00  0.00    -0.267 OA
HETATM   25  H1  UNL     1      26.925   5.871  50.677  1.00  0.00     0.169 HD
BRANCH  23  26
HETATM   26  C18 UNL     1      27.991   6.561  48.228  1.00  0.00     0.032 A 
HETATM   27  C19 UNL     1      28.496   7.732  47.704  1.00  0.00     0.017 A 
HETATM   28  C20 UNL     1      29.823   7.874  47.283  1.00  0.00     0.001 A 
HETATM   29  C21 UNL     1      30.679   6.797  47.392  1.00  0.00     0.000 A 
HETATM   30  C22 UNL     1      30.176   5.605  47.921  1.00  0.00     0.001 A 
HETATM   31  C23 UNL     1      28.875   5.507  48.321  1.00  0.00     0.017 A 
ENDBRANCH  23  26
ENDBRANCH   1  22
TORSDOF 5
ENDMDL
MODEL 9
REMARK VINA RESULT:      -8.7      2.322      3.443
REMARK  5 active torsions:
REMARK  status: ('A' for Active; 'I' for Inactive)
REMARK       I    between atoms: C1_2  and  N1_3 
REMARK    1  A    between atoms: C1_2  and  C18_24 
REMARK    2  A    between atoms: N1_3  and  C2_4 
REMARK    3  A    between atoms: C6_8  and  N2_9 
REMARK    4  A    between atoms: N2_9  and  C7_10 
REMARK    5  A    between atoms: C11_15  and  C12_16 
ROOT
HETATM    1  C2  UNL     1      24.217   1.934  52.404  1.00  0.00     0.037 A 
HETATM    2  C3  UNL     1      22.902   1.531  52.514  1.00  0.00     0.029 A 
HETATM    3  C4  UNL     1      21.937   2.488  52.493  1.00  0.00     0.004 A 
HETATM    4  C5  UNL     1      22.292   3.814  52.364  1.00  0.00     0.029 A 
HETATM    5  C6  UNL     1      23.584   4.275  52.251  1.00  0.00     0.032 A 
HETATM    6  C17 UNL     1      24.527   3.272  52.278  1.00  0.00     0.058 A 
ENDROOT
BRANCH   5   7
HETATM    7  N2  UNL     1      23.936   5.639  52.116  1.00  0.00    -0.363 N 
HETATM    8  H5  UNL     1      24.533   6.034  52.904  1.00  0.00     0.162 HD
BRANCH   7   9
HETATM    9  C7  UNL     1      23.550   6.491  51.017  1.00  0.00     0.248 C 
HETATM   10  C8  UNL     1      22.962   5.692  49.882  1.00  0.00     0.137 C 
HETATM   11  N3  UNL     1      23.498   4.906  49.008  1.00  0.00    -0.273 NA
HETATM   12  C9  UNL     1      24.916   4.624  48.959  1.00  0.00     0.118 C 
HETATM   13  C10 UNL     1      25.914   5.454  49.319  1.00  0.00     0.051 C 
HETATM   14  C11 UNL     1      25.754   6.811  49.832  1.00  0.00     0.067 C 
HETATM   15  N5  UNL     1      24.726   7.194  50.550  1.00  0.00    -0.258 NA
BRANCH  14  16
HETATM   16  C12 UNL     1      26.792   7.806  49.547  1.00  0.00     0.010 A 
HETATM   17  C13 UNL     1      27.858   7.632  48.695  1.00  0.00     0.017 A 
HETATM   18  C14 UNL     1      28.773   8.654  48.513  1.00  0.00     0.020 A 
HETATM   19  C15 UNL     1      28.652   9.868  49.169  1.00  0.00     0.116 A 
HETATM   20  N4  UNL     1      27.587  10.009  50.005  1.00  0.00    -0.272 NA
HETATM   21  C16 UNL     1      26.692   9.021  50.189  1.00  0.00     0.130 A 
ENDBRANCH  14  16
ENDBRANCH   7   9
ENDBRANCH   5   7
BRANCH   1  22
HETATM   22  N1  UNL     1      25.307   0.996  52.417  1.00  0.00    -0.323 N 
HETATM   23  C1  UNL     1      26.275   0.883  53.447  1.00  0.00     0.256 C 
HETATM   24  O1  UNL     1      26.281   1.607  54.480  1.00  0.00    -0.267 OA
HETATM   25  H1  UNL     1      25.311   0.401  51.577  1.00  0.00     0.169 HD
BRANCH  23  26
HETATM   26  C18 UNL     1      27.347  -0.104  53.367  1.00  0.00     0.032 A 
HETATM   27  C19 UNL     1      28.625   0.253  53.741  1.00  0.00     0.017 A 
HETATM   28  C20 UNL     1      29.712  -0.627  53.697  1.00  0.00     0.001 A 
HETATM   29  C21 UNL     1      29.508  -1.920  53.258  1.00  0.00     0.000 A 
HETATM   30  C22 UNL     1      28.216  -2.292  52.875  1.00  0.00     0.001 A 
HETATM   31  C23 UNL     1      27.183  -1.403  52.935  1.00  0.00     0.017 A 
ENDBRANCH  23  26
ENDBRANCH   1  22
TORSDOF 5
ENDMDL
