MODEL 1
REMARK VINA RESULT:      -6.5      0.000      0.000
REMARK  6 active torsions:
REMARK  status: ('A' for Active; 'I' for Inactive)
REMARK    1  A    between atoms: C2_2  and  C4_5 
REMARK    2  A    between atoms: C4_5  and  O2_19 
REMARK    3  A    between atoms: C5_6  and  C6_7 
REMARK    4  A    between atoms: C8_11  and  N3_12 
REMARK    5  A    between atoms: N3_12  and  C10_14 
REMARK    6  A    between atoms: C10_14  and  C11_15 
ROOT
HETATM    1  C6  UNL     1      27.152   2.100  52.524  1.00  0.00     0.082 A 
HETATM    2  N1  UNL     1      28.390   2.282  52.781  1.00  0.00    -0.243 NA
HETATM    3  C7  UNL     1      28.770   1.745  54.009  1.00  0.00     0.230 A 
HETATM    4  N2  UNL     1      27.762   1.208  54.552  1.00  0.00    -0.251 NA
HETATM    5  C8  UNL     1      26.600   1.372  53.652  1.00  0.00     0.258 A 
ENDROOT
BRANCH   1   6
HETATM    6  C5  UNL     1      26.798   2.672  51.247  1.00  0.00     0.068 C 
HETATM    7  C4  UNL     1      25.717   3.108  50.655  1.00  0.00     0.077 C 
BRANCH   7   8
HETATM    8  C2  UNL     1      24.371   3.146  51.199  1.00  0.00    -0.015 A 
HETATM    9  C1  UNL     1      23.301   2.693  50.508  1.00  0.00     0.047 A 
HETATM   10  O1  UNL     1      23.204   3.286  51.917  1.00  0.00     0.000 OA
HETATM   11  C3  UNL     1      22.807   4.591  52.346  1.00  0.00     0.000 C 
ENDBRANCH   7   8
BRANCH   7  12
HETATM   12  O2  UNL     1      25.821   3.599  49.358  1.00  0.00    -0.355 OA
HETATM   13  C14 UNL     1      26.876   4.494  49.079  1.00  0.00     0.210 C 
ENDBRANCH   7  12
ENDBRANCH   1   6
BRANCH   5  14
HETATM   14  N3  UNL     1      26.068   0.088  53.356  1.00  0.00    -0.386 N 
HETATM   15  C9  UNL     1      26.861  -0.784  52.565  1.00  0.00     0.146 C 
BRANCH  14  16
HETATM   16  C10 UNL     1      25.390  -0.611  54.403  1.00  0.00     0.169 C 
BRANCH  16  17
HETATM   17  C11 UNL     1      23.900  -0.623  54.127  1.00  0.00     0.025 C 
HETATM   18 CL1  UNL     1      22.869  -1.371  55.334  1.00  0.00    -0.088 Cl
HETATM   19  C12 UNL     1      23.394  -0.088  53.023  1.00  0.00    -0.010 C 
HETATM   20  C13 UNL     1      21.930  -0.094  52.741  1.00  0.00     0.037 C 
ENDBRANCH  16  17
ENDBRANCH  14  16
ENDBRANCH   5  14
TORSDOF 6
ENDMDL
MODEL 2
REMARK VINA RESULT:      -6.5      2.866      4.707
REMARK  6 active torsions:
REMARK  status: ('A' for Active; 'I' for Inactive)
REMARK    1  A    between atoms: C2_2  and  C4_5 
REMARK    2  A    between atoms: C4_5  and  O2_19 
REMARK    3  A    between atoms: C5_6  and  C6_7 
REMARK    4  A    between atoms: C8_11  and  N3_12 
REMARK    5  A    between atoms: N3_12  and  C10_14 
REMARK    6  A    between atoms: C10_14  and  C11_15 
ROOT
HETATM    1  C6  UNL     1      26.080   0.944  51.611  1.00  0.00     0.082 A 
HETATM    2  N1  UNL     1      26.985   1.748  51.205  1.00  0.00    -0.243 NA
HETATM    3  C7  UNL     1      26.471   2.978  50.798  1.00  0.00     0.230 A 
HETATM    4  N2  UNL     1      25.214   2.966  50.946  1.00  0.00    -0.251 NA
HETATM    5  C8  UNL     1      24.817   1.651  51.493  1.00  0.00     0.258 A 
ENDROOT
BRANCH   1   6
HETATM    6  C5  UNL     1      26.651  -0.317  52.020  1.00  0.00     0.068 C 
HETATM    7  C4  UNL     1      27.391  -0.765  53.000  1.00  0.00     0.077 C 
BRANCH   7   8
HETATM    8  C2  UNL     1      27.923  -0.006  54.119  1.00  0.00    -0.015 A 
HETATM    9  C1  UNL     1      27.136   0.450  55.119  1.00  0.00     0.047 A 
HETATM   10  O1  UNL     1      28.648   0.683  55.064  1.00  0.00     0.000 OA
HETATM   11  C3  UNL     1      29.393   1.835  54.660  1.00  0.00     0.000 C 
ENDBRANCH   7   8
BRANCH   7  12
HETATM   12  O2  UNL     1      27.733  -2.113  53.013  1.00  0.00    -0.355 OA
HETATM   13  C14 UNL     1      29.090  -2.442  53.214  1.00  0.00     0.210 C 
ENDBRANCH   7  12
ENDBRANCH   1   6
BRANCH   5  14
HETATM   14  N3  UNL     1      24.110   1.858  52.708  1.00  0.00    -0.386 N 
HETATM   15  C9  UNL     1      24.423   3.022  53.459  1.00  0.00     0.146 C 
BRANCH  14  16
HETATM   16  C10 UNL     1      22.709   1.576  52.722  1.00  0.00     0.169 C 
BRANCH  16  17
HETATM   17  C11 UNL     1      22.457   0.270  53.447  1.00  0.00     0.025 C 
HETATM   18 CL1  UNL     1      23.854  -0.552  54.123  1.00  0.00    -0.088 Cl
HETATM   19  C12 UNL     1      21.235  -0.230  53.572  1.00  0.00    -0.010 C 
HETATM   20  C13 UNL     1      20.976  -1.515  54.283  1.00  0.00     0.037 C 
ENDBRANCH  16  17
ENDBRANCH  14  16
ENDBRANCH   5  14
TORSDOF 6
ENDMDL
MODEL 3
REMARK VINA RESULT:      -6.3      2.784      4.511
REMARK  6 active torsions:
REMARK  status: ('A' for Active; 'I' for Inactive)
REMARK    1  A    between atoms: C2_2  and  C4_5 
REMARK    2  A    between atoms: C4_5  and  O2_19 
REMARK    3  A    between atoms: C5_6  and  C6_7 
REMARK    4  A    between atoms: C8_11  and  N3_12 
REMARK    5  A    between atoms: N3_12  and  C10_14 
REMARK    6  A    between atoms: C10_14  and  C11_15 
ROOT
HETATM    1  C6  UNL     1      25.743   2.416  51.206  1.00  0.00     0.082 A 
HETATM    2  N1  UNL     1      25.843   3.223  50.221  1.00  0.00    -0.243 NA
HETATM    3  C7  UNL     1      24.633   3.416  49.556  1.00  0.00     0.230 A 
HETATM    4  N2  UNL     1      23.739   2.722  50.121  1.00  0.00    -0.251 NA
HETATM    5  C8  UNL     1      24.353   1.998  51.256  1.00  0.00     0.258 A 
ENDROOT
BRANCH   1   6
HETATM    6  C5  UNL     1      27.014   2.242  51.865  1.00  0.00     0.068 C 
HETATM    7  C4  UNL     1      27.571   1.370  52.665  1.00  0.00     0.077 C 
BRANCH   7   8
HETATM    8  C2  UNL     1      26.979   0.152  53.189  1.00  0.00    -0.015 A 
HETATM    9  C1  UNL     1      26.774  -0.939  52.417  1.00  0.00     0.047 A 
HETATM   10  O1  UNL     1      26.407  -0.877  53.903  1.00  0.00     0.000 OA
HETATM   11  C3  UNL     1      25.142  -0.661  54.535  1.00  0.00     0.000 C 
ENDBRANCH   7   8
BRANCH   7  12
HETATM   12  O2  UNL     1      28.878   1.595  53.087  1.00  0.00    -0.355 OA
HETATM   13  C14 UNL     1      29.232   1.153  54.380  1.00  0.00     0.210 C 
ENDBRANCH   7  12
ENDBRANCH   1   6
BRANCH   5  14
HETATM   14  N3  UNL     1      23.651   2.336  52.445  1.00  0.00    -0.386 N 
HETATM   15  C9  UNL     1      24.158   3.408  53.224  1.00  0.00     0.146 C 
BRANCH  14  16
HETATM   16  C10 UNL     1      22.222   2.341  52.397  1.00  0.00     0.169 C 
BRANCH  16  17
HETATM   17  C11 UNL     1      21.700   0.929  52.564  1.00  0.00     0.025 C 
HETATM   18 CL1  UNL     1      21.188   0.088  51.110  1.00  0.00    -0.088 Cl
HETATM   19  C12 UNL     1      21.637   0.349  53.755  1.00  0.00    -0.010 C 
HETATM   20  C13 UNL     1      21.125  -1.041  53.931  1.00  0.00     0.037 C 
ENDBRANCH  16  17
ENDBRANCH  14  16
ENDBRANCH   5  14
TORSDOF 6
ENDMDL
MODEL 4
REMARK VINA RESULT:      -6.2      2.884      5.089
REMARK  6 active torsions:
REMARK  status: ('A' for Active; 'I' for Inactive)
REMARK    1  A    between atoms: C2_2  and  C4_5 
REMARK    2  A    between atoms: C4_5  and  O2_19 
REMARK    3  A    between atoms: C5_6  and  C6_7 
REMARK    4  A    between atoms: C8_11  and  N3_12 
REMARK    5  A    between atoms: N3_12  and  C10_14 
REMARK    6  A    between atoms: C10_14  and  C11_15 
ROOT
HETATM    1  C6  UNL     1      25.404  -0.402  53.374  1.00  0.00     0.082 A 
HETATM    2  N1  UNL     1      26.332  -1.070  53.942  1.00  0.00    -0.243 NA
HETATM    3  C7  UNL     1      27.574  -0.893  53.334  1.00  0.00     0.230 A 
HETATM    4  N2  UNL     1      27.444  -0.097  52.360  1.00  0.00    -0.251 NA
HETATM    5  C8  UNL     1      26.027   0.316  52.275  1.00  0.00     0.258 A 
ENDROOT
BRANCH   1   6
HETATM    6  C5  UNL     1      24.136  -0.615  54.029  1.00  0.00     0.068 C 
HETATM    7  C4  UNL     1      22.881  -0.322  53.812  1.00  0.00     0.077 C 
BRANCH   7   8
HETATM    8  C2  UNL     1      22.329   0.404  52.681  1.00  0.00    -0.015 A 
HETATM    9  C1  UNL     1      22.231   1.752  52.670  1.00  0.00     0.047 A 
HETATM   10  O1  UNL     1      21.777   0.864  51.507  1.00  0.00     0.000 OA
HETATM   11  C3  UNL     1      20.468   0.422  51.138  1.00  0.00     0.000 C 
ENDBRANCH   7   8
BRANCH   7  12
HETATM   12  O2  UNL     1      21.932  -0.733  54.742  1.00  0.00    -0.355 OA
HETATM   13  C14 UNL     1      20.892  -1.574  54.289  1.00  0.00     0.210 C 
ENDBRANCH   7  12
ENDBRANCH   1   6
BRANCH   5  14
HETATM   14  N3  UNL     1      25.960   1.733  52.349  1.00  0.00    -0.386 N 
HETATM   15  C9  UNL     1      25.824   2.318  53.636  1.00  0.00     0.146 C 
BRANCH  14  16
HETATM   16  C10 UNL     1      26.839   2.487  51.511  1.00  0.00     0.169 C 
BRANCH  16  17
HETATM   17  C11 UNL     1      26.048   3.139  50.396  1.00  0.00     0.025 C 
HETATM   18 CL1  UNL     1      26.952   4.053  49.201  1.00  0.00    -0.088 Cl
HETATM   19  C12 UNL     1      24.728   3.022  50.321  1.00  0.00    -0.010 C 
HETATM   20  C13 UNL     1      23.939   3.659  49.228  1.00  0.00     0.037 C 
ENDBRANCH  16  17
ENDBRANCH  14  16
ENDBRANCH   5  14
TORSDOF 6
ENDMDL
MODEL 5
REMARK VINA RESULT:      -6.0      2.860      5.524
REMARK  6 active torsions:
REMARK  status: ('A' for Active; 'I' for Inactive)
REMARK    1  A    between atoms: C2_2  and  C4_5 
REMARK    2  A    between atoms: C4_5  and  O2_19 
REMARK    3  A    between atoms: C5_6  and  C6_7 
REMARK    4  A    between atoms: C8_11  and  N3_12 
REMARK    5  A    between atoms: N3_12  and  C10_14 
REMARK    6  A    between atoms: C10_14  and  C11_15 
ROOT
HETATM    1  C6  UNL     1      23.535   1.180  52.280  1.00  0.00     0.082 A 
HETATM    2  N1  UNL     1      22.807   1.203  51.231  1.00  0.00    -0.243 NA
HETATM    3  C7  UNL     1      23.160   2.226  50.352  1.00  0.00     0.230 A 
HETATM    4  N2  UNL     1      24.131   2.872  50.843  1.00  0.00    -0.251 NA
HETATM    5  C8  UNL     1      24.488   2.267  52.145  1.00  0.00     0.258 A 
ENDROOT
BRANCH   1   6
HETATM    6  C5  UNL     1      23.137   0.111  53.164  1.00  0.00     0.068 C 
HETATM    7  C4  UNL     1      22.022  -0.449  53.555  1.00  0.00     0.077 C 
BRANCH   7   8
HETATM    8  C2  UNL     1      20.672  -0.103  53.145  1.00  0.00    -0.015 A 
HETATM    9  C1  UNL     1      19.591  -0.798  53.564  1.00  0.00     0.047 A 
HETATM   10  O1  UNL     1      19.505   0.410  52.627  1.00  0.00     0.000 OA
HETATM   11  C3  UNL     1      19.345   0.470  51.207  1.00  0.00     0.000 C 
ENDBRANCH   7   8
BRANCH   7  12
HETATM   12  O2  UNL     1      22.089  -1.500  54.465  1.00  0.00    -0.355 OA
HETATM   13  C14 UNL     1      23.115  -1.462  55.433  1.00  0.00     0.210 C 
ENDBRANCH   7  12
ENDBRANCH   1   6
BRANCH   5  14
HETATM   14  N3  UNL     1      25.856   1.886  52.110  1.00  0.00    -0.386 N 
HETATM   15  C9  UNL     1      26.711   2.588  51.220  1.00  0.00     0.146 C 
BRANCH  14  16
HETATM   16  C10 UNL     1      26.502   1.600  53.353  1.00  0.00     0.169 C 
BRANCH  16  17
HETATM   17  C11 UNL     1      27.379   0.374  53.203  1.00  0.00     0.025 C 
HETATM   18 CL1  UNL     1      26.687  -1.008  52.371  1.00  0.00    -0.088 Cl
HETATM   19  C12 UNL     1      28.619   0.346  53.675  1.00  0.00    -0.010 C 
HETATM   20  C13 UNL     1      29.491  -0.855  53.534  1.00  0.00     0.037 C 
ENDBRANCH  16  17
ENDBRANCH  14  16
ENDBRANCH   5  14
TORSDOF 6
ENDMDL
MODEL 6
REMARK VINA RESULT:      -6.0      2.867      4.933
REMARK  6 active torsions:
REMARK  status: ('A' for Active; 'I' for Inactive)
REMARK    1  A    between atoms: C2_2  and  C4_5 
REMARK    2  A    between atoms: C4_5  and  O2_19 
REMARK    3  A    between atoms: C5_6  and  C6_7 
REMARK    4  A    between atoms: C8_11  and  N3_12 
REMARK    5  A    between atoms: N3_12  and  C10_14 
REMARK    6  A    between atoms: C10_14  and  C11_15 
ROOT
HETATM    1  C6  UNL     1      24.314   0.989  52.679  1.00  0.00     0.082 A 
HETATM    2  N1  UNL     1      24.762  -0.133  53.092  1.00  0.00    -0.243 NA
HETATM    3  C7  UNL     1      23.809  -0.870  53.792  1.00  0.00     0.230 A 
HETATM    4  N2  UNL     1      22.729  -0.212  53.830  1.00  0.00    -0.251 NA
HETATM    5  C8  UNL     1      22.930   1.064  53.110  1.00  0.00     0.258 A 
ENDROOT
BRANCH   1   6
HETATM    6  C5  UNL     1      25.330   1.722  51.962  1.00  0.00     0.068 C 
HETATM    7  C4  UNL     1      26.557   2.122  52.174  1.00  0.00     0.077 C 
BRANCH   7   8
HETATM    8  C2  UNL     1      27.359   1.907  53.365  1.00  0.00    -0.015 A 
HETATM    9  C1  UNL     1      28.576   2.473  53.526  1.00  0.00     0.047 A 
HETATM   10  O1  UNL     1      27.928   1.558  54.570  1.00  0.00     0.000 OA
HETATM   11  C3  UNL     1      28.152   0.175  54.855  1.00  0.00     0.000 C 
ENDBRANCH   7   8
BRANCH   7  12
HETATM   12  O2  UNL     1      27.205   2.838  51.173  1.00  0.00    -0.355 OA
HETATM   13  C14 UNL     1      26.452   3.197  50.034  1.00  0.00     0.210 C 
ENDBRANCH   7  12
ENDBRANCH   1   6
BRANCH   5  14
HETATM   14  N3  UNL     1      21.964   1.158  52.072  1.00  0.00    -0.386 N 
HETATM   15  C9  UNL     1      20.799   0.355  52.184  1.00  0.00     0.146 C 
BRANCH  14  16
HETATM   16  C10 UNL     1      21.669   2.456  51.551  1.00  0.00     0.169 C 
BRANCH  16  17
HETATM   17  C11 UNL     1      21.563   2.388  50.041  1.00  0.00     0.025 C 
HETATM   18 CL1  UNL     1      19.964   2.581  49.341  1.00  0.00    -0.088 Cl
HETATM   19  C12 UNL     1      22.632   2.197  49.278  1.00  0.00    -0.010 C 
HETATM   20  C13 UNL     1      22.539   2.128  47.791  1.00  0.00     0.037 C 
ENDBRANCH  16  17
ENDBRANCH  14  16
ENDBRANCH   5  14
TORSDOF 6
ENDMDL
MODEL 7
REMARK VINA RESULT:      -6.0      2.845      4.666
REMARK  6 active torsions:
REMARK  status: ('A' for Active; 'I' for Inactive)
REMARK    1  A    between atoms: C2_2  and  C4_5 
REMARK    2  A    between atoms: C4_5  and  O2_19 
REMARK    3  A    between atoms: C5_6  and  C6_7 
REMARK    4  A    between atoms: C8_11  and  N3_12 
REMARK    5  A    between atoms: N3_12  and  C10_14 
REMARK    6  A    between atoms: C10_14  and  C11_15 
ROOT
HETATM    1  C6  UNL     1      26.129   1.777  51.646  1.00  0.00     0.082 A 
HETATM    2  N1  UNL     1      26.962   2.606  51.147  1.00  0.00    -0.243 NA
HETATM    3  C7  UNL     1      26.363   3.513  50.274  1.00  0.00     0.230 A 
HETATM    4  N2  UNL     1      25.124   3.264  50.210  1.00  0.00    -0.251 NA
HETATM    5  C8  UNL     1      24.829   2.115  51.094  1.00  0.00     0.258 A 
ENDROOT
BRANCH   1   6
HETATM    6  C5  UNL     1      26.787   0.855  52.540  1.00  0.00     0.068 C 
HETATM    7  C4  UNL     1      26.442   0.020  53.486  1.00  0.00     0.077 C 
BRANCH   7   8
HETATM    8  C2  UNL     1      25.101  -0.256  53.969  1.00  0.00    -0.015 A 
HETATM    9  C1  UNL     1      24.873  -0.975  55.091  1.00  0.00     0.047 A 
HETATM   10  O1  UNL     1      23.754  -0.386  54.226  1.00  0.00     0.000 OA
HETATM   11  C3  UNL     1      22.919  -1.007  53.246  1.00  0.00     0.000 C 
ENDBRANCH   7   8
BRANCH   7  12
HETATM   12  O2  UNL     1      27.440  -0.707  54.127  1.00  0.00    -0.355 OA
HETATM   13  C14 UNL     1      28.463   0.018  54.776  1.00  0.00     0.210 C 
ENDBRANCH   7  12
ENDBRANCH   1   6
BRANCH   5  14
HETATM   14  N3  UNL     1      23.842   2.508  52.037  1.00  0.00    -0.386 N 
HETATM   15  C9  UNL     1      24.281   3.198  53.198  1.00  0.00     0.146 C 
BRANCH  14  16
HETATM   16  C10 UNL     1      22.613   3.038  51.536  1.00  0.00     0.169 C 
BRANCH  16  17
HETATM   17  C11 UNL     1      21.576   1.937  51.459  1.00  0.00     0.025 C 
HETATM   18 CL1  UNL     1      21.633   0.880  50.058  1.00  0.00    -0.088 Cl
HETATM   19  C12 UNL     1      20.665   1.773  52.410  1.00  0.00    -0.010 C 
HETATM   20  C13 UNL     1      19.640   0.692  52.344  1.00  0.00     0.037 C 
ENDBRANCH  16  17
ENDBRANCH  14  16
ENDBRANCH   5  14
TORSDOF 6
ENDMDL
MODEL 8
REMARK VINA RESULT:      -5.9      2.606      4.539
REMARK  6 active torsions:
REMARK  status: ('A' for Active; 'I' for Inactive)
REMARK    1  A    between atoms: C2_2  and  C4_5 
REMARK    2  A    between atoms: C4_5  and  O2_19 
REMARK    3  A    between atoms: C5_6  and  C6_7 
REMARK    4  A    between atoms: C8_11  and  N3_12 
REMARK    5  A    between atoms: N3_12  and  C10_14 
REMARK    6  A    between atoms: C10_14  and  C11_15 
ROOT
HETATM    1  C6  UNL     1      22.342   0.102  52.764  1.00  0.00     0.082 A 
HETATM    2  N1  UNL     1      21.300   0.439  53.420  1.00  0.00    -0.243 NA
HETATM    3  C7  UNL     1      21.245  -0.146  54.684  1.00  0.00     0.230 A 
HETATM    4  N2  UNL     1      22.268  -0.872  54.845  1.00  0.00    -0.251 NA
HETATM    5  C8  UNL     1      23.098  -0.792  53.623  1.00  0.00     0.258 A 
ENDROOT
BRANCH   1   6
HETATM    6  C5  UNL     1      22.360   0.725  51.462  1.00  0.00     0.068 C 
HETATM    7  C4  UNL     1      22.358   1.939  50.977  1.00  0.00     0.077 C 
BRANCH   7   8
HETATM    8  C2  UNL     1      22.338   3.185  51.724  1.00  0.00    -0.015 A 
HETATM    9  C1  UNL     1      21.189   3.841  51.999  1.00  0.00     0.047 A 
HETATM   10  O1  UNL     1      22.569   4.338  52.440  1.00  0.00     0.000 OA
HETATM   11  C3  UNL     1      23.413   5.345  51.877  1.00  0.00     0.000 C 
ENDBRANCH   7   8
BRANCH   7  12
HETATM   12  O2  UNL     1      22.378   2.103  49.596  1.00  0.00    -0.355 OA
HETATM   13  C14 UNL     1      21.595   1.221  48.821  1.00  0.00     0.210 C 
ENDBRANCH   7  12
ENDBRANCH   1   6
BRANCH   5  14
HETATM   14  N3  UNL     1      24.398  -0.346  53.984  1.00  0.00    -0.386 N 
HETATM   15  C9  UNL     1      24.989  -0.915  55.142  1.00  0.00     0.146 C 
BRANCH  14  16
HETATM   16  C10 UNL     1      25.353  -0.157  52.937  1.00  0.00     0.169 C 
BRANCH  16  17
HETATM   17  C11 UNL     1      26.173   1.087  53.212  1.00  0.00     0.025 C 
HETATM   18 CL1  UNL     1      25.294   2.553  53.612  1.00  0.00    -0.088 Cl
HETATM   19  C12 UNL     1      27.499   1.070  53.160  1.00  0.00    -0.010 C 
HETATM   20  C13 UNL     1      28.316   2.288  53.429  1.00  0.00     0.037 C 
ENDBRANCH  16  17
ENDBRANCH  14  16
ENDBRANCH   5  14
TORSDOF 6
ENDMDL
MODEL 9
REMARK VINA RESULT:      -5.8      3.063      5.589
REMARK  6 active torsions:
REMARK  status: ('A' for Active; 'I' for Inactive)
REMARK    1  A    between atoms: C2_2  and  C4_5 
REMARK    2  A    between atoms: C4_5  and  O2_19 
REMARK    3  A    between atoms: C5_6  and  C6_7 
REMARK    4  A    between atoms: C8_11  and  N3_12 
REMARK    5  A    between atoms: N3_12  and  C10_14 
REMARK    6  A    between atoms: C10_14  and  C11_15 
ROOT
HETATM    1  C6  UNL     1      24.026   1.209  52.558  1.00  0.00     0.082 A 
HETATM    2  N1  UNL     1      24.848   2.186  52.574  1.00  0.00    -0.243 NA
HETATM    3  C7  UNL     1      24.623   3.097  51.544  1.00  0.00     0.230 A 
HETATM    4  N2  UNL     1      23.640   2.700  50.853  1.00  0.00    -0.251 NA
HETATM    5  C8  UNL     1      23.138   1.435  51.432  1.00  0.00     0.258 A 
ENDROOT
BRANCH   1   6
HETATM    6  C5  UNL     1      24.293   0.289  53.638  1.00  0.00     0.068 C 
HETATM    7  C4  UNL     1      25.268  -0.498  54.012  1.00  0.00     0.077 C 
BRANCH   7   8
HETATM    8  C2  UNL     1      26.546  -0.692  53.349  1.00  0.00    -0.015 A 
HETATM    9  C1  UNL     1      26.778  -1.737  52.523  1.00  0.00     0.047 A 
HETATM   10  O1  UNL     1      27.825  -0.665  52.840  1.00  0.00     0.000 OA
HETATM   11  C3  UNL     1      28.931  -0.691  53.746  1.00  0.00     0.000 C 
ENDBRANCH   7   8
BRANCH   7  12
HETATM   12  O2  UNL     1      25.107  -1.252  55.169  1.00  0.00    -0.355 OA
HETATM   13  C14 UNL     1      23.797  -1.414  55.668  1.00  0.00     0.210 C 
ENDBRANCH   7  12
ENDBRANCH   1   6
BRANCH   5  14
HETATM   14  N3  UNL     1      21.764   1.595  51.753  1.00  0.00    -0.386 N 
HETATM   15  C9  UNL     1      21.283   2.918  51.941  1.00  0.00     0.146 C 
BRANCH  14  16
HETATM   16  C10 UNL     1      20.816   0.778  51.061  1.00  0.00     0.169 C 
BRANCH  16  17
HETATM   17  C11 UNL     1      19.932   0.062  52.061  1.00  0.00     0.025 C 
HETATM   18 CL1  UNL     1      20.673  -0.434  53.573  1.00  0.00    -0.088 Cl
HETATM   19  C12 UNL     1      18.651  -0.175  51.809  1.00  0.00    -0.010 C 
HETATM   20  C13 UNL     1      17.771  -0.879  52.786  1.00  0.00     0.037 C 
ENDBRANCH  16  17
ENDBRANCH  14  16
ENDBRANCH   5  14
TORSDOF 6
ENDMDL
