MODEL 1
REMARK VINA RESULT:      -7.7      0.000      0.000
REMARK  3 active torsions:
REMARK  status: ('A' for Active; 'I' for Inactive)
REMARK    1  A    between atoms: C1_2  and  C2_3 
REMARK    2  A    between atoms: C5_6  and  N1_7 
REMARK    3  A    between atoms: N1_7  and  C6_8 
ROOT
HETATM    1  C2  UNL     1      22.182  -0.457  53.369  1.00  0.00     0.045 A 
HETATM    2  C3  UNL     1      23.377   0.258  53.623  1.00  0.00     0.040 A 
HETATM    3  C4  UNL     1      23.753   1.167  52.673  1.00  0.00     0.047 A 
HETATM    4  C5  UNL     1      24.869   1.974  52.712  1.00  0.00     0.142 A 
HETATM    5  N2  UNL     1      25.098   2.817  51.705  1.00  0.00    -0.223 NA
HETATM    6  C12 UNL     1      24.329   2.968  50.619  1.00  0.00     0.236 A 
HETATM    7  N3  UNL     1      23.239   2.182  50.582  1.00  0.00    -0.234 NA
HETATM    8  C13 UNL     1      22.964   1.327  51.555  1.00  0.00     0.113 A 
HETATM    9  S1  UNL     1      21.653   0.184  51.814  1.00  0.00    -0.067 SA
ENDROOT
BRANCH   4  10
HETATM   10  N1  UNL     1      25.817   1.949  53.772  1.00  0.00    -0.340 N 
HETATM   11  H3  UNL     1      25.539   2.545  54.562  1.00  0.00     0.167 HD
BRANCH  10  12
HETATM   12  C6  UNL     1      27.003   1.157  53.684  1.00  0.00     0.035 A 
HETATM   13  C7  UNL     1      28.240   1.736  53.941  1.00  0.00     0.032 A 
HETATM   14  C8  UNL     1      29.388   0.965  53.834  1.00  0.00     0.046 A 
HETATM   15  C9  UNL     1      29.258  -0.358  53.476  1.00  0.00     0.138 A 
HETATM   16  F1  UNL     1      30.396  -1.071  53.380  1.00  0.00    -0.204 F 
HETATM   17  C10 UNL     1      28.040  -0.944  53.219  1.00  0.00     0.074 A 
HETATM   18 CL1  UNL     1      27.908  -2.650  52.757  1.00  0.00    -0.081 Cl
HETATM   19  C11 UNL     1      26.881  -0.176  53.325  1.00  0.00     0.056 A 
ENDBRANCH  10  12
ENDBRANCH   4  10
BRANCH   1  20
HETATM   20  C1  UNL     1      21.521  -1.467  54.155  1.00  0.00     0.277 C 
HETATM   21  O1  UNL     1      21.926  -1.625  55.332  1.00  0.00    -0.301 OA
ENDBRANCH   1  20
TORSDOF 3
ENDMDL
MODEL 2
REMARK VINA RESULT:      -7.5      2.303      2.419
REMARK  3 active torsions:
REMARK  status: ('A' for Active; 'I' for Inactive)
REMARK    1  A    between atoms: C1_2  and  C2_3 
REMARK    2  A    between atoms: C5_6  and  N1_7 
REMARK    3  A    between atoms: N1_7  and  C6_8 
ROOT
HETATM    1  C2  UNL     1      21.989   2.734  51.955  1.00  0.00     0.045 A 
HETATM    2  C3  UNL     1      23.303   2.607  52.463  1.00  0.00     0.040 A 
HETATM    3  C4  UNL     1      24.319   2.850  51.580  1.00  0.00     0.047 A 
HETATM    4  C5  UNL     1      25.669   2.791  51.853  1.00  0.00     0.142 A 
HETATM    5  N2  UNL     1      26.541   3.060  50.881  1.00  0.00    -0.223 NA
HETATM    6  C12 UNL     1      26.233   3.394  49.621  1.00  0.00     0.236 A 
HETATM    7  N3  UNL     1      24.916   3.452  49.356  1.00  0.00    -0.234 NA
HETATM    8  C13 UNL     1      24.007   3.195  50.283  1.00  0.00     0.113 A 
HETATM    9  S1  UNL     1      22.249   3.186  50.271  1.00  0.00    -0.067 SA
ENDROOT
BRANCH   4  10
HETATM   10  N1  UNL     1      26.196   2.437  53.126  1.00  0.00    -0.340 N 
HETATM   11  H3  UNL     1      25.796   3.001  53.887  1.00  0.00     0.167 HD
BRANCH  10  12
HETATM   12  C6  UNL     1      27.170   1.402  53.260  1.00  0.00     0.035 A 
HETATM   13  C7  UNL     1      28.447   1.710  53.718  1.00  0.00     0.032 A 
HETATM   14  C8  UNL     1      29.392   0.702  53.826  1.00  0.00     0.046 A 
HETATM   15  C9  UNL     1      29.029  -0.579  53.475  1.00  0.00     0.138 A 
HETATM   16  F1  UNL     1      29.977  -1.528  53.592  1.00  0.00    -0.204 F 
HETATM   17  C10 UNL     1      27.771  -0.898  53.021  1.00  0.00     0.074 A 
HETATM   18 CL1  UNL     1      27.336  -2.557  52.574  1.00  0.00    -0.081 Cl
HETATM   19  C11 UNL     1      26.813   0.110  52.910  1.00  0.00     0.056 A 
ENDBRANCH  10  12
ENDBRANCH   4  10
BRANCH   1  20
HETATM   20  C1  UNL     1      20.719   2.551  52.612  1.00  0.00     0.277 C 
HETATM   21  O1  UNL     1      19.831   3.406  52.381  1.00  0.00    -0.301 OA
ENDBRANCH   1  20
TORSDOF 3
ENDMDL
MODEL 3
REMARK VINA RESULT:      -7.5      2.642      3.571
REMARK  3 active torsions:
REMARK  status: ('A' for Active; 'I' for Inactive)
REMARK    1  A    between atoms: C1_2  and  C2_3 
REMARK    2  A    between atoms: C5_6  and  N1_7 
REMARK    3  A    between atoms: N1_7  and  C6_8 
ROOT
HETATM    1  C2  UNL     1      20.596   0.542  52.145  1.00  0.00     0.045 A 
HETATM    2  C3  UNL     1      22.009   0.547  52.219  1.00  0.00     0.040 A 
HETATM    3  C4  UNL     1      22.561  -0.092  53.295  1.00  0.00     0.047 A 
HETATM    4  C5  UNL     1      23.907  -0.217  53.567  1.00  0.00     0.142 A 
HETATM    5  N2  UNL     1      24.290  -0.875  54.661  1.00  0.00    -0.223 NA
HETATM    6  C12 UNL     1      23.476  -1.450  55.556  1.00  0.00     0.236 A 
HETATM    7  N3  UNL     1      22.164  -1.329  55.289  1.00  0.00    -0.234 NA
HETATM    8  C13 UNL     1      21.728  -0.685  54.217  1.00  0.00     0.113 A 
HETATM    9  S1  UNL     1      20.120  -0.355  53.586  1.00  0.00    -0.067 SA
ENDROOT
BRANCH   4  10
HETATM   10  N1  UNL     1      24.927   0.339  52.746  1.00  0.00    -0.340 N 
HETATM   11  H3  UNL     1      24.548   0.923  51.990  1.00  0.00     0.167 HD
BRANCH  10  12
HETATM   12  C6  UNL     1      26.307   0.075  53.003  1.00  0.00     0.035 A 
HETATM   13  C7  UNL     1      26.835  -1.179  52.717  1.00  0.00     0.032 A 
HETATM   14  C8  UNL     1      28.171  -1.433  52.987  1.00  0.00     0.046 A 
HETATM   15  C9  UNL     1      28.932  -0.425  53.534  1.00  0.00     0.138 A 
HETATM   16  F1  UNL     1      30.223  -0.713  53.785  1.00  0.00    -0.204 F 
HETATM   17  C10 UNL     1      28.423   0.820  53.823  1.00  0.00     0.074 A 
HETATM   18 CL1  UNL     1      29.431   2.095  54.530  1.00  0.00    -0.081 Cl
HETATM   19  C11 UNL     1      27.080   1.084  53.553  1.00  0.00     0.056 A 
ENDBRANCH  10  12
ENDBRANCH   4  10
BRANCH   1  20
HETATM   20  C1  UNL     1      19.717   1.114  51.157  1.00  0.00     0.277 C 
HETATM   21  O1  UNL     1      18.646   1.618  51.572  1.00  0.00    -0.301 OA
ENDBRANCH   1  20
TORSDOF 3
ENDMDL
MODEL 4
REMARK VINA RESULT:      -7.1      2.976      4.097
REMARK  3 active torsions:
REMARK  status: ('A' for Active; 'I' for Inactive)
REMARK    1  A    between atoms: C1_2  and  C2_3 
REMARK    2  A    between atoms: C5_6  and  N1_7 
REMARK    3  A    between atoms: N1_7  and  C6_8 
ROOT
HETATM    1  C2  UNL     1      24.928   3.450  49.959  1.00  0.00     0.045 A 
HETATM    2  C3  UNL     1      24.870   2.691  51.152  1.00  0.00     0.040 A 
HETATM    3  C4  UNL     1      23.775   1.885  51.304  1.00  0.00     0.047 A 
HETATM    4  C5  UNL     1      23.512   1.060  52.376  1.00  0.00     0.142 A 
HETATM    5  N2  UNL     1      22.397   0.329  52.375  1.00  0.00    -0.223 NA
HETATM    6  C12 UNL     1      21.471   0.311  51.407  1.00  0.00     0.236 A 
HETATM    7  N3  UNL     1      21.729   1.116  50.361  1.00  0.00    -0.234 NA
HETATM    8  C13 UNL     1      22.821   1.863  50.311  1.00  0.00     0.113 A 
HETATM    9  S1  UNL     1      23.448   2.993  49.118  1.00  0.00    -0.067 SA
ENDROOT
BRANCH   4  10
HETATM   10  N1  UNL     1      24.365   0.951  53.509  1.00  0.00    -0.340 N 
HETATM   11  H3  UNL     1      23.938   1.340  54.360  1.00  0.00     0.167 HD
BRANCH  10  12
HETATM   12  C6  UNL     1      25.658   0.354  53.406  1.00  0.00     0.035 A 
HETATM   13  C7  UNL     1      25.797  -0.890  52.801  1.00  0.00     0.032 A 
HETATM   14  C8  UNL     1      27.054  -1.471  52.723  1.00  0.00     0.046 A 
HETATM   15  C9  UNL     1      28.126  -0.789  53.251  1.00  0.00     0.138 A 
HETATM   16  F1  UNL     1      29.327  -1.389  53.157  1.00  0.00    -0.204 F 
HETATM   17  C10 UNL     1      28.003   0.441  53.852  1.00  0.00     0.074 A 
HETATM   18 CL1  UNL     1      29.405   1.292  54.526  1.00  0.00    -0.081 Cl
HETATM   19  C11 UNL     1      26.743   1.034  53.935  1.00  0.00     0.056 A 
ENDBRANCH  10  12
ENDBRANCH   4  10
BRANCH   1  20
HETATM   20  C1  UNL     1      25.930   4.378  49.500  1.00  0.00     0.277 C 
HETATM   21  O1  UNL     1      27.111   3.960  49.450  1.00  0.00    -0.301 OA
ENDBRANCH   1  20
TORSDOF 3
ENDMDL
MODEL 5
REMARK VINA RESULT:      -7.0      3.584      5.185
REMARK  3 active torsions:
REMARK  status: ('A' for Active; 'I' for Inactive)
REMARK    1  A    between atoms: C1_2  and  C2_3 
REMARK    2  A    between atoms: C5_6  and  N1_7 
REMARK    3  A    between atoms: N1_7  and  C6_8 
ROOT
HETATM    1  C2  UNL     1      23.620  -0.836  54.136  1.00  0.00     0.045 A 
HETATM    2  C3  UNL     1      24.358  -0.193  53.114  1.00  0.00     0.040 A 
HETATM    3  C4  UNL     1      25.641   0.164  53.428  1.00  0.00     0.047 A 
HETATM    4  C5  UNL     1      26.539   0.792  52.593  1.00  0.00     0.142 A 
HETATM    5  N2  UNL     1      27.762   1.072  53.047  1.00  0.00    -0.223 NA
HETATM    6  C12 UNL     1      28.225   0.797  54.272  1.00  0.00     0.236 A 
HETATM    7  N3  UNL     1      27.349   0.182  55.086  1.00  0.00    -0.234 NA
HETATM    8  C13 UNL     1      26.123  -0.119  54.687  1.00  0.00     0.113 A 
HETATM    9  S1  UNL     1      24.762  -0.905  55.476  1.00  0.00    -0.067 SA
ENDROOT
BRANCH   4  10
HETATM   10  N1  UNL     1      26.231   1.182  51.260  1.00  0.00    -0.340 N 
HETATM   11  H3  UNL     1      26.343   0.411  50.590  1.00  0.00     0.167 HD
BRANCH  10  12
HETATM   12  C6  UNL     1      25.814   2.515  50.958  1.00  0.00     0.035 A 
HETATM   13  C7  UNL     1      24.669   3.032  51.555  1.00  0.00     0.032 A 
HETATM   14  C8  UNL     1      24.261   4.319  51.241  1.00  0.00     0.046 A 
HETATM   15  C9  UNL     1      25.010   5.045  50.344  1.00  0.00     0.138 A 
HETATM   16  F1  UNL     1      24.578   6.288  50.064  1.00  0.00    -0.204 F 
HETATM   17  C10 UNL     1      26.144   4.546  49.746  1.00  0.00     0.074 A 
HETATM   18 CL1  UNL     1      27.086   5.507  48.591  1.00  0.00    -0.081 Cl
HETATM   19  C11 UNL     1      26.563   3.252  50.056  1.00  0.00     0.056 A 
ENDBRANCH  10  12
ENDBRANCH   4  10
BRANCH   1  20
HETATM   20  C1  UNL     1      22.267  -1.332  54.130  1.00  0.00     0.277 C 
HETATM   21  O1  UNL     1      21.807  -1.740  55.223  1.00  0.00    -0.301 OA
ENDBRANCH   1  20
TORSDOF 3
ENDMDL
MODEL 6
REMARK VINA RESULT:      -6.9      3.770      5.070
REMARK  3 active torsions:
REMARK  status: ('A' for Active; 'I' for Inactive)
REMARK    1  A    between atoms: C1_2  and  C2_3 
REMARK    2  A    between atoms: C5_6  and  N1_7 
REMARK    3  A    between atoms: N1_7  and  C6_8 
ROOT
HETATM    1  C2  UNL     1      26.222   5.230  49.406  1.00  0.00     0.045 A 
HETATM    2  C3  UNL     1      25.798   4.003  49.969  1.00  0.00     0.040 A 
HETATM    3  C4  UNL     1      24.684   4.052  50.762  1.00  0.00     0.047 A 
HETATM    4  C5  UNL     1      24.093   2.987  51.405  1.00  0.00     0.142 A 
HETATM    5  N2  UNL     1      23.002   3.197  52.142  1.00  0.00    -0.223 NA
HETATM    6  C12 UNL     1      22.399   4.378  52.331  1.00  0.00     0.236 A 
HETATM    7  N3  UNL     1      22.975   5.417  51.702  1.00  0.00    -0.234 NA
HETATM    8  C13 UNL     1      24.059   5.264  50.957  1.00  0.00     0.113 A 
HETATM    9  S1  UNL     1      25.038   6.384  50.018  1.00  0.00    -0.067 SA
ENDROOT
BRANCH   4  10
HETATM   10  N1  UNL     1      24.594   1.657  51.342  1.00  0.00    -0.340 N 
HETATM   11  H3  UNL     1      24.239   1.142  50.527  1.00  0.00     0.167 HD
BRANCH  10  12
HETATM   12  C6  UNL     1      25.491   1.158  52.335  1.00  0.00     0.035 A 
HETATM   13  C7  UNL     1      26.859   1.361  52.193  1.00  0.00     0.032 A 
HETATM   14  C8  UNL     1      27.725   0.857  53.152  1.00  0.00     0.046 A 
HETATM   15  C9  UNL     1      27.193   0.169  54.219  1.00  0.00     0.138 A 
HETATM   16  F1  UNL     1      28.067  -0.307  55.125  1.00  0.00    -0.204 F 
HETATM   17  C10 UNL     1      25.842  -0.039  54.372  1.00  0.00     0.074 A 
HETATM   18 CL1  UNL     1      25.190  -0.933  55.757  1.00  0.00    -0.081 Cl
HETATM   19  C11 UNL     1      24.964   0.465  53.412  1.00  0.00     0.056 A 
ENDBRANCH  10  12
ENDBRANCH   4  10
BRANCH   1  20
HETATM   20  C1  UNL     1      27.337   5.517  48.541  1.00  0.00     0.277 C 
HETATM   21  O1  UNL     1      28.267   4.674  48.514  1.00  0.00    -0.301 OA
ENDBRANCH   1  20
TORSDOF 3
ENDMDL
MODEL 7
REMARK VINA RESULT:      -6.9      4.021      6.055
REMARK  3 active torsions:
REMARK  status: ('A' for Active; 'I' for Inactive)
REMARK    1  A    between atoms: C1_2  and  C2_3 
REMARK    2  A    between atoms: C5_6  and  N1_7 
REMARK    3  A    between atoms: N1_7  and  C6_8 
ROOT
HETATM    1  C2  UNL     1      25.768  -0.107  54.186  1.00  0.00     0.045 A 
HETATM    2  C3  UNL     1      24.740   0.166  53.253  1.00  0.00     0.040 A 
HETATM    3  C4  UNL     1      23.497  -0.313  53.565  1.00  0.00     0.047 A 
HETATM    4  C5  UNL     1      22.353  -0.164  52.811  1.00  0.00     0.142 A 
HETATM    5  N2  UNL     1      21.210  -0.688  53.254  1.00  0.00    -0.223 NA
HETATM    6  C12 UNL     1      21.050  -1.369  54.396  1.00  0.00     0.236 A 
HETATM    7  N3  UNL     1      22.167  -1.514  55.132  1.00  0.00    -0.234 NA
HETATM    8  C13 UNL     1      23.328  -1.013  54.739  1.00  0.00     0.113 A 
HETATM    9  S1  UNL     1      24.938  -1.018  55.447  1.00  0.00    -0.067 SA
ENDROOT
BRANCH   4  10
HETATM   10  N1  UNL     1      22.321   0.512  51.560  1.00  0.00    -0.340 N 
HETATM   11  H3  UNL     1      22.132  -0.124  50.775  1.00  0.00     0.167 HD
BRANCH  10  12
HETATM   12  C6  UNL     1      22.534   1.922  51.477  1.00  0.00     0.035 A 
HETATM   13  C7  UNL     1      21.816   2.778  52.304  1.00  0.00     0.032 A 
HETATM   14  C8  UNL     1      22.014   4.147  52.203  1.00  0.00     0.046 A 
HETATM   15  C9  UNL     1      22.924   4.611  51.280  1.00  0.00     0.138 A 
HETATM   16  F1  UNL     1      23.085   5.946  51.212  1.00  0.00    -0.204 F 
HETATM   17  C10 UNL     1      23.641   3.776  50.456  1.00  0.00     0.074 A 
HETATM   18 CL1  UNL     1      24.804   4.407  49.276  1.00  0.00    -0.081 Cl
HETATM   19  C11 UNL     1      23.448   2.398  50.551  1.00  0.00     0.056 A 
ENDBRANCH  10  12
ENDBRANCH   4  10
BRANCH   1  20
HETATM   20  C1  UNL     1      27.164   0.251  54.159  1.00  0.00     0.277 C 
HETATM   21  O1  UNL     1      27.925  -0.369  54.940  1.00  0.00    -0.301 OA
ENDBRANCH   1  20
TORSDOF 3
ENDMDL
MODEL 8
REMARK VINA RESULT:      -6.9      4.639      6.503
REMARK  3 active torsions:
REMARK  status: ('A' for Active; 'I' for Inactive)
REMARK    1  A    between atoms: C1_2  and  C2_3 
REMARK    2  A    between atoms: C5_6  and  N1_7 
REMARK    3  A    between atoms: N1_7  and  C6_8 
ROOT
HETATM    1  C2  UNL     1      27.526   1.116  53.875  1.00  0.00     0.045 A 
HETATM    2  C3  UNL     1      26.555   2.098  53.568  1.00  0.00     0.040 A 
HETATM    3  C4  UNL     1      25.288   1.642  53.327  1.00  0.00     0.047 A 
HETATM    4  C5  UNL     1      24.189   2.413  53.015  1.00  0.00     0.142 A 
HETATM    5  N2  UNL     1      23.014   1.817  52.811  1.00  0.00    -0.223 NA
HETATM    6  C12 UNL     1      22.780   0.500  52.879  1.00  0.00     0.236 A 
HETATM    7  N3  UNL     1      23.853  -0.251  53.184  1.00  0.00    -0.234 NA
HETATM    8  C13 UNL     1      25.042   0.288  53.397  1.00  0.00     0.113 A 
HETATM    9  S1  UNL     1      26.612  -0.390  53.809  1.00  0.00    -0.067 SA
ENDROOT
BRANCH   4  10
HETATM   10  N1  UNL     1      24.238   3.828  52.880  1.00  0.00    -0.340 N 
HETATM   11  H3  UNL     1      24.318   4.307  53.786  1.00  0.00     0.167 HD
BRANCH  10  12
HETATM   12  C6  UNL     1      24.180   4.450  51.595  1.00  0.00     0.035 A 
HETATM   13  C7  UNL     1      24.770   3.828  50.501  1.00  0.00     0.032 A 
HETATM   14  C8  UNL     1      24.726   4.448  49.261  1.00  0.00     0.046 A 
HETATM   15  C9  UNL     1      24.093   5.666  49.159  1.00  0.00     0.138 A 
HETATM   16  F1  UNL     1      24.075   6.235  47.939  1.00  0.00    -0.204 F 
HETATM   17  C10 UNL     1      23.505   6.292  50.233  1.00  0.00     0.074 A 
HETATM   18 CL1  UNL     1      22.700   7.863  50.067  1.00  0.00    -0.081 Cl
HETATM   19  C11 UNL     1      23.544   5.675  51.484  1.00  0.00     0.056 A 
ENDBRANCH  10  12
ENDBRANCH   4  10
BRANCH   1  20
HETATM   20  C1  UNL     1      28.928   1.261  54.177  1.00  0.00     0.277 C 
HETATM   21  O1  UNL     1      29.302   2.375  54.615  1.00  0.00    -0.301 OA
ENDBRANCH   1  20
TORSDOF 3
ENDMDL
MODEL 9
REMARK VINA RESULT:      -6.9      4.082      5.740
REMARK  3 active torsions:
REMARK  status: ('A' for Active; 'I' for Inactive)
REMARK    1  A    between atoms: C1_2  and  C2_3 
REMARK    2  A    between atoms: C5_6  and  N1_7 
REMARK    3  A    between atoms: N1_7  and  C6_8 
ROOT
HETATM    1  C2  UNL     1      26.147   5.408  49.283  1.00  0.00     0.045 A 
HETATM    2  C3  UNL     1      25.388   4.273  49.657  1.00  0.00     0.040 A 
HETATM    3  C4  UNL     1      24.229   4.519  50.340  1.00  0.00     0.047 A 
HETATM    4  C5  UNL     1      23.336   3.573  50.797  1.00  0.00     0.142 A 
HETATM    5  N2  UNL     1      22.243   3.973  51.447  1.00  0.00    -0.223 NA
HETATM    6  C12 UNL     1      21.909   5.242  51.713  1.00  0.00     0.236 A 
HETATM    7  N3  UNL     1      22.780   6.164  51.267  1.00  0.00    -0.234 NA
HETATM    8  C13 UNL     1      23.881   5.823  50.615  1.00  0.00     0.113 A 
HETATM    9  S1  UNL     1      25.196   6.753  49.910  1.00  0.00    -0.067 SA
ENDROOT
BRANCH   4  10
HETATM   10  N1  UNL     1      23.522   2.173  50.628  1.00  0.00    -0.340 N 
HETATM   11  H3  UNL     1      23.286   1.858  49.678  1.00  0.00     0.167 HD
BRANCH  10  12
HETATM   12  C6  UNL     1      23.991   1.356  51.701  1.00  0.00     0.035 A 
HETATM   13  C7  UNL     1      25.357   1.224  51.922  1.00  0.00     0.032 A 
HETATM   14  C8  UNL     1      25.804   0.413  52.953  1.00  0.00     0.046 A 
HETATM   15  C9  UNL     1      24.871  -0.237  53.728  1.00  0.00     0.138 A 
HETATM   16  F1  UNL     1      25.346  -1.017  54.717  1.00  0.00    -0.204 F 
HETATM   17  C10 UNL     1      23.517  -0.116  53.521  1.00  0.00     0.074 A 
HETATM   18 CL1  UNL     1      22.341  -0.970  54.536  1.00  0.00    -0.081 Cl
HETATM   19  C11 UNL     1      23.058   0.699  52.486  1.00  0.00     0.056 A 
ENDBRANCH  10  12
ENDBRANCH   4  10
BRANCH   1  20
HETATM   20  C1  UNL     1      27.394   5.494  48.566  1.00  0.00     0.277 C 
HETATM   21  O1  UNL     1      28.146   4.490  48.611  1.00  0.00    -0.301 OA
ENDBRANCH   1  20
TORSDOF 3
ENDMDL
