MODEL 1
REMARK VINA RESULT:      -7.1      0.000      0.000
REMARK  5 active torsions:
REMARK  status: ('A' for Active; 'I' for Inactive)
REMARK    1  A    between atoms: C3_3  and  N1_4 
REMARK    2  A    between atoms: N1_4  and  C4_5 
REMARK    3  A    between atoms: C4_5  and  C5_6 
REMARK    4  A    between atoms: C6_7  and  C7_8 
REMARK    5  A    between atoms: C9_13  and  C10_14 
ROOT
HETATM    1  C1  UNL     1      26.084   1.230  51.627  1.00  0.00     0.054 C 
HETATM    2  C2  UNL     1      24.680   1.076  52.016  1.00  0.00     0.009 A 
HETATM    3  C3  UNL     1      24.537   0.265  53.146  1.00  0.00     0.133 A 
HETATM    4  N2  UNL     1      23.296   0.009  53.654  1.00  0.00    -0.224 NA
HETATM    5  C8  UNL     1      22.187   0.522  53.094  1.00  0.00     0.235 A 
HETATM    6  N3  UNL     1      22.325   1.301  52.009  1.00  0.00    -0.245 NA
HETATM    7  C9  UNL     1      23.529   1.572  51.484  1.00  0.00     0.054 A 
ENDROOT
BRANCH   7   8
HETATM    8  C10 UNL     1      23.751   2.435  50.272  1.00  0.00     0.097 C 
HETATM    9  C11 UNL     1      22.453   2.413  49.441  1.00  0.00     0.180 C 
HETATM   10  O1  UNL     1      22.716   3.094  48.330  1.00  0.00    -0.390 OA
HETATM   11  C12 UNL     1      21.761   3.464  47.443  1.00  0.00     0.169 C 
HETATM   12  C13 UNL     1      20.727   4.377  48.095  1.00  0.00     0.046 C 
HETATM   13  C14 UNL     1      21.453   5.506  48.823  1.00  0.00     0.120 C 
HETATM   14  N4  UNL     1      22.294   5.125  49.838  1.00  0.00    -0.387 N 
HETATM   15  C15 UNL     1      23.657   4.861  49.726  1.00  0.00     0.155 C 
HETATM   16  C18 UNL     1      21.851   4.940  51.167  1.00  0.00     0.393 C 
HETATM   17  C16 UNL     1      23.905   3.861  50.820  1.00  0.00     0.254 C 
HETATM   18  N5  UNL     1      22.873   4.111  51.819  1.00  0.00     0.108 N 
HETATM   19  C17 UNL     1      23.453   4.796  52.980  1.00  0.00     0.312 C 
ENDBRANCH   7   8
BRANCH   3  20
HETATM   20  N1  UNL     1      25.562  -0.363  53.876  1.00  0.00    -0.371 N 
HETATM   21  H4  UNL     1      25.735  -1.351  53.599  1.00  0.00     0.161 HD
BRANCH  20  22
HETATM   22  C4  UNL     1      26.371   0.207  54.937  1.00  0.00     0.148 C 
BRANCH  22  23
HETATM   23  C5  UNL     1      27.808   0.123  54.611  1.00  0.00    -0.009 C 
HETATM   24  C6  UNL     1      28.579  -0.438  53.708  1.00  0.00     0.002 C 
BRANCH  24  25
HETATM   25  C7  UNL     1      30.077  -0.356  53.607  1.00  0.00     0.249 C 
HETATM   26  F1  UNL     1      30.627  -1.528  54.110  1.00  0.00    -0.251 F 
ENDBRANCH  24  25
ENDBRANCH  22  23
ENDBRANCH  20  22
ENDBRANCH   3  20
TORSDOF 5
ENDMDL
MODEL 2
REMARK VINA RESULT:      -6.8      3.465      6.163
REMARK  5 active torsions:
REMARK  status: ('A' for Active; 'I' for Inactive)
REMARK    1  A    between atoms: C3_3  and  N1_4 
REMARK    2  A    between atoms: N1_4  and  C4_5 
REMARK    3  A    between atoms: C4_5  and  C5_6 
REMARK    4  A    between atoms: C6_7  and  C7_8 
REMARK    5  A    between atoms: C9_13  and  C10_14 
ROOT
HETATM    1  C1  UNL     1      23.352   3.060  48.938  1.00  0.00     0.054 C 
HETATM    2  C2  UNL     1      23.292   3.700  50.255  1.00  0.00     0.009 A 
HETATM    3  C3  UNL     1      23.375   5.092  50.163  1.00  0.00     0.133 A 
HETATM    4  N2  UNL     1      23.336   5.858  51.293  1.00  0.00    -0.224 NA
HETATM    5  C8  UNL     1      23.217   5.306  52.513  1.00  0.00     0.235 A 
HETATM    6  N3  UNL     1      23.137   3.968  52.600  1.00  0.00    -0.245 NA
HETATM    7  C9  UNL     1      23.173   3.187  51.511  1.00  0.00     0.054 A 
ENDROOT
BRANCH   7   8
HETATM    8  C10 UNL     1      23.090   1.685  51.541  1.00  0.00     0.097 C 
HETATM    9  C11 UNL     1      23.204   1.242  53.013  1.00  0.00     0.180 C 
HETATM   10  O1  UNL     1      23.233  -0.087  52.995  1.00  0.00    -0.390 OA
HETATM   11  C12 UNL     1      23.126  -0.847  54.112  1.00  0.00     0.169 C 
HETATM   12  C13 UNL     1      21.796  -0.604  54.818  1.00  0.00     0.046 C 
HETATM   13  C14 UNL     1      20.665  -0.729  53.799  1.00  0.00     0.120 C 
HETATM   14  N4  UNL     1      20.692   0.163  52.757  1.00  0.00    -0.387 N 
HETATM   15  C15 UNL     1      21.293  -0.036  51.516  1.00  0.00     0.155 C 
HETATM   16  C18 UNL     1      20.096   1.441  52.831  1.00  0.00     0.393 C 
HETATM   17  C16 UNL     1      21.661   1.356  51.085  1.00  0.00     0.254 C 
HETATM   18  N5  UNL     1      20.719   2.237  51.766  1.00  0.00     0.108 N 
HETATM   19  C17 UNL     1      19.717   2.732  50.815  1.00  0.00     0.312 C 
ENDBRANCH   7   8
BRANCH   3  20
HETATM   20  N1  UNL     1      23.502   5.860  48.993  1.00  0.00    -0.371 N 
HETATM   21  H4  UNL     1      22.700   5.769  48.336  1.00  0.00     0.161 HD
BRANCH  20  22
HETATM   22  C4  UNL     1      24.598   6.736  48.621  1.00  0.00     0.148 C 
BRANCH  22  23
HETATM   23  C5  UNL     1      25.875   5.998  48.579  1.00  0.00    -0.009 C 
HETATM   24  C6  UNL     1      27.155   6.258  48.448  1.00  0.00     0.002 C 
BRANCH  24  25
HETATM   25  C7  UNL     1      28.292   5.273  48.440  1.00  0.00     0.249 C 
HETATM   26  F1  UNL     1      27.780   3.993  48.602  1.00  0.00    -0.251 F 
ENDBRANCH  24  25
ENDBRANCH  22  23
ENDBRANCH  20  22
ENDBRANCH   3  20
TORSDOF 5
ENDMDL
MODEL 3
REMARK VINA RESULT:      -6.7      1.725      2.940
REMARK  5 active torsions:
REMARK  status: ('A' for Active; 'I' for Inactive)
REMARK    1  A    between atoms: C3_3  and  N1_4 
REMARK    2  A    between atoms: N1_4  and  C4_5 
REMARK    3  A    between atoms: C4_5  and  C5_6 
REMARK    4  A    between atoms: C6_7  and  C7_8 
REMARK    5  A    between atoms: C9_13  and  C10_14 
ROOT
HETATM    1  C1  UNL     1      23.003   1.383  52.968  1.00  0.00     0.054 C 
HETATM    2  C2  UNL     1      24.041   2.048  52.175  1.00  0.00     0.009 A 
HETATM    3  C3  UNL     1      25.221   1.300  52.127  1.00  0.00     0.133 A 
HETATM    4  N2  UNL     1      26.300   1.764  51.431  1.00  0.00    -0.224 NA
HETATM    5  C8  UNL     1      26.264   2.938  50.778  1.00  0.00     0.235 A 
HETATM    6  N3  UNL     1      25.129   3.656  50.824  1.00  0.00    -0.245 NA
HETATM    7  C9  UNL     1      24.052   3.230  51.498  1.00  0.00     0.054 A 
ENDROOT
BRANCH   7   8
HETATM    8  C10 UNL     1      22.754   3.986  51.589  1.00  0.00     0.097 C 
HETATM    9  C11 UNL     1      23.027   5.434  51.136  1.00  0.00     0.180 C 
HETATM   10  O1  UNL     1      21.892   6.099  51.329  1.00  0.00    -0.390 OA
HETATM   11  C12 UNL     1      21.677   7.352  50.860  1.00  0.00     0.169 C 
HETATM   12  C13 UNL     1      21.775   7.396  49.339  1.00  0.00     0.046 C 
HETATM   13  C14 UNL     1      20.895   6.292  48.754  1.00  0.00     0.120 C 
HETATM   14  N4  UNL     1      21.230   5.008  49.104  1.00  0.00    -0.387 N 
HETATM   15  C15 UNL     1      20.724   4.287  50.183  1.00  0.00     0.155 C 
HETATM   16  C18 UNL     1      22.173   4.242  48.383  1.00  0.00     0.393 C 
HETATM   17  C16 UNL     1      21.846   3.349  50.528  1.00  0.00     0.254 C 
HETATM   18  N5  UNL     1      22.597   3.169  49.291  1.00  0.00     0.108 N 
HETATM   19  C17 UNL     1      22.317   1.846  48.720  1.00  0.00     0.312 C 
ENDBRANCH   7   8
BRANCH   3  20
HETATM   20  N1  UNL     1      25.464   0.056  52.736  1.00  0.00    -0.371 N 
HETATM   21  H4  UNL     1      25.220  -0.762  52.142  1.00  0.00     0.161 HD
BRANCH  20  22
HETATM   22  C4  UNL     1      26.001  -0.191  54.062  1.00  0.00     0.148 C 
BRANCH  22  23
HETATM   23  C5  UNL     1      27.475  -0.115  54.060  1.00  0.00    -0.009 C 
HETATM   24  C6  UNL     1      28.479  -0.544  53.332  1.00  0.00     0.002 C 
BRANCH  24  25
HETATM   25  C7  UNL     1      29.945  -0.310  53.568  1.00  0.00     0.249 C 
HETATM   26  F1  UNL     1      30.511  -1.472  54.078  1.00  0.00    -0.251 F 
ENDBRANCH  24  25
ENDBRANCH  22  23
ENDBRANCH  20  22
ENDBRANCH   3  20
TORSDOF 5
ENDMDL
MODEL 4
REMARK VINA RESULT:      -6.6      2.341      3.580
REMARK  5 active torsions:
REMARK  status: ('A' for Active; 'I' for Inactive)
REMARK    1  A    between atoms: C3_3  and  N1_4 
REMARK    2  A    between atoms: N1_4  and  C4_5 
REMARK    3  A    between atoms: C4_5  and  C5_6 
REMARK    4  A    between atoms: C6_7  and  C7_8 
REMARK    5  A    between atoms: C9_13  and  C10_14 
ROOT
HETATM    1  C1  UNL     1      24.250   3.223  53.181  1.00  0.00     0.054 C 
HETATM    2  C2  UNL     1      23.752   2.923  51.837  1.00  0.00     0.009 A 
HETATM    3  C3  UNL     1      22.903   1.812  51.829  1.00  0.00     0.133 A 
HETATM    4  N2  UNL     1      22.343   1.384  50.660  1.00  0.00    -0.224 NA
HETATM    5  C8  UNL     1      22.584   2.009  49.494  1.00  0.00     0.235 A 
HETATM    6  N3  UNL     1      23.399   3.077  49.502  1.00  0.00    -0.245 NA
HETATM    7  C9  UNL     1      23.966   3.522  50.632  1.00  0.00     0.054 A 
ENDROOT
BRANCH   7   8
HETATM    8  C10 UNL     1      24.887   4.709  50.708  1.00  0.00     0.097 C 
HETATM    9  C11 UNL     1      25.385   5.004  49.279  1.00  0.00     0.180 C 
HETATM   10  O1  UNL     1      26.275   5.985  49.395  1.00  0.00    -0.390 OA
HETATM   11  C12 UNL     1      26.783   6.655  48.332  1.00  0.00     0.169 C 
HETATM   12  C13 UNL     1      25.682   7.363  47.549  1.00  0.00     0.046 C 
HETATM   13  C14 UNL     1      24.829   8.177  48.520  1.00  0.00     0.120 C 
HETATM   14  N4  UNL     1      24.180   7.461  49.495  1.00  0.00    -0.387 N 
HETATM   15  C15 UNL     1      24.658   7.186  50.774  1.00  0.00     0.155 C 
HETATM   16  C18 UNL     1      22.902   6.892  49.301  1.00  0.00     0.393 C 
HETATM   17  C16 UNL     1      23.989   5.885  51.120  1.00  0.00     0.254 C 
HETATM   18  N5  UNL     1      22.762   5.857  50.333  1.00  0.00     0.108 N 
HETATM   19  C17 UNL     1      21.605   6.120  51.197  1.00  0.00     0.312 C 
ENDBRANCH   7   8
BRANCH   3  20
HETATM   20  N1  UNL     1      22.525   1.025  52.931  1.00  0.00    -0.371 N 
HETATM   21  H4  UNL     1      21.912   1.516  53.613  1.00  0.00     0.161 HD
BRANCH  20  22
HETATM   22  C4  UNL     1      22.891  -0.353  53.204  1.00  0.00     0.148 C 
BRANCH  22  23
HETATM   23  C5  UNL     1      24.347  -0.552  53.066  1.00  0.00    -0.009 C 
HETATM   24  C6  UNL     1      25.445  -0.252  53.720  1.00  0.00     0.002 C 
BRANCH  24  25
HETATM   25  C7  UNL     1      26.859  -0.594  53.337  1.00  0.00     0.249 C 
HETATM   26  F1  UNL     1      27.012  -0.414  51.969  1.00  0.00    -0.251 F 
ENDBRANCH  24  25
ENDBRANCH  22  23
ENDBRANCH  20  22
ENDBRANCH   3  20
TORSDOF 5
ENDMDL
MODEL 5
REMARK VINA RESULT:      -6.5      2.593      3.599
REMARK  5 active torsions:
REMARK  status: ('A' for Active; 'I' for Inactive)
REMARK    1  A    between atoms: C3_3  and  N1_4 
REMARK    2  A    between atoms: N1_4  and  C4_5 
REMARK    3  A    between atoms: C4_5  and  C5_6 
REMARK    4  A    between atoms: C6_7  and  C7_8 
REMARK    5  A    between atoms: C9_13  and  C10_14 
ROOT
HETATM    1  C1  UNL     1      22.273  -0.447  52.911  1.00  0.00     0.054 C 
HETATM    2  C2  UNL     1      22.674   0.917  52.555  1.00  0.00     0.009 A 
HETATM    3  C3  UNL     1      24.050   1.113  52.706  1.00  0.00     0.133 A 
HETATM    4  N2  UNL     1      24.606   2.326  52.420  1.00  0.00    -0.224 NA
HETATM    5  C8  UNL     1      23.859   3.358  51.988  1.00  0.00     0.235 A 
HETATM    6  N3  UNL     1      22.537   3.168  51.843  1.00  0.00    -0.245 NA
HETATM    7  C9  UNL     1      21.959   1.990  52.116  1.00  0.00     0.054 A 
ENDROOT
BRANCH   7   8
HETATM    8  C10 UNL     1      20.487   1.714  51.976  1.00  0.00     0.097 C 
HETATM    9  C11 UNL     1      19.758   3.072  51.976  1.00  0.00     0.180 C 
HETATM   10  O1  UNL     1      18.458   2.792  51.958  1.00  0.00    -0.390 OA
HETATM   11  C12 UNL     1      17.500   3.726  51.749  1.00  0.00     0.169 C 
HETATM   12  C13 UNL     1      17.664   4.388  50.385  1.00  0.00     0.046 C 
HETATM   13  C14 UNL     1      17.797   3.301  49.320  1.00  0.00     0.120 C 
HETATM   14  N4  UNL     1      18.874   2.461  49.449  1.00  0.00    -0.387 N 
HETATM   15  C15 UNL     1      18.895   1.243  50.123  1.00  0.00     0.155 C 
HETATM   16  C18 UNL     1      20.141   2.754  48.896  1.00  0.00     0.393 C 
HETATM   17  C16 UNL     1      20.325   1.120  50.570  1.00  0.00     0.254 C 
HETATM   18  N5  UNL     1      21.099   1.907  49.618  1.00  0.00     0.108 N 
HETATM   19  C17 UNL     1      21.820   1.018  48.699  1.00  0.00     0.312 C 
ENDBRANCH   7   8
BRANCH   3  20
HETATM   20  N1  UNL     1      24.999   0.171  53.140  1.00  0.00    -0.371 N 
HETATM   21  H4  UNL     1      25.023  -0.700  52.572  1.00  0.00     0.161 HD
BRANCH  20  22
HETATM   22  C4  UNL     1      25.915   0.287  54.260  1.00  0.00     0.148 C 
BRANCH  22  23
HETATM   23  C5  UNL     1      27.263  -0.189  53.894  1.00  0.00    -0.009 C 
HETATM   24  C6  UNL     1      28.512   0.063  54.209  1.00  0.00     0.002 C 
BRANCH  24  25
HETATM   25  C7  UNL     1      29.746  -0.599  53.660  1.00  0.00     0.249 C 
HETATM   26  F1  UNL     1      29.372  -1.743  52.966  1.00  0.00    -0.251 F 
ENDBRANCH  24  25
ENDBRANCH  22  23
ENDBRANCH  20  22
ENDBRANCH   3  20
TORSDOF 5
ENDMDL
MODEL 6
REMARK VINA RESULT:      -6.5      2.766      4.013
REMARK  5 active torsions:
REMARK  status: ('A' for Active; 'I' for Inactive)
REMARK    1  A    between atoms: C3_3  and  N1_4 
REMARK    2  A    between atoms: N1_4  and  C4_5 
REMARK    3  A    between atoms: C4_5  and  C5_6 
REMARK    4  A    between atoms: C6_7  and  C7_8 
REMARK    5  A    between atoms: C9_13  and  C10_14 
ROOT
HETATM    1  C1  UNL     1      23.093   1.360  53.023  1.00  0.00     0.054 C 
HETATM    2  C2  UNL     1      23.056   2.585  52.219  1.00  0.00     0.009 A 
HETATM    3  C3  UNL     1      24.328   3.143  52.058  1.00  0.00     0.133 A 
HETATM    4  N2  UNL     1      24.487   4.290  51.335  1.00  0.00    -0.224 NA
HETATM    5  C8  UNL     1      23.442   4.912  50.762  1.00  0.00     0.235 A 
HETATM    6  N3  UNL     1      22.220   4.374  50.918  1.00  0.00    -0.245 NA
HETATM    7  C9  UNL     1      22.028   3.250  51.621  1.00  0.00     0.054 A 
ENDROOT
BRANCH   7   8
HETATM    8  C10 UNL     1      20.689   2.599  51.833  1.00  0.00     0.097 C 
HETATM    9  C11 UNL     1      19.610   3.683  51.638  1.00  0.00     0.180 C 
HETATM   10  O1  UNL     1      18.450   3.104  51.935  1.00  0.00    -0.390 OA
HETATM   11  C12 UNL     1      17.249   3.680  51.689  1.00  0.00     0.169 C 
HETATM   12  C13 UNL     1      17.059   3.944  50.199  1.00  0.00     0.046 C 
HETATM   13  C14 UNL     1      17.370   2.662  49.426  1.00  0.00     0.120 C 
HETATM   14  N4  UNL     1      18.648   2.180  49.552  1.00  0.00    -0.387 N 
HETATM   15  C15 UNL     1      19.092   1.248  50.487  1.00  0.00     0.155 C 
HETATM   16  C18 UNL     1      19.707   2.599  48.715  1.00  0.00     0.393 C 
HETATM   17  C16 UNL     1      20.539   1.606  50.671  1.00  0.00     0.254 C 
HETATM   18  N5  UNL     1      20.943   2.251  49.427  1.00  0.00     0.108 N 
HETATM   19  C17 UNL     1      21.775   1.337  48.635  1.00  0.00     0.312 C 
ENDBRANCH   7   8
BRANCH   3  20
HETATM   20  N1  UNL     1      25.541   2.652  52.571  1.00  0.00    -0.371 N 
HETATM   21  H4  UNL     1      25.598   2.664  53.609  1.00  0.00     0.161 HD
BRANCH  20  22
HETATM   22  C4  UNL     1      26.681   2.151  51.825  1.00  0.00     0.148 C 
BRANCH  22  23
HETATM   23  C5  UNL     1      27.437   1.159  52.614  1.00  0.00    -0.009 C 
HETATM   24  C6  UNL     1      28.498   1.120  53.385  1.00  0.00     0.002 C 
BRANCH  24  25
HETATM   25  C7  UNL     1      29.070  -0.076  54.094  1.00  0.00     0.249 C 
HETATM   26  F1  UNL     1      30.025  -0.670  53.278  1.00  0.00    -0.251 F 
ENDBRANCH  24  25
ENDBRANCH  22  23
ENDBRANCH  20  22
ENDBRANCH   3  20
TORSDOF 5
ENDMDL
MODEL 7
REMARK VINA RESULT:      -6.2      3.336      6.887
REMARK  5 active torsions:
REMARK  status: ('A' for Active; 'I' for Inactive)
REMARK    1  A    between atoms: C3_3  and  N1_4 
REMARK    2  A    between atoms: N1_4  and  C4_5 
REMARK    3  A    between atoms: C4_5  and  C5_6 
REMARK    4  A    between atoms: C6_7  and  C7_8 
REMARK    5  A    between atoms: C9_13  and  C10_14 
ROOT
HETATM    1  C1  UNL     1      22.632   4.768  52.391  1.00  0.00     0.054 C 
HETATM    2  C2  UNL     1      22.487   3.635  51.474  1.00  0.00     0.009 A 
HETATM    3  C3  UNL     1      21.700   3.958  50.365  1.00  0.00     0.133 A 
HETATM    4  N2  UNL     1      21.456   3.022  49.401  1.00  0.00    -0.224 NA
HETATM    5  C8  UNL     1      21.957   1.778  49.485  1.00  0.00     0.235 A 
HETATM    6  N3  UNL     1      22.714   1.468  50.551  1.00  0.00    -0.245 NA
HETATM    7  C9  UNL     1      22.972   2.363  51.516  1.00  0.00     0.054 A 
ENDROOT
BRANCH   7   8
HETATM    8  C10 UNL     1      23.809   2.079  52.733  1.00  0.00     0.097 C 
HETATM    9  C11 UNL     1      24.081   0.562  52.768  1.00  0.00     0.180 C 
HETATM   10  O1  UNL     1      24.728   0.331  53.906  1.00  0.00    -0.390 OA
HETATM   11  C12 UNL     1      25.315  -0.855  54.198  1.00  0.00     0.169 C 
HETATM   12  C13 UNL     1      26.399  -1.199  53.182  1.00  0.00     0.046 C 
HETATM   13  C14 UNL     1      27.332   0.001  53.028  1.00  0.00     0.120 C 
HETATM   14  N4  UNL     1      26.753   1.157  52.568  1.00  0.00    -0.387 N 
HETATM   15  C15 UNL     1      26.218   2.181  53.346  1.00  0.00     0.155 C 
HETATM   16  C18 UNL     1      26.622   1.449  51.191  1.00  0.00     0.393 C 
HETATM   17  C16 UNL     1      25.155   2.767  52.462  1.00  0.00     0.254 C 
HETATM   18  N5  UNL     1      25.580   2.479  51.097  1.00  0.00     0.108 N 
HETATM   19  C17 UNL     1      26.094   3.699  50.463  1.00  0.00     0.312 C 
ENDBRANCH   7   8
BRANCH   3  20
HETATM   20  N1  UNL     1      21.087   5.193  50.089  1.00  0.00    -0.371 N 
HETATM   21  H4  UNL     1      20.463   5.535  50.847  1.00  0.00     0.161 HD
BRANCH  20  22
HETATM   22  C4  UNL     1      21.233   6.008  48.897  1.00  0.00     0.148 C 
BRANCH  22  23
HETATM   23  C5  UNL     1      22.625   6.474  48.740  1.00  0.00    -0.009 C 
HETATM   24  C6  UNL     1      23.786   5.988  48.370  1.00  0.00     0.002 C 
BRANCH  24  25
HETATM   25  C7  UNL     1      25.101   6.715  48.299  1.00  0.00     0.249 C 
HETATM   26  F1  UNL     1      25.044   7.651  47.276  1.00  0.00    -0.251 F 
ENDBRANCH  24  25
ENDBRANCH  22  23
ENDBRANCH  20  22
ENDBRANCH   3  20
TORSDOF 5
ENDMDL
MODEL 8
REMARK VINA RESULT:      -6.1      4.469      6.099
REMARK  5 active torsions:
REMARK  status: ('A' for Active; 'I' for Inactive)
REMARK    1  A    between atoms: C3_3  and  N1_4 
REMARK    2  A    between atoms: N1_4  and  C4_5 
REMARK    3  A    between atoms: C4_5  and  C5_6 
REMARK    4  A    between atoms: C6_7  and  C7_8 
REMARK    5  A    between atoms: C9_13  and  C10_14 
ROOT
HETATM    1  C1  UNL     1      24.962   6.785  48.422  1.00  0.00     0.054 C 
HETATM    2  C2  UNL     1      25.325   5.447  48.896  1.00  0.00     0.009 A 
HETATM    3  C3  UNL     1      26.704   5.319  49.094  1.00  0.00     0.133 A 
HETATM    4  N2  UNL     1      27.227   4.138  49.536  1.00  0.00    -0.224 NA
HETATM    5  C8  UNL     1      26.445   3.074  49.791  1.00  0.00     0.235 A 
HETATM    6  N3  UNL     1      25.121   3.198  49.601  1.00  0.00    -0.245 NA
HETATM    7  C9  UNL     1      24.575   4.343  49.168  1.00  0.00     0.054 A 
ENDROOT
BRANCH   7   8
HETATM    8  C10 UNL     1      23.103   4.546  48.934  1.00  0.00     0.097 C 
HETATM    9  C11 UNL     1      22.494   3.173  48.586  1.00  0.00     0.180 C 
HETATM   10  O1  UNL     1      21.220   3.402  48.282  1.00  0.00    -0.390 OA
HETATM   11  C12 UNL     1      20.307   2.415  48.118  1.00  0.00     0.169 C 
HETATM   12  C13 UNL     1      20.149   1.593  49.394  1.00  0.00     0.046 C 
HETATM   13  C14 UNL     1      19.921   2.543  50.569  1.00  0.00     0.120 C 
HETATM   14  N4  UNL     1      20.934   3.431  50.830  1.00  0.00    -0.387 N 
HETATM   15  C15 UNL     1      21.049   4.724  50.327  1.00  0.00     0.155 C 
HETATM   16  C18 UNL     1      22.026   3.116  51.669  1.00  0.00     0.393 C 
HETATM   17  C16 UNL     1      22.534   4.953  50.301  1.00  0.00     0.254 C 
HETATM   18  N5  UNL     1      23.081   4.081  51.333  1.00  0.00     0.108 N 
HETATM   19  C17 UNL     1      23.471   4.873  52.506  1.00  0.00     0.312 C 
ENDBRANCH   7   8
BRANCH   3  20
HETATM   20  N1  UNL     1      27.686   6.303  48.888  1.00  0.00    -0.371 N 
HETATM   21  H4  UNL     1      27.503   7.197  49.388  1.00  0.00     0.161 HD
BRANCH  20  22
HETATM   22  C4  UNL     1      28.886   6.202  48.076  1.00  0.00     0.148 C 
BRANCH  22  23
HETATM   23  C5  UNL     1      29.670   7.451  48.131  1.00  0.00    -0.009 C 
HETATM   24  C6  UNL     1      30.518   8.043  48.939  1.00  0.00     0.002 C 
BRANCH  24  25
HETATM   25  C7  UNL     1      31.196   9.370  48.741  1.00  0.00     0.249 C 
HETATM   26  F1  UNL     1      30.850  10.214  49.788  1.00  0.00    -0.251 F 
ENDBRANCH  24  25
ENDBRANCH  22  23
ENDBRANCH  20  22
ENDBRANCH   3  20
TORSDOF 5
ENDMDL
MODEL 9
REMARK VINA RESULT:      -6.1      2.894      4.258
REMARK  5 active torsions:
REMARK  status: ('A' for Active; 'I' for Inactive)
REMARK    1  A    between atoms: C3_3  and  N1_4 
REMARK    2  A    between atoms: N1_4  and  C4_5 
REMARK    3  A    between atoms: C4_5  and  C5_6 
REMARK    4  A    between atoms: C6_7  and  C7_8 
REMARK    5  A    between atoms: C9_13  and  C10_14 
ROOT
HETATM    1  C1  UNL     1      23.297   3.963  52.478  1.00  0.00     0.054 C 
HETATM    2  C2  UNL     1      24.292   3.735  51.427  1.00  0.00     0.009 A 
HETATM    3  C3  UNL     1      25.376   2.982  51.889  1.00  0.00     0.133 A 
HETATM    4  N2  UNL     1      26.404   2.671  51.046  1.00  0.00    -0.224 NA
HETATM    5  C8  UNL     1      26.408   3.072  49.763  1.00  0.00     0.235 A 
HETATM    6  N3  UNL     1      25.366   3.795  49.320  1.00  0.00    -0.245 NA
HETATM    7  C9  UNL     1      24.341   4.119  50.121  1.00  0.00     0.054 A 
ENDROOT
BRANCH   7   8
HETATM    8  C10 UNL     1      23.148   4.926  49.688  1.00  0.00     0.097 C 
HETATM    9  C11 UNL     1      23.482   5.552  48.320  1.00  0.00     0.180 C 
HETATM   10  O1  UNL     1      22.455   6.341  48.016  1.00  0.00    -0.390 OA
HETATM   11  C12 UNL     1      22.290   6.907  46.796  1.00  0.00     0.169 C 
HETATM   12  C13 UNL     1      22.161   5.845  45.709  1.00  0.00     0.046 C 
HETATM   13  C14 UNL     1      21.105   4.826  46.134  1.00  0.00     0.120 C 
HETATM   14  N4  UNL     1      21.368   4.135  47.290  1.00  0.00    -0.387 N 
HETATM   15  C15 UNL     1      20.966   4.490  48.575  1.00  0.00     0.155 C 
HETATM   16  C18 UNL     1      22.117   2.937  47.308  1.00  0.00     0.393 C 
HETATM   17  C16 UNL     1      22.035   3.895  49.448  1.00  0.00     0.254 C 
HETATM   18  N5  UNL     1      22.572   2.769  48.694  1.00  0.00     0.108 N 
HETATM   19  C17 UNL     1      22.087   1.506  49.264  1.00  0.00     0.312 C 
ENDBRANCH   7   8
BRANCH   3  20
HETATM   20  N1  UNL     1      25.563   2.469  53.184  1.00  0.00    -0.371 N 
HETATM   21  H4  UNL     1      25.536   3.190  53.934  1.00  0.00     0.161 HD
BRANCH  20  22
HETATM   22  C4  UNL     1      25.783   1.086  53.567  1.00  0.00     0.148 C 
BRANCH  22  23
HETATM   23  C5  UNL     1      24.628   0.244  53.198  1.00  0.00    -0.009 C 
HETATM   24  C6  UNL     1      23.504  -0.170  53.734  1.00  0.00     0.002 C 
BRANCH  24  25
HETATM   25  C7  UNL     1      22.465  -1.060  53.108  1.00  0.00     0.249 C 
HETATM   26  F1  UNL     1      21.910  -0.406  52.016  1.00  0.00    -0.251 F 
ENDBRANCH  24  25
ENDBRANCH  22  23
ENDBRANCH  20  22
ENDBRANCH   3  20
TORSDOF 5
ENDMDL
