MODEL 1
REMARK VINA RESULT:      -8.7      0.000      0.000
REMARK  2 active torsions:
REMARK  status: ('A' for Active; 'I' for Inactive)
REMARK    1  A    between atoms: C11_13  and  N3_14 
REMARK    2  A    between atoms: N3_14  and  C12_15 
ROOT
HETATM    1  C1  UNL     1      27.118  -2.415  52.321  1.00  0.00     0.024 C 
HETATM    2  C2  UNL     1      26.819  -1.034  52.951  1.00  0.00    -0.002 C 
HETATM    3  C3  UNL     1      26.742  -0.082  51.832  1.00  0.00    -0.011 C 
HETATM    4  C4  UNL     1      26.848   1.225  51.419  1.00  0.00     0.026 C 
HETATM    5  C5  UNL     1      26.921   2.221  52.544  1.00  0.00     0.032 C 
HETATM    6  C6  UNL     1      27.935   2.485  53.403  1.00  0.00     0.029 C 
HETATM    7  C7  UNL     1      28.823   1.464  54.028  1.00  0.00    -0.002 C 
HETATM    8  C8  UNL     1      28.834   0.108  54.071  1.00  0.00    -0.025 C 
HETATM    9  C9  UNL     1      27.709  -0.846  54.073  1.00  0.00     0.044 C 
HETATM   10  N1  UNL     1      25.785   3.052  52.927  1.00  0.00    -0.351 N 
HETATM   11  C10 UNL     1      24.719   2.094  53.185  1.00  0.00     0.209 C 
HETATM   12  N2  UNL     1      25.089   0.901  53.397  1.00  0.00    -0.227 NA
HETATM   13  C11 UNL     1      24.496  -0.285  53.669  1.00  0.00     0.126 C 
HETATM   14  C18 UNL     1      25.393  -1.222  53.433  1.00  0.00     0.037 C 
HETATM   15  H11 UNL     1      26.330   3.922  52.818  1.00  0.00     0.166 HD
ENDROOT
BRANCH  13  16
HETATM   16  N3  UNL     1      23.162  -0.300  54.106  1.00  0.00    -0.341 N 
HETATM   17  H13 UNL     1      23.024  -0.395  55.159  1.00  0.00     0.167 HD
BRANCH  16  18
HETATM   18  C12 UNL     1      21.915  -0.218  53.418  1.00  0.00     0.035 A 
HETATM   19  C13 UNL     1      20.775  -0.605  54.097  1.00  0.00     0.029 A 
HETATM   20  C14 UNL     1      19.600  -0.496  53.383  1.00  0.00     0.004 A 
HETATM   21  C15 UNL     1      19.590  -0.027  52.067  1.00  0.00     0.024 A 
HETATM   22  C16 UNL     1      20.766   0.340  51.449  1.00  0.00     0.036 A 
HETATM   23 CL1  UNL     1      20.729   0.918  49.797  1.00  0.00    -0.084 Cl
HETATM   24  C17 UNL     1      21.977   0.254  52.115  1.00  0.00     0.053 A 
ENDBRANCH  16  18
ENDBRANCH  13  16
TORSDOF 2
ENDMDL
MODEL 2
REMARK VINA RESULT:      -8.5      3.008      6.747
REMARK  2 active torsions:
REMARK  status: ('A' for Active; 'I' for Inactive)
REMARK    1  A    between atoms: C11_13  and  N3_14 
REMARK    2  A    between atoms: N3_14  and  C12_15 
ROOT
HETATM    1  C1  UNL     1      23.740   3.075  49.320  1.00  0.00     0.024 C 
HETATM    2  C2  UNL     1      23.131   2.532  50.634  1.00  0.00    -0.002 C 
HETATM    3  C3  UNL     1      22.280   1.394  50.252  1.00  0.00    -0.011 C 
HETATM    4  C4  UNL     1      21.215   0.589  50.576  1.00  0.00     0.026 C 
HETATM    5  C5  UNL     1      20.724   0.758  51.988  1.00  0.00     0.032 C 
HETATM    6  C6  UNL     1      20.032   1.780  52.548  1.00  0.00     0.029 C 
HETATM    7  C7  UNL     1      20.262   3.227  52.278  1.00  0.00    -0.002 C 
HETATM    8  C8  UNL     1      21.200   3.933  51.597  1.00  0.00    -0.025 C 
HETATM    9  C9  UNL     1      22.634   3.651  51.400  1.00  0.00     0.044 C 
HETATM   10  N1  UNL     1      21.017  -0.210  53.039  1.00  0.00    -0.351 N 
HETATM   11  C10 UNL     1      22.470  -0.310  53.030  1.00  0.00     0.209 C 
HETATM   12  N2  UNL     1      23.085   0.649  52.476  1.00  0.00    -0.227 NA
HETATM   13  C11 UNL     1      24.373   0.988  52.231  1.00  0.00     0.126 C 
HETATM   14  C18 UNL     1      24.350   1.929  51.308  1.00  0.00     0.037 C 
HETATM   15  H11 UNL     1      20.017  -0.336  53.261  1.00  0.00     0.166 HD
ENDROOT
BRANCH  13  16
HETATM   16  N3  UNL     1      25.399   0.337  52.934  1.00  0.00    -0.341 N 
HETATM   17  H13 UNL     1      25.147  -0.618  53.335  1.00  0.00     0.167 HD
BRANCH  16  18
HETATM   18  C12 UNL     1      26.744   0.696  53.241  1.00  0.00     0.035 A 
HETATM   19  C13 UNL     1      27.036   2.038  53.398  1.00  0.00     0.029 A 
HETATM   20  C14 UNL     1      28.351   2.322  53.701  1.00  0.00     0.004 A 
HETATM   21  C15 UNL     1      29.302   1.308  53.835  1.00  0.00     0.024 A 
HETATM   22  C16 UNL     1      28.942  -0.011  53.662  1.00  0.00     0.036 A 
HETATM   23 CL1  UNL     1      30.153  -1.265  53.826  1.00  0.00    -0.084 Cl
HETATM   24  C17 UNL     1      27.637  -0.359  53.358  1.00  0.00     0.053 A 
ENDBRANCH  16  18
ENDBRANCH  13  16
TORSDOF 2
ENDMDL
MODEL 3
REMARK VINA RESULT:      -8.4      4.045      6.582
REMARK  2 active torsions:
REMARK  status: ('A' for Active; 'I' for Inactive)
REMARK    1  A    between atoms: C11_13  and  N3_14 
REMARK    2  A    between atoms: N3_14  and  C12_15 
ROOT
HETATM    1  C1  UNL     1      28.108   2.007  53.654  1.00  0.00     0.024 C 
HETATM    2  C2  UNL     1      26.821   1.719  52.845  1.00  0.00    -0.002 C 
HETATM    3  C3  UNL     1      25.766   2.553  53.444  1.00  0.00    -0.011 C 
HETATM    4  C4  UNL     1      24.420   2.741  53.648  1.00  0.00     0.026 C 
HETATM    5  C5  UNL     1      23.542   1.850  52.814  1.00  0.00     0.032 C 
HETATM    6  C6  UNL     1      23.300   0.521  52.924  1.00  0.00     0.029 C 
HETATM    7  C7  UNL     1      24.319  -0.515  53.255  1.00  0.00    -0.002 C 
HETATM    8  C8  UNL     1      25.670  -0.515  53.394  1.00  0.00    -0.025 C 
HETATM    9  C9  UNL     1      26.690   0.289  52.695  1.00  0.00     0.044 C 
HETATM   10  N1  UNL     1      22.830   2.335  51.636  1.00  0.00    -0.351 N 
HETATM   11  C10 UNL     1      23.877   2.914  50.806  1.00  0.00     0.209 C 
HETATM   12  N2  UNL     1      25.059   2.539  51.067  1.00  0.00    -0.227 NA
HETATM   13  C11 UNL     1      26.303   2.787  50.594  1.00  0.00     0.126 C 
HETATM   14  C18 UNL     1      27.150   2.363  51.511  1.00  0.00     0.037 C 
HETATM   15  H11 UNL     1      21.919   2.013  52.001  1.00  0.00     0.166 HD
ENDROOT
BRANCH  13  16
HETATM   16  N3  UNL     1      26.449   3.394  49.338  1.00  0.00    -0.341 N 
HETATM   17  H13 UNL     1      26.307   2.754  48.497  1.00  0.00     0.167 HD
BRANCH  16  18
HETATM   18  C12 UNL     1      26.765   4.725  48.935  1.00  0.00     0.035 A 
HETATM   19  C13 UNL     1      25.757   5.671  48.978  1.00  0.00     0.029 A 
HETATM   20  C14 UNL     1      26.125   6.940  48.584  1.00  0.00     0.004 A 
HETATM   21  C15 UNL     1      27.430   7.225  48.174  1.00  0.00     0.024 A 
HETATM   22  C16 UNL     1      28.385   6.232  48.152  1.00  0.00     0.036 A 
HETATM   23 CL1  UNL     1      30.012   6.612  47.626  1.00  0.00    -0.084 Cl
HETATM   24  C17 UNL     1      28.077   4.939  48.537  1.00  0.00     0.053 A 
ENDBRANCH  16  18
ENDBRANCH  13  16
TORSDOF 2
ENDMDL
MODEL 4
REMARK VINA RESULT:      -8.3      3.004      6.124
REMARK  2 active torsions:
REMARK  status: ('A' for Active; 'I' for Inactive)
REMARK    1  A    between atoms: C11_13  and  N3_14 
REMARK    2  A    between atoms: N3_14  and  C12_15 
ROOT
HETATM    1  C1  UNL     1      20.138   0.352  51.664  1.00  0.00     0.024 C 
HETATM    2  C2  UNL     1      21.452   1.145  51.468  1.00  0.00    -0.002 C 
HETATM    3  C3  UNL     1      21.234   2.458  52.097  1.00  0.00    -0.011 C 
HETATM    4  C4  UNL     1      21.595   3.783  52.157  1.00  0.00     0.026 C 
HETATM    5  C5  UNL     1      22.853   4.112  51.402  1.00  0.00     0.032 C 
HETATM    6  C6  UNL     1      23.067   4.188  50.066  1.00  0.00     0.029 C 
HETATM    7  C7  UNL     1      22.503   3.257  49.049  1.00  0.00    -0.002 C 
HETATM    8  C8  UNL     1      21.805   2.094  49.103  1.00  0.00    -0.025 C 
HETATM    9  C9  UNL     1      21.867   1.002  50.092  1.00  0.00     0.044 C 
HETATM   10  N1  UNL     1      24.128   4.345  52.071  1.00  0.00    -0.351 N 
HETATM   11  C10 UNL     1      24.331   3.144  52.868  1.00  0.00     0.209 C 
HETATM   12  N2  UNL     1      23.656   2.130  52.521  1.00  0.00    -0.227 NA
HETATM   13  C11 UNL     1      23.509   0.850  52.935  1.00  0.00     0.126 C 
HETATM   14  C18 UNL     1      22.399   0.397  52.387  1.00  0.00     0.037 C 
HETATM   15  H11 UNL     1      24.241   5.271  51.626  1.00  0.00     0.166 HD
ENDROOT
BRANCH  13  16
HETATM   16  N3  UNL     1      24.471   0.293  53.792  1.00  0.00    -0.341 N 
HETATM   17  H13 UNL     1      24.150   0.122  54.794  1.00  0.00     0.167 HD
BRANCH  16  18
HETATM   18  C12 UNL     1      25.829  -0.097  53.603  1.00  0.00     0.035 A 
HETATM   19  C13 UNL     1      26.077  -1.260  52.898  1.00  0.00     0.029 A 
HETATM   20  C14 UNL     1      27.409  -1.581  52.741  1.00  0.00     0.004 A 
HETATM   21  C15 UNL     1      28.419  -0.771  53.268  1.00  0.00     0.024 A 
HETATM   22  C16 UNL     1      28.100   0.375  53.964  1.00  0.00     0.036 A 
HETATM   23 CL1  UNL     1      29.383   1.369  54.622  1.00  0.00    -0.084 Cl
HETATM   24  C17 UNL     1      26.781   0.750  54.153  1.00  0.00     0.053 A 
ENDBRANCH  16  18
ENDBRANCH  13  16
TORSDOF 2
ENDMDL
MODEL 5
REMARK VINA RESULT:      -8.2      3.019      6.432
REMARK  2 active torsions:
REMARK  status: ('A' for Active; 'I' for Inactive)
REMARK    1  A    between atoms: C11_13  and  N3_14 
REMARK    2  A    between atoms: N3_14  and  C12_15 
ROOT
HETATM    1  C1  UNL     1      20.585   1.981  52.707  1.00  0.00     0.024 C 
HETATM    2  C2  UNL     1      21.772   2.092  51.720  1.00  0.00    -0.002 C 
HETATM    3  C3  UNL     1      21.755   3.474  51.213  1.00  0.00    -0.011 C 
HETATM    4  C4  UNL     1      22.112   4.338  50.206  1.00  0.00     0.026 C 
HETATM    5  C5  UNL     1      23.074   3.755  49.209  1.00  0.00     0.032 C 
HETATM    6  C6  UNL     1      22.866   2.828  48.242  1.00  0.00     0.029 C 
HETATM    7  C7  UNL     1      22.018   1.611  48.385  1.00  0.00    -0.002 C 
HETATM    8  C8  UNL     1      21.375   1.012  49.419  1.00  0.00    -0.025 C 
HETATM    9  C9  UNL     1      21.743   0.943  50.846  1.00  0.00     0.044 C 
HETATM   10  N1  UNL     1      24.493   4.095  49.200  1.00  0.00    -0.351 N 
HETATM   11  C10 UNL     1      24.936   3.786  50.552  1.00  0.00     0.209 C 
HETATM   12  N2  UNL     1      24.190   3.004  51.213  1.00  0.00    -0.227 NA
HETATM   13  C11 UNL     1      24.182   2.453  52.449  1.00  0.00     0.126 C 
HETATM   14  C18 UNL     1      22.959   2.011  52.662  1.00  0.00     0.037 C 
HETATM   15  H11 UNL     1      24.460   4.390  48.211  1.00  0.00     0.166 HD
ENDROOT
BRANCH  13  16
HETATM   16  N3  UNL     1      25.364   2.455  53.208  1.00  0.00    -0.341 N 
HETATM   17  H13 UNL     1      25.451   3.244  53.920  1.00  0.00     0.167 HD
BRANCH  16  18
HETATM   18  C12 UNL     1      26.508   1.605  53.223  1.00  0.00     0.035 A 
HETATM   19  C13 UNL     1      27.734   2.174  53.513  1.00  0.00     0.029 A 
HETATM   20  C14 UNL     1      28.801   1.301  53.520  1.00  0.00     0.004 A 
HETATM   21  C15 UNL     1      28.630  -0.059  53.249  1.00  0.00     0.024 A 
HETATM   22  C16 UNL     1      27.378  -0.560  52.964  1.00  0.00     0.036 A 
HETATM   23 CL1  UNL     1      27.189  -2.266  52.620  1.00  0.00    -0.084 Cl
HETATM   24  C17 UNL     1      26.268   0.267  52.943  1.00  0.00     0.053 A 
ENDBRANCH  16  18
ENDBRANCH  13  16
TORSDOF 2
ENDMDL
MODEL 6
REMARK VINA RESULT:      -8.1      3.461      6.136
REMARK  2 active torsions:
REMARK  status: ('A' for Active; 'I' for Inactive)
REMARK    1  A    between atoms: C11_13  and  N3_14 
REMARK    2  A    between atoms: N3_14  and  C12_15 
ROOT
HETATM    1  C1  UNL     1      22.060   1.880  49.099  1.00  0.00     0.024 C 
HETATM    2  C2  UNL     1      22.977   2.724  50.016  1.00  0.00    -0.002 C 
HETATM    3  C3  UNL     1      22.080   3.500  50.888  1.00  0.00    -0.011 C 
HETATM    4  C4  UNL     1      21.916   4.613  51.677  1.00  0.00     0.026 C 
HETATM    5  C5  UNL     1      23.192   5.353  51.969  1.00  0.00     0.032 C 
HETATM    6  C6  UNL     1      23.951   6.128  51.156  1.00  0.00     0.029 C 
HETATM    7  C7  UNL     1      24.251   5.840  49.725  1.00  0.00    -0.002 C 
HETATM    8  C8  UNL     1      24.030   4.787  48.897  1.00  0.00    -0.025 C 
HETATM    9  C9  UNL     1      23.992   3.343  49.196  1.00  0.00     0.044 C 
HETATM   10  N1  UNL     1      23.869   5.266  53.258  1.00  0.00    -0.351 N 
HETATM   11  C10 UNL     1      24.071   3.837  53.453  1.00  0.00     0.209 C 
HETATM   12  N2  UNL     1      24.002   3.122  52.410  1.00  0.00    -0.227 NA
HETATM   13  C11 UNL     1      24.113   1.809  52.101  1.00  0.00     0.126 C 
HETATM   14  C18 UNL     1      23.590   1.654  50.900  1.00  0.00     0.037 C 
HETATM   15  H11 UNL     1      23.861   6.291  53.381  1.00  0.00     0.166 HD
ENDROOT
BRANCH  13  16
HETATM   16  N3  UNL     1      24.704   0.935  53.027  1.00  0.00    -0.341 N 
HETATM   17  H13 UNL     1      24.032   0.456  53.701  1.00  0.00     0.167 HD
BRANCH  16  18
HETATM   18  C12 UNL     1      26.055   0.546  53.267  1.00  0.00     0.035 A 
HETATM   19  C13 UNL     1      26.904   1.475  53.837  1.00  0.00     0.029 A 
HETATM   20  C14 UNL     1      28.195   1.038  54.053  1.00  0.00     0.004 A 
HETATM   21  C15 UNL     1      28.591  -0.257  53.710  1.00  0.00     0.024 A 
HETATM   22  C16 UNL     1      27.690  -1.133  53.141  1.00  0.00     0.036 A 
HETATM   23 CL1  UNL     1      28.212  -2.749  52.713  1.00  0.00    -0.084 Cl
HETATM   24  C17 UNL     1      26.381  -0.752  52.902  1.00  0.00     0.053 A 
ENDBRANCH  16  18
ENDBRANCH  13  16
TORSDOF 2
ENDMDL
MODEL 7
REMARK VINA RESULT:      -7.9      3.605      6.720
REMARK  2 active torsions:
REMARK  status: ('A' for Active; 'I' for Inactive)
REMARK    1  A    between atoms: C11_13  and  N3_14 
REMARK    2  A    between atoms: N3_14  and  C12_15 
ROOT
HETATM    1  C1  UNL     1      26.014   4.639  49.202  1.00  0.00     0.024 C 
HETATM    2  C2  UNL     1      24.874   4.104  50.101  1.00  0.00    -0.002 C 
HETATM    3  C3  UNL     1      23.984   3.334  49.218  1.00  0.00    -0.011 C 
HETATM    4  C4  UNL     1      22.722   2.833  49.003  1.00  0.00     0.026 C 
HETATM    5  C5  UNL     1      21.815   2.922  50.199  1.00  0.00     0.032 C 
HETATM    6  C6  UNL     1      21.214   4.003  50.754  1.00  0.00     0.029 C 
HETATM    7  C7  UNL     1      21.841   5.344  50.922  1.00  0.00    -0.002 C 
HETATM    8  C8  UNL     1      23.091   5.842  50.745  1.00  0.00    -0.025 C 
HETATM    9  C9  UNL     1      24.401   5.189  50.927  1.00  0.00     0.044 C 
HETATM   10  N1  UNL     1      21.493   1.762  51.024  1.00  0.00    -0.351 N 
HETATM   11  C10 UNL     1      22.794   1.248  51.429  1.00  0.00     0.209 C 
HETATM   12  N2  UNL     1      23.762   2.058  51.333  1.00  0.00    -0.227 NA
HETATM   13  C11 UNL     1      25.094   2.043  51.576  1.00  0.00     0.126 C 
HETATM   14  C18 UNL     1      25.609   3.078  50.944  1.00  0.00     0.037 C 
HETATM   15  H11 UNL     1      20.477   1.900  50.898  1.00  0.00     0.166 HD
ENDROOT
BRANCH  13  16
HETATM   16  N3  UNL     1      25.632   1.023  52.377  1.00  0.00    -0.341 N 
HETATM   17  H13 UNL     1      24.947   0.261  52.673  1.00  0.00     0.167 HD
BRANCH  16  18
HETATM   18  C12 UNL     1      26.937   0.786  52.899  1.00  0.00     0.035 A 
HETATM   19  C13 UNL     1      27.624   1.859  53.435  1.00  0.00     0.029 A 
HETATM   20  C14 UNL     1      28.878   1.566  53.931  1.00  0.00     0.004 A 
HETATM   21  C15 UNL     1      29.395   0.269  53.882  1.00  0.00     0.024 A 
HETATM   22  C16 UNL     1      28.655  -0.755  53.330  1.00  0.00     0.036 A 
HETATM   23 CL1  UNL     1      29.326  -2.371  53.273  1.00  0.00    -0.084 Cl
HETATM   24  C17 UNL     1      27.390  -0.523  52.818  1.00  0.00     0.053 A 
ENDBRANCH  16  18
ENDBRANCH  13  16
TORSDOF 2
ENDMDL
MODEL 8
REMARK VINA RESULT:      -7.8      1.883      3.600
REMARK  2 active torsions:
REMARK  status: ('A' for Active; 'I' for Inactive)
REMARK    1  A    between atoms: C11_13  and  N3_14 
REMARK    2  A    between atoms: N3_14  and  C12_15 
ROOT
HETATM    1  C1  UNL     1      23.160   4.535  52.702  1.00  0.00     0.024 C 
HETATM    2  C2  UNL     1      23.764   3.143  52.397  1.00  0.00    -0.002 C 
HETATM    3  C3  UNL     1      24.750   2.884  53.459  1.00  0.00    -0.011 C 
HETATM    4  C4  UNL     1      25.881   2.204  53.842  1.00  0.00     0.026 C 
HETATM    5  C5  UNL     1      26.285   1.103  52.901  1.00  0.00     0.032 C 
HETATM    6  C6  UNL     1      26.837   1.179  51.664  1.00  0.00     0.029 C 
HETATM    7  C7  UNL     1      26.463   2.167  50.614  1.00  0.00    -0.002 C 
HETATM    8  C8  UNL     1      25.486   3.101  50.486  1.00  0.00    -0.025 C 
HETATM    9  C9  UNL     1      24.101   3.093  50.994  1.00  0.00     0.044 C 
HETATM   10  N1  UNL     1      26.051  -0.306  53.198  1.00  0.00    -0.351 N 
HETATM   11  C10 UNL     1      24.620  -0.378  53.455  1.00  0.00     0.209 C 
HETATM   12  N2  UNL     1      23.930   0.587  53.011  1.00  0.00    -0.227 NA
HETATM   13  C11 UNL     1      22.626   0.950  53.003  1.00  0.00     0.126 C 
HETATM   14  C18 UNL     1      22.589   2.231  52.693  1.00  0.00     0.037 C 
HETATM   15  H11 UNL     1      27.049  -0.542  53.071  1.00  0.00     0.166 HD
ENDROOT
BRANCH  13  16
HETATM   16  N3  UNL     1      21.646  -0.010  53.301  1.00  0.00    -0.341 N 
HETATM   17  H13 UNL     1      21.934  -0.758  54.004  1.00  0.00     0.167 HD
BRANCH  16  18
HETATM   18  C12 UNL     1      20.310  -0.206  52.844  1.00  0.00     0.035 A 
HETATM   19  C13 UNL     1      19.477  -1.006  53.604  1.00  0.00     0.029 A 
HETATM   20  C14 UNL     1      18.195  -1.152  53.115  1.00  0.00     0.004 A 
HETATM   21  C15 UNL     1      17.792  -0.526  51.933  1.00  0.00     0.024 A 
HETATM   22  C16 UNL     1      18.677   0.257  51.223  1.00  0.00     0.036 A 
HETATM   23 CL1  UNL     1      18.151   1.025  49.740  1.00  0.00    -0.084 Cl
HETATM   24  C17 UNL     1      19.976   0.442  51.664  1.00  0.00     0.053 A 
ENDBRANCH  16  18
ENDBRANCH  13  16
TORSDOF 2
ENDMDL
MODEL 9
REMARK VINA RESULT:      -7.8      2.333      4.103
REMARK  2 active torsions:
REMARK  status: ('A' for Active; 'I' for Inactive)
REMARK    1  A    between atoms: C11_13  and  N3_14 
REMARK    2  A    between atoms: N3_14  and  C12_15 
ROOT
HETATM    1  C1  UNL     1      23.166   4.864  52.462  1.00  0.00     0.024 C 
HETATM    2  C2  UNL     1      23.716   3.450  52.158  1.00  0.00    -0.002 C 
HETATM    3  C3  UNL     1      24.553   3.081  53.311  1.00  0.00    -0.011 C 
HETATM    4  C4  UNL     1      25.588   2.311  53.787  1.00  0.00     0.026 C 
HETATM    5  C5  UNL     1      26.033   1.229  52.843  1.00  0.00     0.032 C 
HETATM    6  C6  UNL     1      26.730   1.321  51.684  1.00  0.00     0.029 C 
HETATM    7  C7  UNL     1      26.542   2.377  50.649  1.00  0.00    -0.002 C 
HETATM    8  C8  UNL     1      25.645   3.377  50.457  1.00  0.00    -0.025 C 
HETATM    9  C9  UNL     1      24.212   3.438  50.802  1.00  0.00     0.044 C 
HETATM   10  N1  UNL     1      25.682  -0.173  53.039  1.00  0.00    -0.351 N 
HETATM   11  C10 UNL     1      24.228  -0.162  53.127  1.00  0.00     0.209 C 
HETATM   12  N2  UNL     1      23.655   0.864  52.656  1.00  0.00    -0.227 NA
HETATM   13  C11 UNL     1      22.385   1.312  52.517  1.00  0.00     0.126 C 
HETATM   14  C18 UNL     1      22.461   2.605  52.270  1.00  0.00     0.037 C 
HETATM   15  H11 UNL     1      26.671  -0.469  53.016  1.00  0.00     0.166 HD
ENDROOT
BRANCH  13  16
HETATM   16  N3  UNL     1      21.320   0.406  52.652  1.00  0.00    -0.341 N 
HETATM   17  H13 UNL     1      21.455  -0.356  53.385  1.00  0.00     0.167 HD
BRANCH  16  18
HETATM   18  C12 UNL     1      20.063   0.282  51.992  1.00  0.00     0.035 A 
HETATM   19  C13 UNL     1      19.931   0.849  50.738  1.00  0.00     0.029 A 
HETATM   20  C14 UNL     1      18.695   0.689  50.147  1.00  0.00     0.004 A 
HETATM   21  C15 UNL     1      17.665  -0.001  50.791  1.00  0.00     0.024 A 
HETATM   22  C16 UNL     1      17.865  -0.539  52.044  1.00  0.00     0.036 A 
HETATM   23 CL1  UNL     1      16.556  -1.392  52.835  1.00  0.00    -0.084 Cl
HETATM   24  C17 UNL     1      19.084  -0.413  52.687  1.00  0.00     0.053 A 
ENDBRANCH  16  18
ENDBRANCH  13  16
TORSDOF 2
ENDMDL
