MODEL 1
REMARK VINA RESULT:     -10.2      0.000      0.000
REMARK  0 active torsions:
REMARK  status: ('A' for Active; 'I' for Inactive)
ROOT
HETATM    1  O1  UNL     1      28.483  -0.899  54.280  1.00  0.00    -0.273 OA
HETATM    2  C1  UNL     1      27.805  -0.546  53.251  1.00  0.00     0.226 C 
HETATM    3  C2  UNL     1      26.755  -0.830  52.189  1.00  0.00     0.143 C 
HETATM    4  C3  UNL     1      25.768   0.206  52.539  1.00  0.00    -0.030 C 
HETATM    5  C4  UNL     1      24.740   0.930  52.855  1.00  0.00    -0.016 C 
HETATM    6  C5  UNL     1      23.326   1.093  53.175  1.00  0.00     0.041 C 
HETATM    7  C6  UNL     1      22.544  -0.180  52.890  1.00  0.00     0.043 A 
HETATM    8  C7  UNL     1      21.902  -0.586  54.154  1.00  0.00    -0.017 A 
HETATM    9  C8  UNL     1      20.595  -0.502  54.002  1.00  0.00     0.004 A 
HETATM   10  C9  UNL     1      20.213  -0.033  52.633  1.00  0.00    -0.050 A 
HETATM   11  C10 UNL     1      21.388   0.146  52.015  1.00  0.00    -0.042 A 
HETATM   12  C11 UNL     1      21.491   0.612  50.608  1.00  0.00     0.119 C 
HETATM   13  C12 UNL     1      22.482   1.671  50.353  1.00  0.00     0.045 C 
HETATM   14  C13 UNL     1      23.161   2.792  49.946  1.00  0.00    -0.023 C 
HETATM   15  C14 UNL     1      24.504   3.337  50.134  1.00  0.00    -0.029 C 
HETATM   16  C15 UNL     1      25.734   3.107  50.735  1.00  0.00     0.005 C 
HETATM   17  C16 UNL     1      26.741   2.405  51.532  1.00  0.00     0.082 C 
HETATM   18  C17 UNL     1      26.843   1.251  52.274  1.00  0.00     0.024 C 
HETATM   19  N1  UNL     1      28.086   0.795  52.727  1.00  0.00    -0.330 N 
HETATM   20  N2  UNL     1      20.240   0.883  49.989  1.00  0.00    -0.390 N 
HETATM   21  C18 UNL     1      18.857   0.599  50.053  1.00  0.00     0.080 C 
HETATM   22  C19 UNL     1      18.290   0.230  51.209  1.00  0.00    -0.006 C 
HETATM   23  C20 UNL     1      18.730   0.002  52.616  1.00  0.00     0.067 C 
HETATM   24  H15 UNL     1      28.908   1.473  52.646  1.00  0.00     0.168 HD
HETATM   25  H16 UNL     1      20.378   1.558  49.160  1.00  0.00     0.159 HD
ENDROOT
TORSDOF 0
ENDMDL
MODEL 2
REMARK VINA RESULT:     -10.1      3.087      6.959
REMARK  0 active torsions:
REMARK  status: ('A' for Active; 'I' for Inactive)
ROOT
HETATM    1  O1  UNL     1      23.690   6.636  51.231  1.00  0.00    -0.273 OA
HETATM    2  C1  UNL     1      23.606   5.361  51.130  1.00  0.00     0.226 C 
HETATM    3  C2  UNL     1      24.144   4.028  50.637  1.00  0.00     0.143 C 
HETATM    4  C3  UNL     1      24.414   3.379  51.931  1.00  0.00    -0.030 C 
HETATM    5  C4  UNL     1      24.878   2.774  52.979  1.00  0.00    -0.016 C 
HETATM    6  C5  UNL     1      25.945   2.107  53.718  1.00  0.00     0.041 C 
HETATM    7  C6  UNL     1      27.135   1.807  52.821  1.00  0.00     0.043 A 
HETATM    8  C7  UNL     1      28.307   2.474  53.418  1.00  0.00    -0.017 A 
HETATM    9  C8  UNL     1      29.164   1.547  53.797  1.00  0.00     0.004 A 
HETATM   10  C9  UNL     1      28.670   0.165  53.504  1.00  0.00    -0.050 A 
HETATM   11  C10 UNL     1      27.475   0.365  52.933  1.00  0.00    -0.042 A 
HETATM   12  C11 UNL     1      26.613  -0.752  52.467  1.00  0.00     0.119 C 
HETATM   13  C12 UNL     1      25.189  -0.659  52.833  1.00  0.00     0.045 C 
HETATM   14  C13 UNL     1      23.903  -0.885  53.257  1.00  0.00    -0.023 C 
HETATM   15  C14 UNL     1      22.677  -0.099  53.369  1.00  0.00    -0.029 C 
HETATM   16  C15 UNL     1      22.126   1.156  53.154  1.00  0.00     0.005 C 
HETATM   17  C16 UNL     1      22.078   2.563  52.754  1.00  0.00     0.082 C 
HETATM   18  C17 UNL     1      22.933   3.520  52.255  1.00  0.00     0.024 C 
HETATM   19  N1  UNL     1      22.445   4.742  51.778  1.00  0.00    -0.330 N 
HETATM   20  N2  UNL     1      27.150  -2.046  52.711  1.00  0.00    -0.390 N 
HETATM   21  C18 UNL     1      28.351  -2.748  52.952  1.00  0.00     0.080 C 
HETATM   22  C19 UNL     1      29.406  -2.127  53.494  1.00  0.00    -0.006 C 
HETATM   23  C20 UNL     1      29.735  -0.754  53.975  1.00  0.00     0.067 C 
HETATM   24  H15 UNL     1      21.426   4.975  52.002  1.00  0.00     0.168 HD
HETATM   25  H16 UNL     1      26.358  -2.777  52.720  1.00  0.00     0.159 HD
ENDROOT
TORSDOF 0
ENDMDL
MODEL 3
REMARK VINA RESULT:      -9.7      2.631      7.167
REMARK  0 active torsions:
REMARK  status: ('A' for Active; 'I' for Inactive)
ROOT
HETATM    1  O1  UNL     1      19.352   2.109  49.631  1.00  0.00    -0.273 OA
HETATM    2  C1  UNL     1      19.994   1.205  50.275  1.00  0.00     0.226 C 
HETATM    3  C2  UNL     1      21.152   0.229  50.397  1.00  0.00     0.143 C 
HETATM    4  C3  UNL     1      21.832   0.802  51.571  1.00  0.00    -0.030 C 
HETATM    5  C4  UNL     1      22.630   1.307  52.459  1.00  0.00    -0.016 C 
HETATM    6  C5  UNL     1      23.937   1.787  52.896  1.00  0.00     0.041 C 
HETATM    7  C6  UNL     1      25.021   1.429  51.893  1.00  0.00     0.043 A 
HETATM    8  C7  UNL     1      25.653   2.692  51.469  1.00  0.00    -0.017 A 
HETATM    9  C8  UNL     1      26.908   2.685  51.872  1.00  0.00     0.004 A 
HETATM   10  C9  UNL     1      27.259   1.429  52.609  1.00  0.00    -0.050 A 
HETATM   11  C10 UNL     1      26.122   0.722  52.599  1.00  0.00    -0.042 A 
HETATM   12  C11 UNL     1      26.007  -0.620  53.225  1.00  0.00     0.119 C 
HETATM   13  C12 UNL     1      24.809  -0.842  54.053  1.00  0.00     0.045 C 
HETATM   14  C13 UNL     1      23.908  -1.175  55.033  1.00  0.00    -0.023 C 
HETATM   15  C14 UNL     1      22.464  -1.059  55.221  1.00  0.00    -0.029 C 
HETATM   16  C15 UNL     1      21.288  -0.619  54.630  1.00  0.00     0.005 C 
HETATM   17  C16 UNL     1      20.428  -0.021  53.608  1.00  0.00     0.082 C 
HETATM   18  C17 UNL     1      20.557   0.560  52.367  1.00  0.00     0.024 C 
HETATM   19  N1  UNL     1      19.433   0.824  51.576  1.00  0.00    -0.330 N 
HETATM   20  N2  UNL     1      27.195  -1.070  53.863  1.00  0.00    -0.390 N 
HETATM   21  C18 UNL     1      28.597  -0.902  53.899  1.00  0.00     0.080 C 
HETATM   22  C19 UNL     1      29.155   0.251  53.510  1.00  0.00    -0.006 C 
HETATM   23  C20 UNL     1      28.687   1.568  52.986  1.00  0.00     0.067 C 
HETATM   24  H15 UNL     1      18.479   0.744  52.051  1.00  0.00     0.168 HD
HETATM   25  H16 UNL     1      26.955  -1.820  54.600  1.00  0.00     0.159 HD
ENDROOT
TORSDOF 0
ENDMDL
MODEL 4
REMARK VINA RESULT:      -9.6      2.990      6.409
REMARK  0 active torsions:
REMARK  status: ('A' for Active; 'I' for Inactive)
ROOT
HETATM    1  O1  UNL     1      19.660  -0.065  53.627  1.00  0.00    -0.273 OA
HETATM    2  C1  UNL     1      20.773  -0.123  52.993  1.00  0.00     0.226 C 
HETATM    3  C2  UNL     1      21.621   0.172  51.767  1.00  0.00     0.143 C 
HETATM    4  C3  UNL     1      22.616   1.074  52.368  1.00  0.00    -0.030 C 
HETATM    5  C4  UNL     1      23.428   2.023  52.718  1.00  0.00    -0.016 C 
HETATM    6  C5  UNL     1      24.015   3.348  52.545  1.00  0.00     0.041 C 
HETATM    7  C6  UNL     1      23.621   3.958  51.210  1.00  0.00     0.043 A 
HETATM    8  C7  UNL     1      22.945   5.236  51.500  1.00  0.00    -0.017 A 
HETATM    9  C8  UNL     1      23.681   6.215  51.013  1.00  0.00     0.004 A 
HETATM   10  C9  UNL     1      24.924   5.712  50.348  1.00  0.00    -0.050 A 
HETATM   11  C10 UNL     1      24.849   4.383  50.489  1.00  0.00    -0.042 A 
HETATM   12  C11 UNL     1      25.890   3.461  49.965  1.00  0.00     0.119 C 
HETATM   13  C12 UNL     1      26.328   2.398  50.885  1.00  0.00     0.045 C 
HETATM   14  C13 UNL     1      27.033   1.498  51.645  1.00  0.00    -0.023 C 
HETATM   15  C14 UNL     1      26.707   0.447  52.605  1.00  0.00    -0.029 C 
HETATM   16  C15 UNL     1      25.661  -0.203  53.246  1.00  0.00     0.005 C 
HETATM   17  C16 UNL     1      24.277  -0.512  53.604  1.00  0.00     0.082 C 
HETATM   18  C17 UNL     1      23.011  -0.063  53.301  1.00  0.00     0.024 C 
HETATM   19  N1  UNL     1      21.878  -0.783  53.696  1.00  0.00    -0.330 N 
HETATM   20  N2  UNL     1      26.984   4.113  49.334  1.00  0.00    -0.390 N 
HETATM   21  C18 UNL     1      27.377   5.313  48.700  1.00  0.00     0.080 C 
HETATM   22  C19 UNL     1      26.752   6.465  48.974  1.00  0.00    -0.006 C 
HETATM   23  C20 UNL     1      25.633   6.917  49.850  1.00  0.00     0.067 C 
HETATM   24  H15 UNL     1      22.030  -1.571  54.401  1.00  0.00     0.168 HD
HETATM   25  H16 UNL     1      27.847   3.466  49.331  1.00  0.00     0.159 HD
ENDROOT
TORSDOF 0
ENDMDL
MODEL 5
REMARK VINA RESULT:      -9.6      2.599      5.125
REMARK  0 active torsions:
REMARK  status: ('A' for Active; 'I' for Inactive)
ROOT
HETATM    1  O1  UNL     1      30.278  -0.336  53.435  1.00  0.00    -0.273 OA
HETATM    2  C1  UNL     1      29.119   0.124  53.736  1.00  0.00     0.226 C 
HETATM    3  C2  UNL     1      28.182   1.287  54.013  1.00  0.00     0.143 C 
HETATM    4  C3  UNL     1      27.241   1.115  52.893  1.00  0.00    -0.030 C 
HETATM    5  C4  UNL     1      26.464   1.199  51.859  1.00  0.00    -0.016 C 
HETATM    6  C5  UNL     1      25.874   1.934  50.744  1.00  0.00     0.041 C 
HETATM    7  C6  UNL     1      26.168   3.422  50.845  1.00  0.00     0.043 A 
HETATM    8  C7  UNL     1      26.873   3.809  49.608  1.00  0.00    -0.017 A 
HETATM    9  C8  UNL     1      26.107   4.650  48.940  1.00  0.00     0.004 A 
HETATM   10  C9  UNL     1      24.813   4.919  49.643  1.00  0.00    -0.050 A 
HETATM   11  C10 UNL     1      24.891   4.177  50.755  1.00  0.00    -0.042 A 
HETATM   12  C11 UNL     1      23.808   4.139  51.771  1.00  0.00     0.119 C 
HETATM   13  C12 UNL     1      23.435   2.801  52.263  1.00  0.00     0.045 C 
HETATM   14  C13 UNL     1      22.785   1.665  52.673  1.00  0.00    -0.023 C 
HETATM   15  C14 UNL     1      23.177   0.347  53.168  1.00  0.00    -0.029 C 
HETATM   16  C15 UNL     1      24.264  -0.454  53.486  1.00  0.00     0.005 C 
HETATM   17  C16 UNL     1      25.671  -0.825  53.649  1.00  0.00     0.082 C 
HETATM   18  C17 UNL     1      26.912  -0.265  53.446  1.00  0.00     0.024 C 
HETATM   19  N1  UNL     1      28.067  -0.876  53.945  1.00  0.00    -0.330 N 
HETATM   20  N2  UNL     1      22.672   4.929  51.443  1.00  0.00    -0.390 N 
HETATM   21  C18 UNL     1      22.239   6.025  50.663  1.00  0.00     0.080 C 
HETATM   22  C19 UNL     1      22.890   6.363  49.544  1.00  0.00    -0.006 C 
HETATM   23  C20 UNL     1      24.076   5.876  48.781  1.00  0.00     0.067 C 
HETATM   24  H15 UNL     1      27.965  -1.877  54.306  1.00  0.00     0.168 HD
HETATM   25  H16 UNL     1      21.808   4.572  51.980  1.00  0.00     0.159 HD
ENDROOT
TORSDOF 0
ENDMDL
MODEL 6
REMARK VINA RESULT:      -9.4      2.756      4.159
REMARK  0 active torsions:
REMARK  status: ('A' for Active; 'I' for Inactive)
ROOT
HETATM    1  O1  UNL     1      28.061   4.622  49.174  1.00  0.00    -0.273 OA
HETATM    2  C1  UNL     1      26.794   4.436  49.242  1.00  0.00     0.226 C 
HETATM    3  C2  UNL     1      25.575   3.534  49.141  1.00  0.00     0.143 C 
HETATM    4  C3  UNL     1      25.110   3.595  50.537  1.00  0.00    -0.030 C 
HETATM    5  C4  UNL     1      24.709   3.403  51.755  1.00  0.00    -0.016 C 
HETATM    6  C5  UNL     1      24.354   2.539  52.876  1.00  0.00     0.041 C 
HETATM    7  C6  UNL     1      24.249   1.085  52.442  1.00  0.00     0.043 A 
HETATM    8  C7  UNL     1      25.203   0.318  53.263  1.00  0.00    -0.017 A 
HETATM    9  C8  UNL     1      24.521  -0.519  54.020  1.00  0.00     0.004 A 
HETATM   10  C9  UNL     1      23.044  -0.408  53.798  1.00  0.00    -0.050 A 
HETATM   11  C10 UNL     1      22.930   0.546  52.866  1.00  0.00    -0.042 A 
HETATM   12  C11 UNL     1      21.618   0.990  52.328  1.00  0.00     0.119 C 
HETATM   13  C12 UNL     1      21.427   2.446  52.222  1.00  0.00     0.045 C 
HETATM   14  C13 UNL     1      20.960   3.736  52.259  1.00  0.00    -0.023 C 
HETATM   15  C14 UNL     1      21.465   5.051  51.872  1.00  0.00    -0.029 C 
HETATM   16  C15 UNL     1      22.548   5.718  51.314  1.00  0.00     0.005 C 
HETATM   17  C16 UNL     1      23.872   5.884  50.716  1.00  0.00     0.082 C 
HETATM   18  C17 UNL     1      24.949   5.100  50.366  1.00  0.00     0.024 C 
HETATM   19  N1  UNL     1      25.991   5.614  49.588  1.00  0.00    -0.330 N 
HETATM   20  N2  UNL     1      20.497   0.339  52.914  1.00  0.00    -0.390 N 
HETATM   21  C18 UNL     1      20.097  -0.821  53.614  1.00  0.00     0.080 C 
HETATM   22  C19 UNL     1      20.976  -1.507  54.354  1.00  0.00    -0.006 C 
HETATM   23  C20 UNL     1      22.423  -1.405  54.704  1.00  0.00     0.067 C 
HETATM   24  H15 UNL     1      26.013   6.674  49.451  1.00  0.00     0.168 HD
HETATM   25  H16 UNL     1      19.614   0.944  52.788  1.00  0.00     0.159 HD
ENDROOT
TORSDOF 0
ENDMDL
MODEL 7
REMARK VINA RESULT:      -9.2      2.924      5.922
REMARK  0 active torsions:
REMARK  status: ('A' for Active; 'I' for Inactive)
ROOT
HETATM    1  O1  UNL     1      26.601  -1.565  53.392  1.00  0.00    -0.273 OA
HETATM    2  C1  UNL     1      25.826  -0.566  53.605  1.00  0.00     0.226 C 
HETATM    3  C2  UNL     1      25.607   0.911  53.884  1.00  0.00     0.143 C 
HETATM    4  C3  UNL     1      24.887   1.289  52.656  1.00  0.00    -0.030 C 
HETATM    5  C4  UNL     1      24.427   1.794  51.555  1.00  0.00    -0.016 C 
HETATM    6  C5  UNL     1      24.475   2.752  50.455  1.00  0.00     0.041 C 
HETATM    7  C6  UNL     1      25.486   3.854  50.726  1.00  0.00     0.043 A 
HETATM    8  C7  UNL     1      26.457   3.833  49.616  1.00  0.00    -0.017 A 
HETATM    9  C8  UNL     1      26.350   4.966  48.949  1.00  0.00     0.004 A 
HETATM   10  C9  UNL     1      25.303   5.867  49.527  1.00  0.00    -0.050 A 
HETATM   11  C10 UNL     1      24.821   5.174  50.567  1.00  0.00    -0.042 A 
HETATM   12  C11 UNL     1      23.746   5.696  51.449  1.00  0.00     0.119 C 
HETATM   13  C12 UNL     1      22.663   4.751  51.769  1.00  0.00     0.045 C 
HETATM   14  C13 UNL     1      21.463   4.125  51.998  1.00  0.00    -0.023 C 
HETATM   15  C14 UNL     1      21.032   2.791  52.407  1.00  0.00    -0.029 C 
HETATM   16  C15 UNL     1      21.481   1.528  52.767  1.00  0.00     0.005 C 
HETATM   17  C16 UNL     1      22.445   0.464  53.049  1.00  0.00     0.082 C 
HETATM   18  C17 UNL     1      23.809   0.283  53.038  1.00  0.00     0.024 C 
HETATM   19  N1  UNL     1      24.389  -0.859  53.602  1.00  0.00    -0.330 N 
HETATM   20  N2  UNL     1      23.252   6.976  51.073  1.00  0.00    -0.390 N 
HETATM   21  C18 UNL     1      23.573   8.150  50.356  1.00  0.00     0.080 C 
HETATM   22  C19 UNL     1      24.458   8.114  49.351  1.00  0.00    -0.006 C 
HETATM   23  C20 UNL     1      25.308   7.086  48.683  1.00  0.00     0.067 C 
HETATM   24  H15 UNL     1      23.728  -1.660  53.855  1.00  0.00     0.168 HD
HETATM   25  H16 UNL     1      22.263   7.121  51.476  1.00  0.00     0.159 HD
ENDROOT
TORSDOF 0
ENDMDL
MODEL 8
REMARK VINA RESULT:      -9.2      2.639      4.402
REMARK  0 active torsions:
REMARK  status: ('A' for Active; 'I' for Inactive)
ROOT
HETATM    1  O1  UNL     1      24.445   5.719  50.209  1.00  0.00    -0.273 OA
HETATM    2  C1  UNL     1      24.170   4.881  51.139  1.00  0.00     0.226 C 
HETATM    3  C2  UNL     1      23.225   4.328  52.193  1.00  0.00     0.143 C 
HETATM    4  C3  UNL     1      23.003   2.982  51.639  1.00  0.00    -0.030 C 
HETATM    5  C4  UNL     1      22.568   1.854  51.170  1.00  0.00    -0.016 C 
HETATM    6  C5  UNL     1      21.494   0.949  50.774  1.00  0.00     0.041 C 
HETATM    7  C6  UNL     1      20.140   1.462  51.237  1.00  0.00     0.043 A 
HETATM    8  C7  UNL     1      19.298   1.609  50.035  1.00  0.00    -0.017 A 
HETATM    9  C8  UNL     1      18.297   0.755  50.122  1.00  0.00     0.004 A 
HETATM   10  C9  UNL     1      18.352  -0.056  51.379  1.00  0.00    -0.050 A 
HETATM   11  C10 UNL     1      19.450   0.390  52.002  1.00  0.00    -0.042 A 
HETATM   12  C11 UNL     1      19.899  -0.141  53.314  1.00  0.00     0.119 C 
HETATM   13  C12 UNL     1      21.336  -0.447  53.426  1.00  0.00     0.045 C 
HETATM   14  C13 UNL     1      22.565  -1.007  53.666  1.00  0.00    -0.023 C 
HETATM   15  C14 UNL     1      23.958  -0.628  53.441  1.00  0.00    -0.029 C 
HETATM   16  C15 UNL     1      24.782   0.367  52.933  1.00  0.00     0.005 C 
HETATM   17  C16 UNL     1      25.138   1.639  52.303  1.00  0.00     0.082 C 
HETATM   18  C17 UNL     1      24.500   2.735  51.767  1.00  0.00     0.024 C 
HETATM   19  N1  UNL     1      25.212   3.895  51.443  1.00  0.00    -0.330 N 
HETATM   20  N2  UNL     1      19.083  -1.184  53.832  1.00  0.00    -0.390 N 
HETATM   21  C18 UNL     1      17.793  -1.755  53.765  1.00  0.00     0.080 C 
HETATM   22  C19 UNL     1      17.041  -1.611  52.667  1.00  0.00    -0.006 C 
HETATM   23  C20 UNL     1      17.170  -0.952  51.334  1.00  0.00     0.067 C 
HETATM   24  H15 UNL     1      26.279   3.821  51.440  1.00  0.00     0.168 HD
HETATM   25  H16 UNL     1      19.644  -1.772  54.542  1.00  0.00     0.159 HD
ENDROOT
TORSDOF 0
ENDMDL
MODEL 9
REMARK VINA RESULT:      -8.9      3.219      6.503
REMARK  0 active torsions:
REMARK  status: ('A' for Active; 'I' for Inactive)
ROOT
HETATM    1  O1  UNL     1      18.844   3.343  51.943  1.00  0.00    -0.273 OA
HETATM    2  C1  UNL     1      20.053   3.754  51.831  1.00  0.00     0.226 C 
HETATM    3  C2  UNL     1      21.401   4.099  52.440  1.00  0.00     0.143 C 
HETATM    4  C3  UNL     1      22.239   3.092  51.767  1.00  0.00    -0.030 C 
HETATM    5  C4  UNL     1      23.046   2.145  51.403  1.00  0.00    -0.016 C 
HETATM    6  C5  UNL     1      24.002   1.082  51.692  1.00  0.00     0.041 C 
HETATM    7  C6  UNL     1      24.437   1.110  53.149  1.00  0.00     0.043 A 
HETATM    8  C7  UNL     1      24.102  -0.205  53.727  1.00  0.00    -0.017 A 
HETATM    9  C8  UNL     1      25.225  -0.809  54.062  1.00  0.00     0.004 A 
HETATM   10  C9  UNL     1      26.431   0.022  53.748  1.00  0.00    -0.050 A 
HETATM   11  C10 UNL     1      25.921   1.138  53.212  1.00  0.00    -0.042 A 
HETATM   12  C11 UNL     1      26.771   2.265  52.749  1.00  0.00     0.119 C 
HETATM   13  C12 UNL     1      26.427   2.830  51.433  1.00  0.00     0.045 C 
HETATM   14  C13 UNL     1      26.429   3.338  50.158  1.00  0.00    -0.023 C 
HETATM   15  C14 UNL     1      25.423   3.823  49.216  1.00  0.00    -0.029 C 
HETATM   16  C15 UNL     1      24.064   4.043  49.040  1.00  0.00     0.005 C 
HETATM   17  C16 UNL     1      22.642   4.064  49.381  1.00  0.00     0.082 C 
HETATM   18  C17 UNL     1      21.832   3.714  50.437  1.00  0.00     0.024 C 
HETATM   19  N1  UNL     1      20.488   4.102  50.474  1.00  0.00    -0.330 N 
HETATM   20  N2  UNL     1      28.168   2.041  52.892  1.00  0.00    -0.390 N 
HETATM   21  C18 UNL     1      29.129   1.283  53.599  1.00  0.00     0.080 C 
HETATM   22  C19 UNL     1      28.808   0.092  54.118  1.00  0.00    -0.006 C 
HETATM   23  C20 UNL     1      27.600  -0.780  54.184  1.00  0.00     0.067 C 
HETATM   24  H15 UNL     1      20.076   4.498  49.571  1.00  0.00     0.168 HD
HETATM   25  H16 UNL     1      28.714   2.677  52.215  1.00  0.00     0.159 HD
ENDROOT
TORSDOF 0
ENDMDL
