MODEL 1
REMARK VINA RESULT:     -10.0      0.000      0.000
REMARK  1 active torsions:
REMARK  status: ('A' for Active; 'I' for Inactive)
REMARK    1  A    between atoms: N1_1  and  C1_2 
ROOT
HETATM    1  C1  UNL     1      26.397  -0.012  52.419  1.00  0.00     0.250 C 
HETATM    2  C2  UNL     1      27.400   1.116  52.580  1.00  0.00     0.041 C 
HETATM    3  C3  UNL     1      27.034   2.315  51.704  1.00  0.00     0.016 C 
HETATM    4  C4  UNL     1      25.630   2.147  51.275  1.00  0.00     0.045 C 
HETATM    5  C5  UNL     1      24.926   1.610  52.518  1.00  0.00    -0.008 C 
HETATM    6  C6  UNL     1      25.067   0.375  52.945  1.00  0.00    -0.028 C 
HETATM    7  C7  UNL     1      24.149  -0.365  53.727  1.00  0.00     0.027 C 
HETATM    8  C8  UNL     1      22.870  -0.608  53.778  1.00  0.00     0.046 A 
HETATM    9  C9  UNL     1      21.964  -1.387  54.615  1.00  0.00     0.257 A 
HETATM   10  O1  UNL     1      22.294  -2.097  55.597  1.00  0.00    -0.267 OA
HETATM   11  N2  UNL     1      20.633  -1.221  54.149  1.00  0.00    -0.322 N 
HETATM   12  C10 UNL     1      20.838  -0.342  53.051  1.00  0.00     0.048 A 
HETATM   13  C11 UNL     1      20.079   0.336  52.139  1.00  0.00     0.042 C 
HETATM   14  C12 UNL     1      21.033   1.433  51.974  1.00  0.00    -0.021 C 
HETATM   15  C13 UNL     1      22.179   0.856  51.713  1.00  0.00    -0.000 C 
HETATM   16  C14 UNL     1      22.233   0.094  52.743  1.00  0.00     0.018 A 
HETATM   17  C15 UNL     1      21.202   2.854  51.993  1.00  0.00     0.021 C 
HETATM   18  C16 UNL     1      22.235   3.608  51.747  1.00  0.00    -0.039 C 
HETATM   19  C17 UNL     1      22.079   5.086  51.858  1.00  0.00     0.015 C 
HETATM   20  C18 UNL     1      23.220   5.709  51.580  1.00  0.00     0.040 C 
HETATM   21  S1  UNL     1      24.490   5.114  50.472  1.00  0.00    -0.154 SA
HETATM   22  C19 UNL     1      24.862   3.429  51.032  1.00  0.00    -0.023 A 
HETATM   23  C20 UNL     1      23.638   3.751  51.377  1.00  0.00     0.114 A 
HETATM   24  H11 UNL     1      19.724  -1.595  54.460  1.00  0.00     0.169 HD
ENDROOT
BRANCH   1  25
HETATM   25  N1  UNL     1      26.860  -1.099  53.261  1.00  0.00     0.087 N 
HETATM   26  H1  UNL     1      27.857  -0.992  53.558  1.00  0.00     0.313 HD
HETATM   27  H2  UNL     1      26.285  -1.066  54.154  1.00  0.00     0.313 HD
ENDBRANCH   1  25
TORSDOF 1
ENDMDL
MODEL 2
REMARK VINA RESULT:      -9.8      2.363      4.906
REMARK  1 active torsions:
REMARK  status: ('A' for Active; 'I' for Inactive)
REMARK    1  A    between atoms: N1_1  and  C1_2 
ROOT
HETATM    1  C1  UNL     1      22.326  -0.888  54.879  1.00  0.00     0.250 C 
HETATM    2  C2  UNL     1      21.067  -1.606  54.425  1.00  0.00     0.041 C 
HETATM    3  C3  UNL     1      20.194  -0.702  53.554  1.00  0.00     0.016 C 
HETATM    4  C4  UNL     1      21.024   0.441  53.119  1.00  0.00     0.045 C 
HETATM    5  C5  UNL     1      22.379  -0.186  52.803  1.00  0.00    -0.008 C 
HETATM    6  C6  UNL     1      23.216  -0.591  53.733  1.00  0.00    -0.028 C 
HETATM    7  C7  UNL     1      24.620  -0.712  53.618  1.00  0.00     0.027 C 
HETATM    8  C8  UNL     1      25.633  -0.035  53.154  1.00  0.00     0.046 A 
HETATM    9  C9  UNL     1      27.079  -0.208  53.060  1.00  0.00     0.257 A 
HETATM   10  O1  UNL     1      27.733  -1.191  53.486  1.00  0.00    -0.267 OA
HETATM   11  N2  UNL     1      27.645   0.918  52.405  1.00  0.00    -0.322 N 
HETATM   12  C10 UNL     1      26.483   1.695  52.149  1.00  0.00     0.048 A 
HETATM   13  C11 UNL     1      26.161   2.860  51.510  1.00  0.00     0.042 C 
HETATM   14  C12 UNL     1      24.805   2.441  51.160  1.00  0.00    -0.021 C 
HETATM   15  C13 UNL     1      24.271   2.031  52.283  1.00  0.00    -0.000 C 
HETATM   16  C14 UNL     1      25.161   1.163  52.597  1.00  0.00     0.018 A 
HETATM   17  C15 UNL     1      23.858   2.300  50.096  1.00  0.00     0.021 C 
HETATM   18  C16 UNL     1      22.614   1.911  50.087  1.00  0.00    -0.039 C 
HETATM   19  C17 UNL     1      21.892   1.873  48.785  1.00  0.00     0.015 C 
HETATM   20  C18 UNL     1      20.640   1.454  48.946  1.00  0.00     0.040 C 
HETATM   21  S1  UNL     1      19.645   1.677  50.414  1.00  0.00    -0.154 SA
HETATM   22  C19 UNL     1      20.659   1.043  51.779  1.00  0.00    -0.023 A 
HETATM   23  C20 UNL     1      21.434   1.433  50.795  1.00  0.00     0.114 A 
HETATM   24  H11 UNL     1      28.610   1.175  52.150  1.00  0.00     0.169 HD
ENDROOT
BRANCH   1  25
HETATM   25  N1  UNL     1      23.053  -1.821  55.719  1.00  0.00     0.087 N 
HETATM   26  H1  UNL     1      24.080  -1.629  55.753  1.00  0.00     0.313 HD
HETATM   27  H2  UNL     1      22.698  -1.685  56.711  1.00  0.00     0.313 HD
ENDBRANCH   1  25
TORSDOF 1
ENDMDL
MODEL 3
REMARK VINA RESULT:      -9.7      2.984      5.115
REMARK  1 active torsions:
REMARK  status: ('A' for Active; 'I' for Inactive)
REMARK    1  A    between atoms: N1_1  and  C1_2 
ROOT
HETATM    1  C1  UNL     1      25.904   3.488  49.587  1.00  0.00     0.250 C 
HETATM    2  C2  UNL     1      24.727   4.396  49.276  1.00  0.00     0.041 C 
HETATM    3  C3  UNL     1      23.417   3.610  49.222  1.00  0.00     0.016 C 
HETATM    4  C4  UNL     1      23.654   2.296  49.858  1.00  0.00     0.045 C 
HETATM    5  C5  UNL     1      24.533   2.623  51.062  1.00  0.00    -0.008 C 
HETATM    6  C6  UNL     1      25.806   2.934  50.957  1.00  0.00    -0.028 C 
HETATM    7  C7  UNL     1      26.804   2.773  51.946  1.00  0.00     0.027 C 
HETATM    8  C8  UNL     1      27.205   1.878  52.805  1.00  0.00     0.046 A 
HETATM    9  C9  UNL     1      28.253   1.761  53.814  1.00  0.00     0.257 A 
HETATM   10  O1  UNL     1      29.117   2.631  54.083  1.00  0.00    -0.267 OA
HETATM   11  N2  UNL     1      28.149   0.499  54.455  1.00  0.00    -0.322 N 
HETATM   12  C10 UNL     1      27.031  -0.059  53.777  1.00  0.00     0.048 A 
HETATM   13  C11 UNL     1      26.264  -1.188  53.843  1.00  0.00     0.042 C 
HETATM   14  C12 UNL     1      25.051  -0.545  53.337  1.00  0.00    -0.021 C 
HETATM   15  C13 UNL     1      25.414   0.049  52.228  1.00  0.00    -0.000 C 
HETATM   16  C14 UNL     1      26.373   0.753  52.709  1.00  0.00     0.018 A 
HETATM   17  C15 UNL     1      23.660  -0.311  53.576  1.00  0.00     0.021 C 
HETATM   18  C16 UNL     1      22.751   0.308  52.877  1.00  0.00    -0.039 C 
HETATM   19  C17 UNL     1      21.365   0.378  53.417  1.00  0.00     0.015 C 
HETATM   20  C18 UNL     1      20.563   1.043  52.590  1.00  0.00     0.040 C 
HETATM   21  S1  UNL     1      20.742   1.134  50.814  1.00  0.00    -0.154 SA
HETATM   22  C19 UNL     1      22.452   1.670  50.533  1.00  0.00    -0.023 A 
HETATM   23  C20 UNL     1      22.363   1.060  51.690  1.00  0.00     0.114 A 
HETATM   24  H11 UNL     1      28.689   0.041  55.204  1.00  0.00     0.169 HD
ENDROOT
BRANCH   1  25
HETATM   25  N1  UNL     1      27.087   4.329  49.579  1.00  0.00     0.087 N 
HETATM   26  H1  UNL     1      27.222   4.857  50.471  1.00  0.00     0.313 HD
HETATM   27  H2  UNL     1      27.926   3.683  49.493  1.00  0.00     0.313 HD
ENDBRANCH   1  25
TORSDOF 1
ENDMDL
MODEL 4
REMARK VINA RESULT:      -9.5      2.634      4.545
REMARK  1 active torsions:
REMARK  status: ('A' for Active; 'I' for Inactive)
REMARK    1  A    between atoms: N1_1  and  C1_2 
ROOT
HETATM    1  C1  UNL     1      21.789   3.349  49.727  1.00  0.00     0.250 C 
HETATM    2  C2  UNL     1      22.926   3.381  48.720  1.00  0.00     0.041 C 
HETATM    3  C3  UNL     1      24.286   3.312  49.415  1.00  0.00     0.016 C 
HETATM    4  C4  UNL     1      24.060   2.856  50.803  1.00  0.00     0.045 C 
HETATM    5  C5  UNL     1      22.991   1.775  50.666  1.00  0.00    -0.008 C 
HETATM    6  C6  UNL     1      21.728   2.043  50.423  1.00  0.00    -0.028 C 
HETATM    7  C7  UNL     1      20.610   1.242  50.754  1.00  0.00     0.027 C 
HETATM    8  C8  UNL     1      20.157   0.549  51.762  1.00  0.00     0.046 A 
HETATM    9  C9  UNL     1      18.985  -0.269  52.054  1.00  0.00     0.257 A 
HETATM   10  O1  UNL     1      18.026  -0.488  51.273  1.00  0.00    -0.267 OA
HETATM   11  N2  UNL     1      19.090  -0.787  53.371  1.00  0.00    -0.322 N 
HETATM   12  C10 UNL     1      20.335  -0.237  53.781  1.00  0.00     0.048 A 
HETATM   13  C11 UNL     1      21.169  -0.306  54.861  1.00  0.00     0.042 C 
HETATM   14  C12 UNL     1      22.389  -0.060  54.094  1.00  0.00    -0.021 C 
HETATM   15  C13 UNL     1      22.148   1.025  53.403  1.00  0.00    -0.000 C 
HETATM   16  C14 UNL     1      21.078   0.629  52.817  1.00  0.00     0.018 A 
HETATM   17  C15 UNL     1      23.709  -0.534  53.804  1.00  0.00     0.021 C 
HETATM   18  C16 UNL     1      24.660  -0.049  53.057  1.00  0.00    -0.039 C 
HETATM   19  C17 UNL     1      25.942  -0.802  52.963  1.00  0.00     0.015 C 
HETATM   20  C18 UNL     1      26.803  -0.180  52.164  1.00  0.00     0.040 C 
HETATM   21  S1  UNL     1      26.881   1.585  51.886  1.00  0.00    -0.154 SA
HETATM   22  C19 UNL     1      25.194   2.071  51.426  1.00  0.00    -0.023 A 
HETATM   23  C20 UNL     1      25.159   0.981  52.155  1.00  0.00     0.114 A 
HETATM   24  H11 UNL     1      18.483  -1.394  53.941  1.00  0.00     0.169 HD
ENDROOT
BRANCH   1  25
HETATM   25  N1  UNL     1      20.559   3.454  48.963  1.00  0.00     0.087 N 
HETATM   26  H1  UNL     1      19.758   3.822  49.525  1.00  0.00     0.313 HD
HETATM   27  H2  UNL     1      20.731   4.170  48.198  1.00  0.00     0.313 HD
ENDBRANCH   1  25
TORSDOF 1
ENDMDL
MODEL 5
REMARK VINA RESULT:      -9.4      1.710      2.329
REMARK  1 active torsions:
REMARK  status: ('A' for Active; 'I' for Inactive)
REMARK    1  A    between atoms: N1_1  and  C1_2 
ROOT
HETATM    1  C1  UNL     1      26.407   1.271  51.593  1.00  0.00     0.250 C 
HETATM    2  C2  UNL     1      26.570   2.711  51.138  1.00  0.00     0.041 C 
HETATM    3  C3  UNL     1      25.340   3.193  50.367  1.00  0.00     0.016 C 
HETATM    4  C4  UNL     1      24.240   2.244  50.636  1.00  0.00     0.045 C 
HETATM    5  C5  UNL     1      24.383   1.924  52.122  1.00  0.00    -0.008 C 
HETATM    6  C6  UNL     1      25.328   1.147  52.600  1.00  0.00    -0.028 C 
HETATM    7  C7  UNL     1      25.288   0.399  53.801  1.00  0.00     0.027 C 
HETATM    8  C8  UNL     1      24.469  -0.381  54.449  1.00  0.00     0.046 A 
HETATM    9  C9  UNL     1      24.476  -1.135  55.698  1.00  0.00     0.257 A 
HETATM   10  O1  UNL     1      25.429  -1.201  56.513  1.00  0.00    -0.267 OA
HETATM   11  N2  UNL     1      23.228  -1.793  55.857  1.00  0.00    -0.322 N 
HETATM   12  C10 UNL     1      22.551  -1.381  54.677  1.00  0.00     0.048 A 
HETATM   13  C11 UNL     1      21.312  -1.516  54.119  1.00  0.00     0.042 C 
HETATM   14  C12 UNL     1      21.358  -0.242  53.402  1.00  0.00    -0.021 C 
HETATM   15  C13 UNL     1      22.485  -0.263  52.736  1.00  0.00    -0.000 C 
HETATM   16  C14 UNL     1      23.271  -0.483  53.725  1.00  0.00     0.018 A 
HETATM   17  C15 UNL     1      20.674   0.991  53.154  1.00  0.00     0.021 C 
HETATM   18  C16 UNL     1      20.954   1.997  52.375  1.00  0.00    -0.039 C 
HETATM   19  C17 UNL     1      20.017   3.156  52.348  1.00  0.00     0.015 C 
HETATM   20  C18 UNL     1      20.445   4.095  51.510  1.00  0.00     0.040 C 
HETATM   21  S1  UNL     1      21.425   3.815  50.041  1.00  0.00    -0.154 SA
HETATM   22  C19 UNL     1      22.845   2.830  50.595  1.00  0.00    -0.023 A 
HETATM   23  C20 UNL     1      21.830   2.639  51.403  1.00  0.00     0.114 A 
HETATM   24  H11 UNL     1      22.844  -2.410  56.587  1.00  0.00     0.169 HD
ENDROOT
BRANCH   1  25
HETATM   25  N1  UNL     1      27.637   0.913  52.276  1.00  0.00     0.087 N 
HETATM   26  H1  UNL     1      27.766  -0.120  52.373  1.00  0.00     0.313 HD
HETATM   27  H2  UNL     1      28.438   1.251  51.667  1.00  0.00     0.313 HD
ENDBRANCH   1  25
TORSDOF 1
ENDMDL
MODEL 6
REMARK VINA RESULT:      -9.0      2.172      4.877
REMARK  1 active torsions:
REMARK  status: ('A' for Active; 'I' for Inactive)
REMARK    1  A    between atoms: N1_1  and  C1_2 
ROOT
HETATM    1  C1  UNL     1      20.020  -0.425  53.507  1.00  0.00     0.250 C 
HETATM    2  C2  UNL     1      19.034  -0.943  52.475  1.00  0.00     0.041 C 
HETATM    3  C3  UNL     1      18.758   0.103  51.395  1.00  0.00     0.016 C 
HETATM    4  C4  UNL     1      19.815   1.132  51.484  1.00  0.00     0.045 C 
HETATM    5  C5  UNL     1      21.088   0.331  51.748  1.00  0.00    -0.008 C 
HETATM    6  C6  UNL     1      21.360  -0.218  52.910  1.00  0.00    -0.028 C 
HETATM    7  C7  UNL     1      22.641  -0.532  53.423  1.00  0.00     0.027 C 
HETATM    8  C8  UNL     1      23.822   0.011  53.525  1.00  0.00     0.046 A 
HETATM    9  C9  UNL     1      25.124  -0.360  54.068  1.00  0.00     0.257 A 
HETATM   10  O1  UNL     1      25.400  -1.439  54.647  1.00  0.00    -0.267 OA
HETATM   11  N2  UNL     1      26.046   0.695  53.843  1.00  0.00    -0.322 N 
HETATM   12  C10 UNL     1      25.221   1.637  53.169  1.00  0.00     0.048 A 
HETATM   13  C11 UNL     1      25.355   2.856  52.567  1.00  0.00     0.042 C 
HETATM   14  C12 UNL     1      24.268   2.644  51.611  1.00  0.00    -0.021 C 
HETATM   15  C13 UNL     1      23.241   2.276  52.335  1.00  0.00    -0.000 C 
HETATM   16  C14 UNL     1      23.790   1.281  52.930  1.00  0.00     0.018 A 
HETATM   17  C15 UNL     1      23.898   2.673  50.229  1.00  0.00     0.021 C 
HETATM   18  C16 UNL     1      22.760   2.464  49.631  1.00  0.00    -0.039 C 
HETATM   19  C17 UNL     1      22.708   2.572  48.146  1.00  0.00     0.015 C 
HETATM   20  C18 UNL     1      21.483   2.327  47.692  1.00  0.00     0.040 C 
HETATM   21  S1  UNL     1      19.961   2.640  48.577  1.00  0.00    -0.154 SA
HETATM   22  C19 UNL     1      20.167   1.824  50.184  1.00  0.00    -0.023 A 
HETATM   23  C20 UNL     1      21.342   2.133  49.690  1.00  0.00     0.114 A 
HETATM   24  H11 UNL     1      27.043   0.822  54.069  1.00  0.00     0.169 HD
ENDROOT
BRANCH   1  25
HETATM   25  N1  UNL     1      20.178  -1.479  54.492  1.00  0.00     0.087 N 
HETATM   26  H1  UNL     1      21.161  -1.829  54.565  1.00  0.00     0.313 HD
HETATM   27  H2  UNL     1      19.950  -1.055  55.438  1.00  0.00     0.313 HD
ENDBRANCH   1  25
TORSDOF 1
ENDMDL
MODEL 7
REMARK VINA RESULT:      -8.9      2.911      5.584
REMARK  1 active torsions:
REMARK  status: ('A' for Active; 'I' for Inactive)
REMARK    1  A    between atoms: N1_1  and  C1_2 
ROOT
HETATM    1  C1  UNL     1      23.655   4.335  51.516  1.00  0.00     0.250 C 
HETATM    2  C2  UNL     1      22.320   4.874  52.000  1.00  0.00     0.041 C 
HETATM    3  C3  UNL     1      21.233   3.799  51.945  1.00  0.00     0.016 C 
HETATM    4  C4  UNL     1      21.903   2.489  51.802  1.00  0.00     0.045 C 
HETATM    5  C5  UNL     1      23.113   2.591  52.727  1.00  0.00    -0.008 C 
HETATM    6  C6  UNL     1      24.181   3.300  52.436  1.00  0.00    -0.028 C 
HETATM    7  C7  UNL     1      25.495   3.097  52.918  1.00  0.00     0.027 C 
HETATM    8  C8  UNL     1      26.332   2.118  53.114  1.00  0.00     0.046 A 
HETATM    9  C9  UNL     1      27.691   1.960  53.621  1.00  0.00     0.257 A 
HETATM   10  O1  UNL     1      28.442   2.886  54.017  1.00  0.00    -0.267 OA
HETATM   11  N2  UNL     1      28.045   0.586  53.599  1.00  0.00    -0.322 N 
HETATM   12  C10 UNL     1      26.857   0.008  53.074  1.00  0.00     0.048 A 
HETATM   13  C11 UNL     1      26.365  -1.240  52.812  1.00  0.00     0.042 C 
HETATM   14  C12 UNL     1      24.965  -0.868  53.019  1.00  0.00    -0.021 C 
HETATM   15  C13 UNL     1      24.774   0.185  52.264  1.00  0.00    -0.000 C 
HETATM   16  C14 UNL     1      25.719   0.914  52.735  1.00  0.00     0.018 A 
HETATM   17  C15 UNL     1      23.755  -1.193  53.710  1.00  0.00     0.021 C 
HETATM   18  C16 UNL     1      22.561  -0.673  53.660  1.00  0.00    -0.039 C 
HETATM   19  C17 UNL     1      21.498  -1.253  54.527  1.00  0.00     0.015 C 
HETATM   20  C18 UNL     1      20.344  -0.612  54.361  1.00  0.00     0.040 C 
HETATM   21  S1  UNL     1      19.809   0.200  52.861  1.00  0.00    -0.154 SA
HETATM   22  C19 UNL     1      21.170   1.310  52.406  1.00  0.00    -0.023 A 
HETATM   23  C20 UNL     1      21.632   0.311  53.119  1.00  0.00     0.114 A 
HETATM   24  H11 UNL     1      28.897   0.072  53.868  1.00  0.00     0.169 HD
ENDROOT
BRANCH   1  25
HETATM   25  N1  UNL     1      24.592   5.441  51.578  1.00  0.00     0.087 N 
HETATM   26  H1  UNL     1      24.496   6.107  50.777  1.00  0.00     0.313 HD
HETATM   27  H2  UNL     1      24.356   5.998  52.450  1.00  0.00     0.313 HD
ENDBRANCH   1  25
TORSDOF 1
ENDMDL
MODEL 8
REMARK VINA RESULT:      -8.9      1.745      2.116
REMARK  1 active torsions:
REMARK  status: ('A' for Active; 'I' for Inactive)
REMARK    1  A    between atoms: N1_1  and  C1_2 
ROOT
HETATM    1  C1  UNL     1      25.857   0.021  53.355  1.00  0.00     0.250 C 
HETATM    2  C2  UNL     1      27.045   0.913  53.669  1.00  0.00     0.041 C 
HETATM    3  C3  UNL     1      27.494   1.698  52.436  1.00  0.00     0.016 C 
HETATM    4  C4  UNL     1      26.405   1.629  51.438  1.00  0.00     0.045 C 
HETATM    5  C5  UNL     1      25.134   1.782  52.269  1.00  0.00    -0.008 C 
HETATM    6  C6  UNL     1      24.655   0.824  53.031  1.00  0.00    -0.028 C 
HETATM    7  C7  UNL     1      23.310   0.647  53.431  1.00  0.00     0.027 C 
HETATM    8  C8  UNL     1      22.115   0.683  52.912  1.00  0.00     0.046 A 
HETATM    9  C9  UNL     1      20.744   0.492  53.374  1.00  0.00     0.257 A 
HETATM   10  O1  UNL     1      20.396   0.195  54.543  1.00  0.00    -0.267 OA
HETATM   11  N2  UNL     1      19.850   0.694  52.291  1.00  0.00    -0.322 N 
HETATM   12  C10 UNL     1      20.759   0.997  51.241  1.00  0.00     0.048 A 
HETATM   13  C11 UNL     1      20.705   1.373  49.928  1.00  0.00     0.042 C 
HETATM   14  C12 UNL     1      21.966   2.113  49.958  1.00  0.00    -0.021 C 
HETATM   15  C13 UNL     1      22.842   1.281  50.463  1.00  0.00    -0.000 C 
HETATM   16  C14 UNL     1      22.221   1.008  51.551  1.00  0.00     0.018 A 
HETATM   17  C15 UNL     1      22.601   3.363  49.665  1.00  0.00     0.021 C 
HETATM   18  C16 UNL     1      23.841   3.749  49.761  1.00  0.00    -0.039 C 
HETATM   19  C17 UNL     1      24.182   5.146  49.370  1.00  0.00     0.015 C 
HETATM   20  C18 UNL     1      25.481   5.382  49.528  1.00  0.00     0.040 C 
HETATM   21  S1  UNL     1      26.786   4.167  49.399  1.00  0.00    -0.154 SA
HETATM   22  C19 UNL     1      26.294   2.818  50.508  1.00  0.00    -0.023 A 
HETATM   23  C20 UNL     1      25.230   3.470  50.104  1.00  0.00     0.114 A 
HETATM   24  H11 UNL     1      18.824   0.652  52.205  1.00  0.00     0.169 HD
ENDROOT
BRANCH   1  25
HETATM   25  N1  UNL     1      25.544  -0.695  54.578  1.00  0.00     0.087 N 
HETATM   26  H1  UNL     1      24.521  -0.710  54.794  1.00  0.00     0.313 HD
HETATM   27  H2  UNL     1      25.824  -1.708  54.424  1.00  0.00     0.313 HD
ENDBRANCH   1  25
TORSDOF 1
ENDMDL
MODEL 9
REMARK VINA RESULT:      -8.8      2.755      5.093
REMARK  1 active torsions:
REMARK  status: ('A' for Active; 'I' for Inactive)
REMARK    1  A    between atoms: N1_1  and  C1_2 
ROOT
HETATM    1  C1  UNL     1      23.374  -0.759  54.874  1.00  0.00     0.250 C 
HETATM    2  C2  UNL     1      22.550  -2.027  54.733  1.00  0.00     0.041 C 
HETATM    3  C3  UNL     1      21.098  -1.709  54.370  1.00  0.00     0.016 C 
HETATM    4  C4  UNL     1      21.047  -0.308  53.903  1.00  0.00     0.045 C 
HETATM    5  C5  UNL     1      22.309  -0.155  53.057  1.00  0.00    -0.008 C 
HETATM    6  C6  UNL     1      23.513  -0.063  53.575  1.00  0.00    -0.028 C 
HETATM    7  C7  UNL     1      24.645   0.553  52.990  1.00  0.00     0.027 C 
HETATM    8  C8  UNL     1      24.953   1.647  52.353  1.00  0.00     0.046 A 
HETATM    9  C9  UNL     1      26.149   2.239  51.764  1.00  0.00     0.257 A 
HETATM   10  O1  UNL     1      27.300   1.736  51.770  1.00  0.00    -0.267 OA
HETATM   11  N2  UNL     1      25.816   3.487  51.176  1.00  0.00    -0.322 N 
HETATM   12  C10 UNL     1      24.424   3.556  51.455  1.00  0.00     0.048 A 
HETATM   13  C11 UNL     1      23.372   4.383  51.177  1.00  0.00     0.042 C 
HETATM   14  C12 UNL     1      22.365   3.323  51.217  1.00  0.00    -0.021 C 
HETATM   15  C13 UNL     1      22.554   2.711  52.359  1.00  0.00    -0.000 C 
HETATM   16  C14 UNL     1      23.795   2.426  52.205  1.00  0.00     0.018 A 
HETATM   17  C15 UNL     1      21.285   2.702  50.511  1.00  0.00     0.021 C 
HETATM   18  C16 UNL     1      20.480   1.731  50.837  1.00  0.00    -0.039 C 
HETATM   19  C17 UNL     1      19.441   1.312  49.855  1.00  0.00     0.015 C 
HETATM   20  C18 UNL     1      18.707   0.312  50.335  1.00  0.00     0.040 C 
HETATM   21  S1  UNL     1      18.354   0.012  52.062  1.00  0.00    -0.154 SA
HETATM   22  C19 UNL     1      19.971   0.004  52.885  1.00  0.00    -0.023 A 
HETATM   23  C20 UNL     1      20.034   0.724  51.791  1.00  0.00     0.114 A 
HETATM   24  H11 UNL     1      26.364   4.199  50.672  1.00  0.00     0.169 HD
ENDROOT
BRANCH   1  25
HETATM   25  N1  UNL     1      24.712  -1.177  55.250  1.00  0.00     0.087 N 
HETATM   26  H1  UNL     1      24.984  -0.866  56.210  1.00  0.00     0.313 HD
HETATM   27  H2  UNL     1      24.708  -2.239  55.279  1.00  0.00     0.313 HD
ENDBRANCH   1  25
TORSDOF 1
ENDMDL
