MODEL 1
REMARK VINA RESULT:      -9.0      0.000      0.000
REMARK  4 active torsions:
REMARK  status: ('A' for Active; 'I' for Inactive)
REMARK    1  A    between atoms: C7_7  and  N1_8 
REMARK    2  A    between atoms: C11_14  and  C12_15 
REMARK    3  A    between atoms: C12_15  and  N4_16 
REMARK    4  A    between atoms: C15_19  and  N5_20 
ROOT
HETATM    1  C1  UNL     1      24.896   4.996  49.111  1.00  0.00     0.018 C 
HETATM    2  C2  UNL     1      24.111   4.064  49.224  1.00  0.00    -0.078 C 
HETATM    3  C3  UNL     1      23.200   2.966  49.365  1.00  0.00     0.019 A 
HETATM    4  C4  UNL     1      22.537   2.454  48.277  1.00  0.00     0.021 A 
HETATM    5  C5  UNL     1      21.666   1.404  48.424  1.00  0.00     0.004 A 
HETATM    6  C6  UNL     1      21.512   0.920  49.702  1.00  0.00     0.030 A 
HETATM    7  C7  UNL     1      22.138   1.366  50.885  1.00  0.00     0.043 A 
HETATM    8  C19 UNL     1      22.974   2.408  50.595  1.00  0.00     0.050 A 
ENDROOT
BRANCH   7   9
HETATM    9  N1  UNL     1      21.811   0.693  52.052  1.00  0.00    -0.288 N 
HETATM   10  C8  UNL     1      20.509   0.470  52.412  1.00  0.00     0.239 A 
HETATM   11  N2  UNL     1      20.440  -0.238  53.546  1.00  0.00    -0.161 NA
HETATM   12  N3  UNL     1      21.675  -0.484  53.939  1.00  0.00    -0.227 N 
HETATM   13  C9  UNL     1      22.363  -1.111  54.907  1.00  0.00     0.121 A 
HETATM   14  C18 UNL     1      22.490   0.081  53.036  1.00  0.00     0.144 A 
HETATM   15  C10 UNL     1      23.706  -0.955  54.641  1.00  0.00     0.032 A 
HETATM   16  C11 UNL     1      23.756  -0.211  53.481  1.00  0.00     0.018 A 
BRANCH  16  17
HETATM   17  C12 UNL     1      24.988   0.287  52.863  1.00  0.00     0.315 C 
BRANCH  17  18
HETATM   18  N4  UNL     1      26.055   0.536  53.858  1.00  0.00     0.092 N 
HETATM   19  C13 UNL     1      26.500   1.919  53.715  1.00  0.00     0.275 C 
HETATM   20  C14 UNL     1      27.845   2.105  53.116  1.00  0.00     0.065 C 
HETATM   21  C15 UNL     1      28.962   1.349  53.803  1.00  0.00     0.221 C 
HETATM   22  C16 UNL     1      28.373   0.115  54.413  1.00  0.00     0.065 C 
HETATM   23  C17 UNL     1      27.211  -0.296  53.496  1.00  0.00     0.275 C 
BRANCH  21  24
HETATM   24  N5  UNL     1      29.659   2.182  54.788  1.00  0.00     0.083 N 
HETATM   25  H15 UNL     1      29.400   3.174  54.559  1.00  0.00     0.313 HD
HETATM   26  H16 UNL     1      29.243   2.004  55.737  1.00  0.00     0.313 HD
ENDBRANCH  21  24
ENDBRANCH  17  18
ENDBRANCH  16  17
ENDBRANCH   7   9
TORSDOF 4
ENDMDL
MODEL 2
REMARK VINA RESULT:      -8.4      1.953      4.751
REMARK  4 active torsions:
REMARK  status: ('A' for Active; 'I' for Inactive)
REMARK    1  A    between atoms: C7_7  and  N1_8 
REMARK    2  A    between atoms: C11_14  and  C12_15 
REMARK    3  A    between atoms: C12_15  and  N4_16 
REMARK    4  A    between atoms: C15_19  and  N5_20 
ROOT
HETATM    1  C1  UNL     1      23.387  -1.467  55.586  1.00  0.00     0.018 C 
HETATM    2  C2  UNL     1      22.834  -0.938  54.633  1.00  0.00    -0.078 C 
HETATM    3  C3  UNL     1      22.191  -0.308  53.516  1.00  0.00     0.019 A 
HETATM    4  C4  UNL     1      20.841  -0.445  53.309  1.00  0.00     0.021 A 
HETATM    5  C5  UNL     1      20.237   0.161  52.236  1.00  0.00     0.004 A 
HETATM    6  C6  UNL     1      21.060   0.893  51.413  1.00  0.00     0.030 A 
HETATM    7  C7  UNL     1      22.451   1.101  51.530  1.00  0.00     0.043 A 
HETATM    8  C19 UNL     1      22.919   0.446  52.634  1.00  0.00     0.050 A 
ENDROOT
BRANCH   7   9
HETATM    9  N1  UNL     1      23.044   1.895  50.561  1.00  0.00    -0.288 N 
HETATM   10  C8  UNL     1      22.416   2.174  49.377  1.00  0.00     0.239 A 
HETATM   11  N2  UNL     1      23.157   2.996  48.624  1.00  0.00    -0.161 NA
HETATM   12  N3  UNL     1      24.263   3.262  49.291  1.00  0.00    -0.227 N 
HETATM   13  C9  UNL     1      25.397   3.975  49.201  1.00  0.00     0.121 A 
HETATM   14  C18 UNL     1      24.186   2.595  50.453  1.00  0.00     0.144 A 
HETATM   15  C10 UNL     1      26.118   3.771  50.359  1.00  0.00     0.032 A 
HETATM   16  C11 UNL     1      25.347   2.912  51.113  1.00  0.00     0.018 A 
BRANCH  16  17
HETATM   17  C12 UNL     1      25.757   2.335  52.396  1.00  0.00     0.315 C 
BRANCH  17  18
HETATM   18  N4  UNL     1      26.991   1.526  52.280  1.00  0.00     0.092 N 
HETATM   19  C13 UNL     1      26.612   0.117  52.231  1.00  0.00     0.275 C 
HETATM   20  C14 UNL     1      26.923  -0.677  53.445  1.00  0.00     0.065 C 
HETATM   21  C15 UNL     1      28.367  -0.623  53.893  1.00  0.00     0.221 C 
HETATM   22  C16 UNL     1      28.929   0.700  53.473  1.00  0.00     0.065 C 
HETATM   23  C17 UNL     1      27.756   1.692  53.523  1.00  0.00     0.275 C 
BRANCH  21  24
HETATM   24  N5  UNL     1      29.144  -1.752  53.371  1.00  0.00     0.083 N 
HETATM   25  H15 UNL     1      30.138  -1.417  53.322  1.00  0.00     0.313 HD
HETATM   26  H16 UNL     1      29.149  -2.520  54.089  1.00  0.00     0.313 HD
ENDBRANCH  21  24
ENDBRANCH  17  18
ENDBRANCH  16  17
ENDBRANCH   7   9
TORSDOF 4
ENDMDL
MODEL 3
REMARK VINA RESULT:      -8.3      2.140      5.704
REMARK  4 active torsions:
REMARK  status: ('A' for Active; 'I' for Inactive)
REMARK    1  A    between atoms: C7_7  and  N1_8 
REMARK    2  A    between atoms: C11_14  and  C12_15 
REMARK    3  A    between atoms: C12_15  and  N4_16 
REMARK    4  A    between atoms: C15_19  and  N5_20 
ROOT
HETATM    1  C1  UNL     1      19.774   0.772  50.556  1.00  0.00     0.018 C 
HETATM    2  C2  UNL     1      20.445   0.370  51.496  1.00  0.00    -0.078 C 
HETATM    3  C3  UNL     1      21.242  -0.105  52.590  1.00  0.00     0.019 A 
HETATM    4  C4  UNL     1      20.692  -0.881  53.579  1.00  0.00     0.021 A 
HETATM    5  C5  UNL     1      21.464  -1.328  54.623  1.00  0.00     0.004 A 
HETATM    6  C6  UNL     1      22.786  -0.951  54.602  1.00  0.00     0.030 A 
HETATM    7  C7  UNL     1      23.453  -0.160  53.642  1.00  0.00     0.043 A 
HETATM    8  C19 UNL     1      22.572   0.213  52.666  1.00  0.00     0.050 A 
ENDROOT
BRANCH   7   9
HETATM    9  N1  UNL     1      24.804   0.067  53.855  1.00  0.00    -0.288 N 
HETATM   10  C8  UNL     1      25.491  -0.569  54.853  1.00  0.00     0.239 A 
HETATM   11  N2  UNL     1      26.786  -0.230  54.834  1.00  0.00    -0.161 NA
HETATM   12  N3  UNL     1      26.963   0.620  53.842  1.00  0.00    -0.227 N 
HETATM   13  C9  UNL     1      27.921   1.333  53.228  1.00  0.00     0.121 A 
HETATM   14  C18 UNL     1      25.765   0.793  53.261  1.00  0.00     0.144 A 
HETATM   15  C10 UNL     1      27.336   2.021  52.187  1.00  0.00     0.032 A 
HETATM   16  C11 UNL     1      26.003   1.671  52.232  1.00  0.00     0.018 A 
BRANCH  16  17
HETATM   17  C12 UNL     1      24.963   2.238  51.368  1.00  0.00     0.315 C 
BRANCH  17  18
HETATM   18  N4  UNL     1      24.650   3.642  51.713  1.00  0.00     0.092 N 
HETATM   19  C13 UNL     1      23.253   3.710  52.131  1.00  0.00     0.275 C 
HETATM   20  C14 UNL     1      22.326   4.367  51.177  1.00  0.00     0.065 C 
HETATM   21  C15 UNL     1      22.728   5.762  50.751  1.00  0.00     0.221 C 
HETATM   22  C16 UNL     1      24.222   5.847  50.811  1.00  0.00     0.065 C 
HETATM   23  C17 UNL     1      24.738   4.438  50.481  1.00  0.00     0.275 C 
BRANCH  21  24
HETATM   24  N5  UNL     1      22.076   6.792  51.567  1.00  0.00     0.083 N 
HETATM   25  H15 UNL     1      21.109   6.901  51.171  1.00  0.00     0.313 HD
HETATM   26  H16 UNL     1      21.932   6.413  52.538  1.00  0.00     0.313 HD
ENDBRANCH  21  24
ENDBRANCH  17  18
ENDBRANCH  16  17
ENDBRANCH   7   9
TORSDOF 4
ENDMDL
MODEL 4
REMARK VINA RESULT:      -8.2      2.148      5.247
REMARK  4 active torsions:
REMARK  status: ('A' for Active; 'I' for Inactive)
REMARK    1  A    between atoms: C7_7  and  N1_8 
REMARK    2  A    between atoms: C11_14  and  C12_15 
REMARK    3  A    between atoms: C12_15  and  N4_16 
REMARK    4  A    between atoms: C15_19  and  N5_20 
ROOT
HETATM    1  C1  UNL     1      26.523   3.292  50.235  1.00  0.00     0.018 C 
HETATM    2  C2  UNL     1      26.297   2.371  51.007  1.00  0.00    -0.078 C 
HETATM    3  C3  UNL     1      26.024   1.298  51.919  1.00  0.00     0.019 A 
HETATM    4  C4  UNL     1      27.043   0.560  52.467  1.00  0.00     0.021 A 
HETATM    5  C5  UNL     1      26.770  -0.465  53.337  1.00  0.00     0.004 A 
HETATM    6  C6  UNL     1      25.441  -0.690  53.609  1.00  0.00     0.030 A 
HETATM    7  C7  UNL     1      24.318   0.002  53.106  1.00  0.00     0.043 A 
HETATM    8  C19 UNL     1      24.733   0.990  52.258  1.00  0.00     0.050 A 
ENDROOT
BRANCH   7   9
HETATM    9  N1  UNL     1      23.076  -0.424  53.550  1.00  0.00    -0.288 N 
HETATM   10  C8  UNL     1      22.940  -1.197  54.672  1.00  0.00     0.239 A 
HETATM   11  N2  UNL     1      21.650  -1.442  54.932  1.00  0.00    -0.161 NA
HETATM   12  N3  UNL     1      20.934  -0.845  53.999  1.00  0.00    -0.227 N 
HETATM   13  C9  UNL     1      19.662  -0.636  53.625  1.00  0.00     0.121 A 
HETATM   14  C18 UNL     1      21.801  -0.238  53.173  1.00  0.00     0.144 A 
HETATM   15  C10 UNL     1      19.676   0.147  52.491  1.00  0.00     0.032 A 
HETATM   16  C11 UNL     1      21.011   0.375  52.231  1.00  0.00     0.018 A 
BRANCH  16  17
HETATM   17  C12 UNL     1      21.522   1.087  51.056  1.00  0.00     0.315 C 
BRANCH  17  18
HETATM   18  N4  UNL     1      22.120   2.394  51.407  1.00  0.00     0.092 N 
HETATM   19  C13 UNL     1      21.073   3.239  51.973  1.00  0.00     0.275 C 
HETATM   20  C14 UNL     1      20.612   4.357  51.114  1.00  0.00     0.065 C 
HETATM   21  C15 UNL     1      21.706   5.279  50.620  1.00  0.00     0.221 C 
HETATM   22  C16 UNL     1      22.968   4.479  50.516  1.00  0.00     0.065 C 
HETATM   23  C17 UNL     1      22.532   3.049  50.158  1.00  0.00     0.275 C 
BRANCH  21  24
HETATM   24  N5  UNL     1      21.860   6.455  51.483  1.00  0.00     0.083 N 
HETATM   25  H15 UNL     1      21.590   6.140  52.448  1.00  0.00     0.313 HD
HETATM   26  H16 UNL     1      22.882   6.694  51.550  1.00  0.00     0.313 HD
ENDBRANCH  21  24
ENDBRANCH  17  18
ENDBRANCH  16  17
ENDBRANCH   7   9
TORSDOF 4
ENDMDL
MODEL 5
REMARK VINA RESULT:      -8.2      2.051      5.468
REMARK  4 active torsions:
REMARK  status: ('A' for Active; 'I' for Inactive)
REMARK    1  A    between atoms: C7_7  and  N1_8 
REMARK    2  A    between atoms: C11_14  and  C12_15 
REMARK    3  A    between atoms: C12_15  and  N4_16 
REMARK    4  A    between atoms: C15_19  and  N5_20 
ROOT
HETATM    1  C1  UNL     1      29.107  -2.003  53.117  1.00  0.00     0.018 C 
HETATM    2  C2  UNL     1      28.158  -1.236  53.197  1.00  0.00    -0.078 C 
HETATM    3  C3  UNL     1      27.037  -0.345  53.283  1.00  0.00     0.019 A 
HETATM    4  C4  UNL     1      27.203   1.012  53.157  1.00  0.00     0.021 A 
HETATM    5  C5  UNL     1      26.124   1.855  53.243  1.00  0.00     0.004 A 
HETATM    6  C6  UNL     1      24.904   1.257  53.458  1.00  0.00     0.030 A 
HETATM    7  C7  UNL     1      24.620  -0.118  53.602  1.00  0.00     0.043 A 
HETATM    8  C19 UNL     1      25.777  -0.837  53.495  1.00  0.00     0.050 A 
ENDROOT
BRANCH   7   9
HETATM    9  N1  UNL     1      23.291  -0.459  53.804  1.00  0.00    -0.288 N 
HETATM   10  C8  UNL     1      22.898  -1.210  54.879  1.00  0.00     0.239 A 
HETATM   11  N2  UNL     1      21.569  -1.369  54.891  1.00  0.00    -0.161 NA
HETATM   12  N3  UNL     1      21.081  -0.737  53.842  1.00  0.00    -0.227 N 
HETATM   13  C9  UNL     1      19.917  -0.450  53.237  1.00  0.00     0.121 A 
HETATM   14  C18 UNL     1      22.124  -0.195  53.195  1.00  0.00     0.144 A 
HETATM   15  C10 UNL     1      20.194   0.319  52.127  1.00  0.00     0.032 A 
HETATM   16  C11 UNL     1      21.566   0.459  52.123  1.00  0.00     0.018 A 
BRANCH  16  17
HETATM   17  C12 UNL     1      22.333   1.124  51.067  1.00  0.00     0.315 C 
BRANCH  17  18
HETATM   18  N4  UNL     1      22.044   2.573  50.990  1.00  0.00     0.092 N 
HETATM   19  C13 UNL     1      23.162   3.228  50.318  1.00  0.00     0.275 C 
HETATM   20  C14 UNL     1      24.037   4.058  51.182  1.00  0.00     0.065 C 
HETATM   21  C15 UNL     1      23.320   5.121  51.986  1.00  0.00     0.221 C 
HETATM   22  C16 UNL     1      21.931   4.632  52.258  1.00  0.00     0.065 C 
HETATM   23  C17 UNL     1      22.035   3.103  52.361  1.00  0.00     0.275 C 
BRANCH  21  24
HETATM   24  N5  UNL     1      23.333   6.421  51.306  1.00  0.00     0.083 N 
HETATM   25  H15 UNL     1      22.418   6.878  51.546  1.00  0.00     0.313 HD
HETATM   26  H16 UNL     1      24.067   7.028  51.752  1.00  0.00     0.313 HD
ENDBRANCH  21  24
ENDBRANCH  17  18
ENDBRANCH  16  17
ENDBRANCH   7   9
TORSDOF 4
ENDMDL
MODEL 6
REMARK VINA RESULT:      -7.8      2.633      4.795
REMARK  4 active torsions:
REMARK  status: ('A' for Active; 'I' for Inactive)
REMARK    1  A    between atoms: C7_7  and  N1_8 
REMARK    2  A    between atoms: C11_14  and  C12_15 
REMARK    3  A    between atoms: C12_15  and  N4_16 
REMARK    4  A    between atoms: C15_19  and  N5_20 
ROOT
HETATM    1  C1  UNL     1      18.957   2.350  48.858  1.00  0.00     0.018 C 
HETATM    2  C2  UNL     1      18.949   1.621  49.840  1.00  0.00    -0.078 C 
HETATM    3  C3  UNL     1      18.951   0.760  50.987  1.00  0.00     0.019 A 
HETATM    4  C4  UNL     1      17.797   0.158  51.420  1.00  0.00     0.021 A 
HETATM    5  C5  UNL     1      17.810  -0.662  52.520  1.00  0.00     0.004 A 
HETATM    6  C6  UNL     1      19.029  -0.829  53.135  1.00  0.00     0.030 A 
HETATM    7  C7  UNL     1      20.271  -0.263  52.778  1.00  0.00     0.043 A 
HETATM    8  C19 UNL     1      20.113   0.526  51.673  1.00  0.00     0.050 A 
ENDROOT
BRANCH   7   9
HETATM    9  N1  UNL     1      21.358  -0.603  53.569  1.00  0.00    -0.288 N 
HETATM   10  C8  UNL     1      21.233  -1.448  54.638  1.00  0.00     0.239 A 
HETATM   11  N2  UNL     1      22.420  -1.667  55.217  1.00  0.00    -0.161 NA
HETATM   12  N3  UNL     1      23.325  -0.979  54.548  1.00  0.00    -0.227 N 
HETATM   13  C9  UNL     1      24.643  -0.728  54.519  1.00  0.00     0.121 A 
HETATM   14  C18 UNL     1      22.676  -0.341  53.561  1.00  0.00     0.144 A 
HETATM   15  C10 UNL     1      24.890   0.122  53.462  1.00  0.00     0.032 A 
HETATM   16  C11 UNL     1      23.656   0.347  52.889  1.00  0.00     0.018 A 
BRANCH  16  17
HETATM   17  C12 UNL     1      23.409   1.275  51.782  1.00  0.00     0.315 C 
BRANCH  17  18
HETATM   18  N4  UNL     1      22.882   2.577  52.247  1.00  0.00     0.092 N 
HETATM   19  C13 UNL     1      22.198   3.220  51.129  1.00  0.00     0.275 C 
HETATM   20  C14 UNL     1      22.891   4.390  50.536  1.00  0.00     0.065 C 
HETATM   21  C15 UNL     1      23.257   5.483  51.518  1.00  0.00     0.221 C 
HETATM   22  C16 UNL     1      23.479   4.843  52.854  1.00  0.00     0.065 C 
HETATM   23  C17 UNL     1      24.030   3.439  52.563  1.00  0.00     0.275 C 
BRANCH  21  24
HETATM   24  N5  UNL     1      22.240   6.538  51.564  1.00  0.00     0.083 N 
HETATM   25  H15 UNL     1      21.338   6.078  51.285  1.00  0.00     0.313 HD
HETATM   26  H16 UNL     1      22.099   6.828  52.566  1.00  0.00     0.313 HD
ENDBRANCH  21  24
ENDBRANCH  17  18
ENDBRANCH  16  17
ENDBRANCH   7   9
TORSDOF 4
ENDMDL
MODEL 7
REMARK VINA RESULT:      -7.6      2.447      5.383
REMARK  4 active torsions:
REMARK  status: ('A' for Active; 'I' for Inactive)
REMARK    1  A    between atoms: C7_7  and  N1_8 
REMARK    2  A    between atoms: C11_14  and  C12_15 
REMARK    3  A    between atoms: C12_15  and  N4_16 
REMARK    4  A    between atoms: C15_19  and  N5_20 
ROOT
HETATM    1  C1  UNL     1      27.009   0.363  52.395  1.00  0.00     0.018 C 
HETATM    2  C2  UNL     1      26.511   1.293  51.776  1.00  0.00    -0.078 C 
HETATM    3  C3  UNL     1      25.916   2.376  51.048  1.00  0.00     0.019 A 
HETATM    4  C4  UNL     1      26.626   3.059  50.092  1.00  0.00     0.021 A 
HETATM    5  C5  UNL     1      26.047   4.095  49.404  1.00  0.00     0.004 A 
HETATM    6  C6  UNL     1      24.744   4.388  49.733  1.00  0.00     0.030 A 
HETATM    7  C7  UNL     1      23.924   3.756  50.692  1.00  0.00     0.043 A 
HETATM    8  C19 UNL     1      24.622   2.749  51.298  1.00  0.00     0.050 A 
ENDROOT
BRANCH   7   9
HETATM    9  N1  UNL     1      22.633   4.244  50.823  1.00  0.00    -0.288 N 
HETATM   10  C8  UNL     1      22.349   5.574  50.670  1.00  0.00     0.239 A 
HETATM   11  N2  UNL     1      21.035   5.801  50.792  1.00  0.00    -0.161 NA
HETATM   12  N3  UNL     1      20.450   4.642  51.026  1.00  0.00    -0.227 N 
HETATM   13  C9  UNL     1      19.238   4.100  51.227  1.00  0.00     0.121 A 
HETATM   14  C18 UNL     1      21.419   3.714  51.044  1.00  0.00     0.144 A 
HETATM   15  C10 UNL     1      19.404   2.742  51.392  1.00  0.00     0.032 A 
HETATM   16  C11 UNL     1      20.761   2.531  51.277  1.00  0.00     0.018 A 
BRANCH  16  17
HETATM   17  C12 UNL     1      21.424   1.239  51.480  1.00  0.00     0.315 C 
BRANCH  17  18
HETATM   18  N4  UNL     1      21.789   1.011  52.896  1.00  0.00     0.092 N 
HETATM   19  C13 UNL     1      23.051   0.279  52.931  1.00  0.00     0.275 C 
HETATM   20  C14 UNL     1      22.961  -1.142  53.349  1.00  0.00     0.065 C 
HETATM   21  C15 UNL     1      22.277  -1.376  54.678  1.00  0.00     0.221 C 
HETATM   22  C16 UNL     1      21.280  -0.278  54.881  1.00  0.00     0.065 C 
HETATM   23  C17 UNL     1      20.786   0.108  53.478  1.00  0.00     0.275 C 
BRANCH  21  24
HETATM   24  N5  UNL     1      23.241  -1.467  55.780  1.00  0.00     0.083 N 
HETATM   25  H15 UNL     1      24.088  -1.943  55.380  1.00  0.00     0.313 HD
HETATM   26  H16 UNL     1      23.564  -0.497  56.026  1.00  0.00     0.313 HD
ENDBRANCH  21  24
ENDBRANCH  17  18
ENDBRANCH  16  17
ENDBRANCH   7   9
TORSDOF 4
ENDMDL
MODEL 8
REMARK VINA RESULT:      -7.3      2.339      5.991
REMARK  4 active torsions:
REMARK  status: ('A' for Active; 'I' for Inactive)
REMARK    1  A    between atoms: C7_7  and  N1_8 
REMARK    2  A    between atoms: C11_14  and  C12_15 
REMARK    3  A    between atoms: C12_15  and  N4_16 
REMARK    4  A    between atoms: C15_19  and  N5_20 
ROOT
HETATM    1  C1  UNL     1      27.674  -1.864  52.789  1.00  0.00     0.018 C 
HETATM    2  C2  UNL     1      26.774  -1.039  52.848  1.00  0.00    -0.078 C 
HETATM    3  C3  UNL     1      25.711  -0.078  52.908  1.00  0.00     0.019 A 
HETATM    4  C4  UNL     1      25.971   1.268  52.854  1.00  0.00     0.021 A 
HETATM    5  C5  UNL     1      24.946   2.178  52.914  1.00  0.00     0.004 A 
HETATM    6  C6  UNL     1      23.679   1.656  53.028  1.00  0.00     0.030 A 
HETATM    7  C7  UNL     1      23.297   0.298  53.092  1.00  0.00     0.043 A 
HETATM    8  C19 UNL     1      24.410  -0.493  53.021  1.00  0.00     0.050 A 
ENDROOT
BRANCH   7   9
HETATM    9  N1  UNL     1      21.940   0.040  53.200  1.00  0.00    -0.288 N 
HETATM   10  C8  UNL     1      21.380  -0.387  54.373  1.00  0.00     0.239 A 
HETATM   11  N2  UNL     1      20.054  -0.522  54.251  1.00  0.00    -0.161 NA
HETATM   12  N3  UNL     1      19.731  -0.193  53.015  1.00  0.00    -0.227 N 
HETATM   13  C9  UNL     1      18.667  -0.068  52.205  1.00  0.00     0.121 A 
HETATM   14  C18 UNL     1      20.872   0.141  52.391  1.00  0.00     0.144 A 
HETATM   15  C10 UNL     1      19.117   0.368  50.978  1.00  0.00     0.032 A 
HETATM   16  C11 UNL     1      20.484   0.486  51.120  1.00  0.00     0.018 A 
BRANCH  16  17
HETATM   17  C12 UNL     1      21.407   0.831  50.036  1.00  0.00     0.315 C 
BRANCH  17  18
HETATM   18  N4  UNL     1      21.382   2.276  49.714  1.00  0.00     0.092 N 
HETATM   19  C13 UNL     1      20.901   2.431  48.345  1.00  0.00     0.275 C 
HETATM   20  C14 UNL     1      21.919   2.839  47.346  1.00  0.00     0.065 C 
HETATM   21  C15 UNL     1      22.686   4.097  47.690  1.00  0.00     0.221 C 
HETATM   22  C16 UNL     1      22.745   4.204  49.183  1.00  0.00     0.065 C 
HETATM   23  C17 UNL     1      22.769   2.760  49.708  1.00  0.00     0.275 C 
BRANCH  21  24
HETATM   24  N5  UNL     1      22.093   5.286  47.068  1.00  0.00     0.083 N 
HETATM   25  H15 UNL     1      21.092   5.036  46.870  1.00  0.00     0.313 HD
HETATM   26  H16 UNL     1      22.046   6.054  47.784  1.00  0.00     0.313 HD
ENDBRANCH  21  24
ENDBRANCH  17  18
ENDBRANCH  16  17
ENDBRANCH   7   9
TORSDOF 4
ENDMDL
MODEL 9
REMARK VINA RESULT:      -7.3      2.371      4.173
REMARK  4 active torsions:
REMARK  status: ('A' for Active; 'I' for Inactive)
REMARK    1  A    between atoms: C7_7  and  N1_8 
REMARK    2  A    between atoms: C11_14  and  C12_15 
REMARK    3  A    between atoms: C12_15  and  N4_16 
REMARK    4  A    between atoms: C15_19  and  N5_20 
ROOT
HETATM    1  C1  UNL     1      20.166   3.057  47.329  1.00  0.00     0.018 C 
HETATM    2  C2  UNL     1      20.064   2.390  48.350  1.00  0.00    -0.078 C 
HETATM    3  C3  UNL     1      19.953   1.602  49.543  1.00  0.00     0.019 A 
HETATM    4  C4  UNL     1      18.743   1.097  49.946  1.00  0.00     0.021 A 
HETATM    5  C5  UNL     1      18.649   0.345  51.090  1.00  0.00     0.004 A 
HETATM    6  C6  UNL     1      19.822   0.143  51.779  1.00  0.00     0.030 A 
HETATM    7  C7  UNL     1      21.114   0.612  51.459  1.00  0.00     0.043 A 
HETATM    8  C19 UNL     1      21.062   1.340  50.303  1.00  0.00     0.050 A 
ENDROOT
BRANCH   7   9
HETATM    9  N1  UNL     1      22.136   0.256  52.325  1.00  0.00    -0.288 N 
HETATM   10  C8  UNL     1      21.961  -0.699  53.289  1.00  0.00     0.239 A 
HETATM   11  N2  UNL     1      23.095  -0.908  53.969  1.00  0.00    -0.161 NA
HETATM   12  N3  UNL     1      24.014  -0.104  53.469  1.00  0.00    -0.227 N 
HETATM   13  C9  UNL     1      25.309   0.224  53.606  1.00  0.00     0.121 A 
HETATM   14  C18 UNL     1      23.427   0.592  52.484  1.00  0.00     0.144 A 
HETATM   15  C10 UNL     1      25.603   1.190  52.668  1.00  0.00     0.032 A 
HETATM   16  C11 UNL     1      24.421   1.401  51.990  1.00  0.00     0.018 A 
BRANCH  16  17
HETATM   17  C12 UNL     1      24.224   2.421  50.956  1.00  0.00     0.315 C 
BRANCH  17  18
HETATM   18  N4  UNL     1      25.377   3.342  50.850  1.00  0.00     0.092 N 
HETATM   19  C13 UNL     1      24.872   4.711  50.866  1.00  0.00     0.275 C 
HETATM   20  C14 UNL     1      24.938   5.439  49.575  1.00  0.00     0.065 C 
HETATM   21  C15 UNL     1      26.307   5.481  48.933  1.00  0.00     0.221 C 
HETATM   22  C16 UNL     1      27.048   4.248  49.350  1.00  0.00     0.065 C 
HETATM   23  C17 UNL     1      25.982   3.155  49.524  1.00  0.00     0.275 C 
BRANCH  21  24
HETATM   24  N5  UNL     1      27.032   6.711  49.273  1.00  0.00     0.083 N 
HETATM   25  H15 UNL     1      27.337   7.126  48.358  1.00  0.00     0.313 HD
HETATM   26  H16 UNL     1      26.350   7.404  49.674  1.00  0.00     0.313 HD
ENDBRANCH  21  24
ENDBRANCH  17  18
ENDBRANCH  16  17
ENDBRANCH   7   9
TORSDOF 4
ENDMDL
