MODEL 1
REMARK VINA RESULT:      -7.6      0.000      0.000
REMARK  4 active torsions:
REMARK  status: ('A' for Active; 'I' for Inactive)
REMARK    1  A    between atoms: C2_2  and  C3_3 
REMARK    2  A    between atoms: C6_7  and  C7_8 
REMARK    3  A    between atoms: N2_20  and  O1_21 
REMARK    4  A    between atoms: O1_21  and  S1_22 
ROOT
HETATM    1  C3  UNL     1      22.152   2.776  51.608  1.00  0.00     0.166 C 
HETATM    2  C4  UNL     1      23.414   2.328  52.343  1.00  0.00    -0.014 C 
HETATM    3  C5  UNL     1      23.614   0.969  52.367  1.00  0.00     0.093 C 
HETATM    4  N1  UNL     1      24.955   0.503  51.988  1.00  0.00    -0.386 N 
HETATM    5  C6  UNL     1      26.198   1.169  51.588  1.00  0.00     0.148 C 
HETATM    6  C13 UNL     1      25.887   2.556  51.036  1.00  0.00    -0.027 C 
HETATM    7  C14 UNL     1      26.522   3.182  50.063  1.00  0.00    -0.021 C 
HETATM    8  C15 UNL     1      26.611   4.398  49.243  1.00  0.00     0.036 C 
HETATM    9  C16 UNL     1      24.729   3.367  51.577  1.00  0.00    -0.029 C 
HETATM   10  C17 UNL     1      24.254   3.477  52.867  1.00  0.00     0.020 C 
HETATM   11  C18 UNL     1      23.916   4.135  50.538  1.00  0.00     0.191 C 
HETATM   12  N2  UNL     1      22.515   3.814  50.673  1.00  0.00    -0.264 N 
HETATM   13  H6  UNL     1      24.916  -0.523  52.037  1.00  0.00     0.160 HD
ENDROOT
BRANCH   5  14
HETATM   14  C7  UNL     1      27.218   1.201  52.631  1.00  0.00    -0.031 A 
HETATM   15  C8  UNL     1      27.476   0.003  53.308  1.00  0.00     0.009 A 
HETATM   16  C9  UNL     1      28.417  -0.096  54.317  1.00  0.00     0.001 A 
HETATM   17  C10 UNL     1      29.127   1.032  54.665  1.00  0.00     0.000 A 
HETATM   18  C11 UNL     1      28.915   2.247  54.028  1.00  0.00     0.001 A 
HETATM   19  C12 UNL     1      27.966   2.264  53.041  1.00  0.00     0.009 A 
ENDBRANCH   5  14
BRANCH   1  20
HETATM   20  C2  UNL     1      21.081   3.237  52.491  1.00  0.00    -0.005 C 
HETATM   21  C1  UNL     1      19.862   2.772  52.284  1.00  0.00     0.009 C 
ENDBRANCH   1  20
BRANCH  12  22
HETATM   22  O1  UNL     1      21.815   3.849  49.547  1.00  0.00    -0.206 OA
BRANCH  22  23
HETATM   23  S1  UNL     1      22.481   2.691  48.458  1.00  0.00     0.015 SA
HETATM   24  C19 UNL     1      21.574   1.116  48.547  1.00  0.00     0.125 C 
ENDBRANCH  22  23
ENDBRANCH  12  22
TORSDOF 4
ENDMDL
MODEL 2
REMARK VINA RESULT:      -7.5      2.190      3.762
REMARK  4 active torsions:
REMARK  status: ('A' for Active; 'I' for Inactive)
REMARK    1  A    between atoms: C2_2  and  C3_3 
REMARK    2  A    between atoms: C6_7  and  C7_8 
REMARK    3  A    between atoms: N2_20  and  O1_21 
REMARK    4  A    between atoms: O1_21  and  S1_22 
ROOT
HETATM    1  C3  UNL     1      23.704   3.681  52.159  1.00  0.00     0.166 C 
HETATM    2  C4  UNL     1      24.887   2.726  52.314  1.00  0.00    -0.014 C 
HETATM    3  C5  UNL     1      25.722   3.011  53.367  1.00  0.00     0.093 C 
HETATM    4  N1  UNL     1      26.070   1.884  54.244  1.00  0.00    -0.386 N 
HETATM    5  C6  UNL     1      25.740   0.457  54.260  1.00  0.00     0.148 C 
HETATM    6  C13 UNL     1      24.445   0.216  53.490  1.00  0.00    -0.027 C 
HETATM    7  C14 UNL     1      23.518  -0.683  53.760  1.00  0.00    -0.021 C 
HETATM    8  C15 UNL     1      22.225  -1.263  53.373  1.00  0.00     0.036 C 
HETATM    9  C16 UNL     1      24.083   1.068  52.293  1.00  0.00    -0.029 C 
HETATM   10  C17 UNL     1      24.891   1.593  51.306  1.00  0.00     0.020 C 
HETATM   11  C18 UNL     1      22.614   1.465  52.182  1.00  0.00     0.191 C 
HETATM   12  N2  UNL     1      22.499   2.897  52.037  1.00  0.00    -0.264 N 
HETATM   13  H6  UNL     1      26.671   2.280  54.979  1.00  0.00     0.160 HD
ENDROOT
BRANCH   5  14
HETATM   14  C7  UNL     1      26.824  -0.410  53.811  1.00  0.00    -0.031 A 
HETATM   15  C8  UNL     1      28.118  -0.081  54.229  1.00  0.00     0.009 A 
HETATM   16  C9  UNL     1      29.230  -0.822  53.869  1.00  0.00     0.001 A 
HETATM   17  C10 UNL     1      29.049  -1.928  53.067  1.00  0.00     0.000 A 
HETATM   18  C11 UNL     1      27.789  -2.302  52.621  1.00  0.00     0.001 A 
HETATM   19  C12 UNL     1      26.740  -1.517  53.020  1.00  0.00     0.009 A 
ENDBRANCH   5  14
BRANCH   1  20
HETATM   20  C2  UNL     1      23.830   4.604  51.031  1.00  0.00    -0.005 C 
HETATM   21  C1  UNL     1      23.806   5.900  51.285  1.00  0.00     0.009 C 
ENDBRANCH   1  20
BRANCH  12  22
HETATM   22  O1  UNL     1      21.405   3.433  52.557  1.00  0.00    -0.206 OA
BRANCH  22  23
HETATM   23  S1  UNL     1      20.094   2.344  52.304  1.00  0.00     0.015 SA
HETATM   24  C19 UNL     1      18.676   3.196  51.546  1.00  0.00     0.125 C 
ENDBRANCH  22  23
ENDBRANCH  12  22
TORSDOF 4
ENDMDL
MODEL 3
REMARK VINA RESULT:      -7.3      2.686      5.368
REMARK  4 active torsions:
REMARK  status: ('A' for Active; 'I' for Inactive)
REMARK    1  A    between atoms: C2_2  and  C3_3 
REMARK    2  A    between atoms: C6_7  and  C7_8 
REMARK    3  A    between atoms: N2_20  and  O1_21 
REMARK    4  A    between atoms: O1_21  and  S1_22 
ROOT
HETATM    1  C3  UNL     1      25.495   0.522  53.376  1.00  0.00     0.166 C 
HETATM    2  C4  UNL     1      25.845   1.833  52.673  1.00  0.00    -0.014 C 
HETATM    3  C5  UNL     1      26.805   1.723  51.696  1.00  0.00     0.093 C 
HETATM    4  N1  UNL     1      26.494   2.352  50.405  1.00  0.00    -0.386 N 
HETATM    5  C6  UNL     1      25.360   3.121  49.886  1.00  0.00     0.148 C 
HETATM    6  C13 UNL     1      24.107   2.808  50.698  1.00  0.00    -0.027 C 
HETATM    7  C14 UNL     1      22.867   2.751  50.250  1.00  0.00    -0.021 C 
HETATM    8  C15 UNL     1      21.455   2.516  50.582  1.00  0.00     0.036 C 
HETATM    9  C16 UNL     1      24.197   2.487  52.174  1.00  0.00    -0.029 C 
HETATM   10  C17 UNL     1      25.022   3.016  53.144  1.00  0.00     0.020 C 
HETATM   11  C18 UNL     1      23.285   1.365  52.664  1.00  0.00     0.191 C 
HETATM   12  N2  UNL     1      24.059   0.375  53.374  1.00  0.00    -0.264 N 
HETATM   13  H6  UNL     1      27.298   2.152  49.798  1.00  0.00     0.160 HD
ENDROOT
BRANCH   5  14
HETATM   14  C7  UNL     1      25.611   4.555  49.782  1.00  0.00    -0.031 A 
HETATM   15  C8  UNL     1      26.649   4.960  48.936  1.00  0.00     0.009 A 
HETATM   16  C9  UNL     1      26.988   6.289  48.753  1.00  0.00     0.001 A 
HETATM   17  C10 UNL     1      26.269   7.248  49.433  1.00  0.00     0.000 A 
HETATM   18  C11 UNL     1      25.228   6.906  50.285  1.00  0.00     0.001 A 
HETATM   19  C12 UNL     1      24.956   5.570  50.413  1.00  0.00     0.009 A 
ENDBRANCH   5  14
BRANCH   1  20
HETATM   20  C2  UNL     1      26.016   0.420  54.739  1.00  0.00    -0.005 C 
HETATM   21  C1  UNL     1      27.303   0.162  54.893  1.00  0.00     0.009 C 
ENDBRANCH   1  20
BRANCH  12  22
HETATM   22  O1  UNL     1      23.606  -0.868  53.287  1.00  0.00    -0.206 OA
BRANCH  22  23
HETATM   23  S1  UNL     1      22.532  -1.146  54.606  1.00  0.00     0.015 SA
HETATM   24  C19 UNL     1      20.804  -1.206  54.037  1.00  0.00     0.125 C 
ENDBRANCH  22  23
ENDBRANCH  12  22
TORSDOF 4
ENDMDL
MODEL 4
REMARK VINA RESULT:      -7.1      2.938      6.244
REMARK  4 active torsions:
REMARK  status: ('A' for Active; 'I' for Inactive)
REMARK    1  A    between atoms: C2_2  and  C3_3 
REMARK    2  A    between atoms: C6_7  and  C7_8 
REMARK    3  A    between atoms: N2_20  and  O1_21 
REMARK    4  A    between atoms: O1_21  and  S1_22 
ROOT
HETATM    1  C3  UNL     1      26.980   0.530  53.472  1.00  0.00     0.166 C 
HETATM    2  C4  UNL     1      26.421   1.837  52.911  1.00  0.00    -0.014 C 
HETATM    3  C5  UNL     1      26.927   2.199  51.686  1.00  0.00     0.093 C 
HETATM    4  N1  UNL     1      25.943   2.582  50.664  1.00  0.00    -0.386 N 
HETATM    5  C6  UNL     1      24.482   2.694  50.638  1.00  0.00     0.148 C 
HETATM    6  C13 UNL     1      23.876   1.817  51.729  1.00  0.00    -0.027 C 
HETATM    7  C14 UNL     1      22.735   1.157  51.672  1.00  0.00    -0.021 C 
HETATM    8  C15 UNL     1      21.800   0.266  52.372  1.00  0.00     0.036 C 
HETATM    9  C16 UNL     1      24.599   1.596  53.040  1.00  0.00    -0.029 C 
HETATM   10  C17 UNL     1      25.359   2.472  53.788  1.00  0.00     0.020 C 
HETATM   11  C18 UNL     1      24.538   0.178  53.600  1.00  0.00     0.191 C 
HETATM   12  N2  UNL     1      25.871  -0.300  53.879  1.00  0.00    -0.264 N 
HETATM   13  H6  UNL     1      26.488   2.794  49.819  1.00  0.00     0.160 HD
ENDROOT
BRANCH   5  14
HETATM   14  C7  UNL     1      23.989   4.066  50.689  1.00  0.00    -0.031 A 
HETATM   15  C8  UNL     1      24.913   5.085  50.433  1.00  0.00     0.009 A 
HETATM   16  C9  UNL     1      24.571   6.426  50.454  1.00  0.00     0.001 A 
HETATM   17  C10 UNL     1      23.266   6.765  50.738  1.00  0.00     0.000 A 
HETATM   18  C11 UNL     1      22.305   5.797  50.999  1.00  0.00     0.001 A 
HETATM   19  C12 UNL     1      22.724   4.494  50.960  1.00  0.00     0.009 A 
ENDBRANCH   5  14
BRANCH   1  20
HETATM   20  C2  UNL     1      27.916   0.710  54.581  1.00  0.00    -0.005 C 
HETATM   21  C1  UNL     1      29.207   0.752  54.303  1.00  0.00     0.009 C 
ENDBRANCH   1  20
BRANCH  12  22
HETATM   22  O1  UNL     1      26.045  -1.607  53.739  1.00  0.00    -0.206 OA
BRANCH  22  23
HETATM   23  S1  UNL     1      27.127  -1.872  52.424  1.00  0.00     0.015 SA
HETATM   24  C19 UNL     1      28.631  -2.731  52.982  1.00  0.00     0.125 C 
ENDBRANCH  22  23
ENDBRANCH  12  22
TORSDOF 4
ENDMDL
MODEL 5
REMARK VINA RESULT:      -7.1      3.206      6.317
REMARK  4 active torsions:
REMARK  status: ('A' for Active; 'I' for Inactive)
REMARK    1  A    between atoms: C2_2  and  C3_3 
REMARK    2  A    between atoms: C6_7  and  C7_8 
REMARK    3  A    between atoms: N2_20  and  O1_21 
REMARK    4  A    between atoms: O1_21  and  S1_22 
ROOT
HETATM    1  C3  UNL     1      24.566   2.348  51.922  1.00  0.00     0.166 C 
HETATM    2  C4  UNL     1      23.779   3.603  51.547  1.00  0.00    -0.014 C 
HETATM    3  C5  UNL     1      23.546   4.468  52.589  1.00  0.00     0.093 C 
HETATM    4  N1  UNL     1      23.858   5.883  52.341  1.00  0.00    -0.386 N 
HETATM    5  C6  UNL     1      24.366   6.635  51.191  1.00  0.00     0.148 C 
HETATM    6  C13 UNL     1      25.124   5.700  50.254  1.00  0.00    -0.027 C 
HETATM    7  C14 UNL     1      26.187   5.994  49.530  1.00  0.00    -0.021 C 
HETATM    8  C15 UNL     1      27.187   5.509  48.569  1.00  0.00     0.036 C 
HETATM    9  C16 UNL     1      24.707   4.253  50.095  1.00  0.00    -0.029 C 
HETATM   10  C17 UNL     1      23.446   3.695  50.070  1.00  0.00     0.020 C 
HETATM   11  C18 UNL     1      25.846   3.241  50.007  1.00  0.00     0.191 C 
HETATM   12  N2  UNL     1      25.653   2.197  50.985  1.00  0.00    -0.264 N 
HETATM   13  H6  UNL     1      23.651   6.371  53.222  1.00  0.00     0.160 HD
ENDROOT
BRANCH   5  14
HETATM   14  C7  UNL     1      23.349   7.415  50.493  1.00  0.00    -0.031 A 
HETATM   15  C8  UNL     1      22.011   7.127  50.789  1.00  0.00     0.009 A 
HETATM   16  C9  UNL     1      20.955   7.794  50.194  1.00  0.00     0.001 A 
HETATM   17  C10 UNL     1      21.237   8.780  49.275  1.00  0.00     0.000 A 
HETATM   18  C11 UNL     1      22.544   9.109  48.942  1.00  0.00     0.001 A 
HETATM   19  C12 UNL     1      23.533   8.403  49.574  1.00  0.00     0.009 A 
ENDBRANCH   5  14
BRANCH   1  20
HETATM   20  C2  UNL     1      23.757   1.130  51.965  1.00  0.00    -0.005 C 
HETATM   21  C1  UNL     1      23.457   0.626  53.149  1.00  0.00     0.009 C 
ENDBRANCH   1  20
BRANCH  12  22
HETATM   22  O1  UNL     1      26.765   1.663  51.471  1.00  0.00    -0.206 OA
BRANCH  22  23
HETATM   23  S1  UNL     1      26.921   2.142  53.119  1.00  0.00     0.015 SA
HETATM   24  C19 UNL     1      27.233   0.703  54.188  1.00  0.00     0.125 C 
ENDBRANCH  22  23
ENDBRANCH  12  22
TORSDOF 4
ENDMDL
MODEL 6
REMARK VINA RESULT:      -7.0      2.278      4.157
REMARK  4 active torsions:
REMARK  status: ('A' for Active; 'I' for Inactive)
REMARK    1  A    between atoms: C2_2  and  C3_3 
REMARK    2  A    between atoms: C6_7  and  C7_8 
REMARK    3  A    between atoms: N2_20  and  O1_21 
REMARK    4  A    between atoms: O1_21  and  S1_22 
ROOT
HETATM    1  C3  UNL     1      23.748   5.708  49.196  1.00  0.00     0.166 C 
HETATM    2  C4  UNL     1      24.453   4.642  50.035  1.00  0.00    -0.014 C 
HETATM    3  C5  UNL     1      24.445   4.878  51.388  1.00  0.00     0.093 C 
HETATM    4  N1  UNL     1      24.034   3.753  52.241  1.00  0.00    -0.386 N 
HETATM    5  C6  UNL     1      23.627   2.368  51.987  1.00  0.00     0.148 C 
HETATM    6  C13 UNL     1      23.109   2.234  50.558  1.00  0.00    -0.027 C 
HETATM    7  C14 UNL     1      22.139   1.445  50.138  1.00  0.00    -0.021 C 
HETATM    8  C15 UNL     1      21.343   0.988  48.992  1.00  0.00     0.036 C 
HETATM    9  C16 UNL     1      23.686   3.076  49.440  1.00  0.00    -0.029 C 
HETATM   10  C17 UNL     1      24.986   3.480  49.219  1.00  0.00     0.020 C 
HETATM   11  C18 UNL     1      22.677   3.617  48.431  1.00  0.00     0.191 C 
HETATM   12  N2  UNL     1      22.829   5.047  48.301  1.00  0.00    -0.264 N 
HETATM   13  H6  UNL     1      24.062   4.110  53.204  1.00  0.00     0.160 HD
ENDROOT
BRANCH   5  14
HETATM   14  C7  UNL     1      24.653   1.379  52.301  1.00  0.00    -0.031 A 
HETATM   15  C8  UNL     1      24.299   0.354  53.186  1.00  0.00     0.009 A 
HETATM   16  C9  UNL     1      25.181  -0.642  53.566  1.00  0.00     0.001 A 
HETATM   17  C10 UNL     1      26.458  -0.620  53.047  1.00  0.00     0.000 A 
HETATM   18  C11 UNL     1      26.865   0.372  52.164  1.00  0.00     0.001 A 
HETATM   19  C12 UNL     1      25.934   1.322  51.839  1.00  0.00     0.009 A 
ENDBRANCH   5  14
BRANCH   1  20
HETATM   20  C2  UNL     1      24.658   6.572  48.446  1.00  0.00    -0.005 C 
HETATM   21  C1  UNL     1      24.517   7.880  48.571  1.00  0.00     0.009 C 
ENDBRANCH   1  20
BRANCH  12  22
HETATM   22  O1  UNL     1      21.716   5.711  48.021  1.00  0.00    -0.206 OA
BRANCH  22  23
HETATM   23  S1  UNL     1      20.936   6.112  49.505  1.00  0.00     0.015 SA
HETATM   24  C19 UNL     1      20.779   7.916  49.692  1.00  0.00     0.125 C 
ENDBRANCH  22  23
ENDBRANCH  12  22
TORSDOF 4
ENDMDL
MODEL 7
REMARK VINA RESULT:      -7.0      2.742      6.930
REMARK  4 active torsions:
REMARK  status: ('A' for Active; 'I' for Inactive)
REMARK    1  A    between atoms: C2_2  and  C3_3 
REMARK    2  A    between atoms: C6_7  and  C7_8 
REMARK    3  A    between atoms: N2_20  and  O1_21 
REMARK    4  A    between atoms: O1_21  and  S1_22 
ROOT
HETATM    1  C3  UNL     1      24.693   2.447  50.818  1.00  0.00     0.166 C 
HETATM    2  C4  UNL     1      23.166   2.436  50.759  1.00  0.00    -0.014 C 
HETATM    3  C5  UNL     1      22.640   1.957  49.584  1.00  0.00     0.093 C 
HETATM    4  N1  UNL     1      21.579   0.947  49.711  1.00  0.00    -0.386 N 
HETATM    5  C6  UNL     1      20.901   0.308  50.842  1.00  0.00     0.148 C 
HETATM    6  C13 UNL     1      21.782   0.386  52.085  1.00  0.00    -0.027 C 
HETATM    7  C14 UNL     1      21.879  -0.515  53.044  1.00  0.00    -0.021 C 
HETATM    8  C15 UNL     1      22.511  -0.883  54.319  1.00  0.00     0.036 C 
HETATM    9  C16 UNL     1      22.699   1.567  52.315  1.00  0.00    -0.029 C 
HETATM   10  C17 UNL     1      22.503   2.905  52.040  1.00  0.00     0.020 C 
HETATM   11  C18 UNL     1      24.077   1.236  52.881  1.00  0.00     0.191 C 
HETATM   12  N2  UNL     1      25.105   1.816  52.049  1.00  0.00    -0.264 N 
HETATM   13  H6  UNL     1      21.326   0.688  48.749  1.00  0.00     0.160 HD
ENDROOT
BRANCH   5  14
HETATM   14  C7  UNL     1      19.551   0.807  51.085  1.00  0.00    -0.031 A 
HETATM   15  C8  UNL     1      18.565  -0.142  51.379  1.00  0.00     0.009 A 
HETATM   16  C9  UNL     1      17.248   0.202  51.626  1.00  0.00     0.001 A 
HETATM   17  C10 UNL     1      16.900   1.534  51.583  1.00  0.00     0.000 A 
HETATM   18  C11 UNL     1      17.835   2.520  51.297  1.00  0.00     0.001 A 
HETATM   19  C12 UNL     1      19.117   2.098  51.063  1.00  0.00     0.009 A 
ENDBRANCH   5  14
BRANCH   1  20
HETATM   20  C2  UNL     1      25.282   3.782  50.707  1.00  0.00    -0.005 C 
HETATM   21  C1  UNL     1      26.167   3.992  49.749  1.00  0.00     0.009 C 
ENDBRANCH   1  20
BRANCH  12  22
HETATM   22  O1  UNL     1      26.242   1.138  51.998  1.00  0.00    -0.206 OA
BRANCH  22  23
HETATM   23  S1  UNL     1      26.172  -0.129  53.165  1.00  0.00     0.015 SA
HETATM   24  C19 UNL     1      27.252   0.232  54.584  1.00  0.00     0.125 C 
ENDBRANCH  22  23
ENDBRANCH  12  22
TORSDOF 4
ENDMDL
MODEL 8
REMARK VINA RESULT:      -7.0      2.960      4.731
REMARK  4 active torsions:
REMARK  status: ('A' for Active; 'I' for Inactive)
REMARK    1  A    between atoms: C2_2  and  C3_3 
REMARK    2  A    between atoms: C6_7  and  C7_8 
REMARK    3  A    between atoms: N2_20  and  O1_21 
REMARK    4  A    between atoms: O1_21  and  S1_22 
ROOT
HETATM    1  C3  UNL     1      19.767   2.324  50.506  1.00  0.00     0.166 C 
HETATM    2  C4  UNL     1      21.252   2.021  50.708  1.00  0.00    -0.014 C 
HETATM    3  C5  UNL     1      21.985   3.059  51.230  1.00  0.00     0.093 C 
HETATM    4  N1  UNL     1      22.857   2.730  52.366  1.00  0.00    -0.386 N 
HETATM    5  C6  UNL     1      23.164   1.501  53.103  1.00  0.00     0.148 C 
HETATM    6  C13 UNL     1      22.025   0.500  52.936  1.00  0.00    -0.027 C 
HETATM    7  C14 UNL     1      21.594  -0.367  53.833  1.00  0.00    -0.021 C 
HETATM    8  C15 UNL     1      20.636  -1.437  54.140  1.00  0.00     0.036 C 
HETATM    9  C16 UNL     1      21.224   0.440  51.653  1.00  0.00    -0.029 C 
HETATM   10  C17 UNL     1      21.637   0.599  50.346  1.00  0.00     0.020 C 
HETATM   11  C18 UNL     1      19.721   0.232  51.819  1.00  0.00     0.191 C 
HETATM   12  N2  UNL     1      19.000   1.257  51.101  1.00  0.00    -0.264 N 
HETATM   13  H6  UNL     1      23.302   3.616  52.639  1.00  0.00     0.160 HD
ENDROOT
BRANCH   5  14
HETATM   14  C7  UNL     1      24.464   0.922  52.781  1.00  0.00    -0.031 A 
HETATM   15  C8  UNL     1      24.809  -0.268  53.431  1.00  0.00     0.009 A 
HETATM   16  C9  UNL     1      26.014  -0.915  53.215  1.00  0.00     0.001 A 
HETATM   17  C10 UNL     1      26.904  -0.360  52.321  1.00  0.00     0.000 A 
HETATM   18  C11 UNL     1      26.615   0.819  51.647  1.00  0.00     0.001 A 
HETATM   19  C12 UNL     1      25.404   1.398  51.917  1.00  0.00     0.009 A 
ENDBRANCH   5  14
BRANCH   1  20
HETATM   20  C2  UNL     1      19.383   2.510  49.107  1.00  0.00    -0.005 C 
HETATM   21  C1  UNL     1      19.355   3.742  48.630  1.00  0.00     0.009 C 
ENDBRANCH   1  20
BRANCH  12  22
HETATM   22  O1  UNL     1      17.837   1.606  51.631  1.00  0.00    -0.206 OA
BRANCH  22  23
HETATM   23  S1  UNL     1      16.669   0.410  51.213  1.00  0.00     0.015 SA
HETATM   24  C19 UNL     1      16.098  -0.487  52.689  1.00  0.00     0.125 C 
ENDBRANCH  22  23
ENDBRANCH  12  22
TORSDOF 4
ENDMDL
MODEL 9
REMARK VINA RESULT:      -6.7      2.999      6.442
REMARK  4 active torsions:
REMARK  status: ('A' for Active; 'I' for Inactive)
REMARK    1  A    between atoms: C2_2  and  C3_3 
REMARK    2  A    between atoms: C6_7  and  C7_8 
REMARK    3  A    between atoms: N2_20  and  O1_21 
REMARK    4  A    between atoms: O1_21  and  S1_22 
ROOT
HETATM    1  C3  UNL     1      23.186   2.452  52.512  1.00  0.00     0.166 C 
HETATM    2  C4  UNL     1      22.662   2.891  51.145  1.00  0.00    -0.014 C 
HETATM    3  C5  UNL     1      21.841   3.993  51.171  1.00  0.00     0.093 C 
HETATM    4  N1  UNL     1      22.152   5.057  50.206  1.00  0.00    -0.386 N 
HETATM    5  C6  UNL     1      23.162   5.229  49.159  1.00  0.00     0.148 C 
HETATM    6  C13 UNL     1      24.366   4.339  49.450  1.00  0.00    -0.027 C 
HETATM    7  C14 UNL     1      25.632   4.609  49.194  1.00  0.00    -0.021 C 
HETATM    8  C15 UNL     1      27.023   4.143  49.268  1.00  0.00     0.036 C 
HETATM    9  C16 UNL     1      24.195   2.997  50.130  1.00  0.00    -0.029 C 
HETATM   10  C17 UNL     1      23.193   2.060  49.994  1.00  0.00     0.020 C 
HETATM   11  C18 UNL     1      25.253   2.643  51.172  1.00  0.00     0.191 C 
HETATM   12  N2  UNL     1      24.617   2.286  52.418  1.00  0.00    -0.264 N 
HETATM   13  H6  UNL     1      21.464   5.800  50.382  1.00  0.00     0.160 HD
ENDROOT
BRANCH   5  14
HETATM   14  C7  UNL     1      22.653   5.049  47.803  1.00  0.00    -0.031 A 
HETATM   15  C8  UNL     1      22.713   6.155  46.948  1.00  0.00     0.009 A 
HETATM   16  C9  UNL     1      22.260   6.114  45.641  1.00  0.00     0.001 A 
HETATM   17  C10 UNL     1      21.731   4.933  45.168  1.00  0.00     0.000 A 
HETATM   18  C11 UNL     1      21.646   3.803  45.970  1.00  0.00     0.001 A 
HETATM   19  C12 UNL     1      22.114   3.925  47.251  1.00  0.00     0.009 A 
ENDBRANCH   5  14
BRANCH   1  20
HETATM   20  C2  UNL     1      22.563   1.233  53.025  1.00  0.00    -0.005 C 
HETATM   21  C1  UNL     1      23.257   0.110  52.968  1.00  0.00     0.009 C 
ENDBRANCH   1  20
BRANCH  12  22
HETATM   22  O1  UNL     1      25.307   2.579  53.511  1.00  0.00    -0.206 OA
BRANCH  22  23
HETATM   23  S1  UNL     1      26.638   1.491  53.621  1.00  0.00     0.015 SA
HETATM   24  C19 UNL     1      28.220   2.382  53.499  1.00  0.00     0.125 C 
ENDBRANCH  22  23
ENDBRANCH  12  22
TORSDOF 4
ENDMDL
