MODEL 1
REMARK VINA RESULT:      -9.1      0.000      0.000
REMARK  5 active torsions:
REMARK  status: ('A' for Active; 'I' for Inactive)
REMARK    1  A    between atoms: C3_4  and  C4_5 
REMARK    2  A    between atoms: C7_8  and  O1_9 
REMARK    3  A    between atoms: C9_11  and  C10_12 
REMARK    4  A    between atoms: C10_12  and  C11_13 
REMARK    5  A    between atoms: C16_19  and  O2_20 
ROOT
HETATM    1  C1  UNL     1      22.018   2.418  47.848  1.00  0.00     0.063 C 
HETATM    2  C2  UNL     1      22.832   2.673  48.856  1.00  0.00     0.095 A 
HETATM    3  N1  UNL     1      23.799   3.685  48.631  1.00  0.00    -0.363 N 
HETATM    4  C3  UNL     1      24.735   4.031  49.674  1.00  0.00     0.165 A 
HETATM    5  C7  UNL     1      24.455   3.189  50.864  1.00  0.00     0.097 A 
HETATM    6  C8  UNL     1      23.586   2.240  51.148  1.00  0.00     0.074 A 
HETATM    7  C9  UNL     1      23.699   1.685  52.493  1.00  0.00    -0.021 A 
HETATM    8  C17 UNL     1      22.852   0.765  52.934  1.00  0.00     0.051 A 
HETATM    9  C18 UNL     1      21.697   0.064  52.382  1.00  0.00     0.114 A 
HETATM   10  F1  UNL     1      21.020  -0.803  53.171  1.00  0.00    -0.206 F 
HETATM   11  C19 UNL     1      21.287   0.247  51.137  1.00  0.00     0.035 A 
HETATM   12  C20 UNL     1      21.616   1.013  49.923  1.00  0.00     0.161 A 
HETATM   13  N2  UNL     1      22.703   1.950  50.075  1.00  0.00    -0.328 N 
HETATM   14  H3  UNL     1      23.892   4.221  47.734  1.00  0.00     0.162 HD
ENDROOT
BRANCH   7  15
HETATM   15  C10 UNL     1      24.791   2.170  53.326  1.00  0.00     0.082 C 
BRANCH  15  16
HETATM   16  C11 UNL     1      25.829   1.056  53.247  1.00  0.00    -0.019 A 
HETATM   17  C12 UNL     1      25.550  -0.243  52.900  1.00  0.00     0.010 A 
HETATM   18  C13 UNL     1      26.417  -1.285  52.803  1.00  0.00     0.002 A 
HETATM   19  C14 UNL     1      27.724  -0.963  53.097  1.00  0.00     0.026 A 
HETATM   20  C15 UNL     1      28.154   0.294  53.461  1.00  0.00     0.067 A 
HETATM   21 CL1  UNL     1      29.824   0.670  53.826  1.00  0.00    -0.081 Cl
HETATM   22  C16 UNL     1      27.191   1.273  53.526  1.00  0.00     0.093 A 
BRANCH  22  23
HETATM   23  O2  UNL     1      27.587   2.559  53.890  1.00  0.00    -0.358 OA
HETATM   24  H16 UNL     1      28.106   2.689  54.768  1.00  0.00     0.217 HD
ENDBRANCH  22  23
ENDBRANCH  15  16
ENDBRANCH   7  15
BRANCH   5  25
HETATM   25  O1  UNL     1      25.379   3.582  51.815  1.00  0.00    -0.360 OA
HETATM   26  H10 UNL     1      25.552   3.119  52.696  1.00  0.00     0.217 HD
ENDBRANCH   5  25
BRANCH   4  27
HETATM   27  C4  UNL     1      24.688   5.475  50.038  1.00  0.00     0.000 C 
HETATM   28  C5  UNL     1      25.588   6.372  49.652  1.00  0.00    -0.033 C 
HETATM   29  C6  UNL     1      26.703   5.877  48.802  1.00  0.00     0.036 C 
ENDBRANCH   4  27
TORSDOF 5
ENDMDL
MODEL 2
REMARK VINA RESULT:      -9.0      2.491      3.217
REMARK  5 active torsions:
REMARK  status: ('A' for Active; 'I' for Inactive)
REMARK    1  A    between atoms: C3_4  and  C4_5 
REMARK    2  A    between atoms: C7_8  and  O1_9 
REMARK    3  A    between atoms: C9_11  and  C10_12 
REMARK    4  A    between atoms: C10_12  and  C11_13 
REMARK    5  A    between atoms: C16_19  and  O2_20 
ROOT
HETATM    1  C1  UNL     1      18.857  -0.154  51.959  1.00  0.00     0.063 C 
HETATM    2  C2  UNL     1      20.027   0.359  51.623  1.00  0.00     0.095 A 
HETATM    3  N1  UNL     1      20.041   1.156  50.451  1.00  0.00    -0.363 N 
HETATM    4  C3  UNL     1      21.275   1.757  50.004  1.00  0.00     0.165 A 
HETATM    5  C7  UNL     1      22.355   1.389  50.952  1.00  0.00     0.097 A 
HETATM    6  C8  UNL     1      22.421   0.663  52.050  1.00  0.00     0.074 A 
HETATM    7  C9  UNL     1      23.746   0.585  52.658  1.00  0.00    -0.021 A 
HETATM    8  C17 UNL     1      23.946  -0.062  53.798  1.00  0.00     0.051 A 
HETATM    9  C18 UNL     1      23.110  -0.814  54.729  1.00  0.00     0.114 A 
HETATM   10  F1  UNL     1      23.670  -1.308  55.857  1.00  0.00    -0.206 F 
HETATM   11  C19 UNL     1      21.823  -1.027  54.508  1.00  0.00     0.035 A 
HETATM   12  C20 UNL     1      20.765  -0.743  53.523  1.00  0.00     0.161 A 
HETATM   13  N2  UNL     1      21.173   0.100  52.426  1.00  0.00    -0.328 N 
HETATM   14  H3  UNL     1      19.195   1.350  49.861  1.00  0.00     0.162 HD
ENDROOT
BRANCH   7  15
HETATM   15  C10 UNL     1      24.843   1.234  51.953  1.00  0.00     0.082 C 
BRANCH  15  16
HETATM   16  C11 UNL     1      26.085   0.536  52.497  1.00  0.00    -0.019 A 
HETATM   17  C12 UNL     1      26.356  -0.801  52.343  1.00  0.00     0.010 A 
HETATM   18  C13 UNL     1      27.437  -1.490  52.792  1.00  0.00     0.002 A 
HETATM   19  C14 UNL     1      28.351  -0.724  53.481  1.00  0.00     0.026 A 
HETATM   20  C15 UNL     1      28.215   0.627  53.716  1.00  0.00     0.067 A 
HETATM   21 CL1  UNL     1      29.397   1.574  54.595  1.00  0.00    -0.081 Cl
HETATM   22  C16 UNL     1      27.082   1.222  53.215  1.00  0.00     0.093 A 
BRANCH  22  23
HETATM   23  O2  UNL     1      26.909   2.589  53.431  1.00  0.00    -0.358 OA
HETATM   24  H16 UNL     1      26.440   3.150  52.708  1.00  0.00     0.217 HD
ENDBRANCH  22  23
ENDBRANCH  15  16
ENDBRANCH   7  15
BRANCH   5  25
HETATM   25  O1  UNL     1      23.494   2.004  50.466  1.00  0.00    -0.360 OA
HETATM   26  H10 UNL     1      24.418   1.598  50.441  1.00  0.00     0.217 HD
ENDBRANCH   5  25
BRANCH   4  27
HETATM   27  C4  UNL     1      21.183   3.238  49.872  1.00  0.00     0.000 C 
HETATM   28  C5  UNL     1      21.380   3.900  48.737  1.00  0.00    -0.033 C 
HETATM   29  C6  UNL     1      21.712   3.088  47.538  1.00  0.00     0.036 C 
ENDBRANCH   4  27
TORSDOF 5
ENDMDL
MODEL 3
REMARK VINA RESULT:      -8.9      3.108      5.872
REMARK  5 active torsions:
REMARK  status: ('A' for Active; 'I' for Inactive)
REMARK    1  A    between atoms: C3_4  and  C4_5 
REMARK    2  A    between atoms: C7_8  and  O1_9 
REMARK    3  A    between atoms: C9_11  and  C10_12 
REMARK    4  A    between atoms: C10_12  and  C11_13 
REMARK    5  A    between atoms: C16_19  and  O2_20 
ROOT
HETATM    1  C1  UNL     1      21.967  -1.471  54.159  1.00  0.00     0.063 C 
HETATM    2  C2  UNL     1      22.830  -0.532  53.816  1.00  0.00     0.095 A 
HETATM    3  N1  UNL     1      24.200  -0.868  53.954  1.00  0.00    -0.363 N 
HETATM    4  C3  UNL     1      25.217   0.096  53.607  1.00  0.00     0.165 A 
HETATM    5  C7  UNL     1      24.555   1.335  53.131  1.00  0.00     0.097 A 
HETATM    6  C8  UNL     1      23.304   1.721  52.975  1.00  0.00     0.074 A 
HETATM    7  C9  UNL     1      23.137   3.076  52.460  1.00  0.00    -0.021 A 
HETATM    8  C17 UNL     1      21.936   3.573  52.199  1.00  0.00     0.051 A 
HETATM    9  C18 UNL     1      20.565   3.085  52.297  1.00  0.00     0.114 A 
HETATM   10  F1  UNL     1      19.555   3.883  51.875  1.00  0.00    -0.206 F 
HETATM   11  C19 UNL     1      20.272   1.889  52.781  1.00  0.00     0.035 A 
HETATM   12  C20 UNL     1      20.919   0.689  53.341  1.00  0.00     0.161 A 
HETATM   13  N2  UNL     1      22.361   0.725  53.340  1.00  0.00    -0.328 N 
HETATM   14  H3  UNL     1      24.547  -1.797  54.302  1.00  0.00     0.162 HD
ENDROOT
BRANCH   7  15
HETATM   15  C10 UNL     1      24.344   3.868  52.261  1.00  0.00     0.082 C 
BRANCH  15  16
HETATM   16  C11 UNL     1      24.069   4.626  50.966  1.00  0.00    -0.019 A 
HETATM   17  C12 UNL     1      23.788   4.031  49.762  1.00  0.00     0.010 A 
HETATM   18  C13 UNL     1      23.529   4.635  48.573  1.00  0.00     0.002 A 
HETATM   19  C14 UNL     1      23.562   6.012  48.619  1.00  0.00     0.026 A 
HETATM   20  C15 UNL     1      23.830   6.748  49.752  1.00  0.00     0.067 A 
HETATM   21 CL1  UNL     1      23.863   8.498  49.777  1.00  0.00    -0.081 Cl
HETATM   22  C16 UNL     1      24.077   6.032  50.899  1.00  0.00     0.093 A 
BRANCH  22  23
HETATM   23  O2  UNL     1      24.352   6.740  52.068  1.00  0.00    -0.358 OA
HETATM   24  H16 UNL     1      25.149   7.390  52.080  1.00  0.00     0.217 HD
ENDBRANCH  22  23
ENDBRANCH  15  16
ENDBRANCH   7  15
BRANCH   5  25
HETATM   25  O1  UNL     1      25.585   2.201  52.811  1.00  0.00    -0.360 OA
HETATM   26  H10 UNL     1      26.248   2.595  53.464  1.00  0.00     0.217 HD
ENDBRANCH   5  25
BRANCH   4  27
HETATM   27  C4  UNL     1      26.169  -0.411  52.580  1.00  0.00     0.000 C 
HETATM   28  C5  UNL     1      27.477  -0.545  52.775  1.00  0.00    -0.033 C 
HETATM   29  C6  UNL     1      27.996  -0.158  54.112  1.00  0.00     0.036 C 
ENDBRANCH   4  27
TORSDOF 5
ENDMDL
MODEL 4
REMARK VINA RESULT:      -8.5      3.170      6.058
REMARK  5 active torsions:
REMARK  status: ('A' for Active; 'I' for Inactive)
REMARK    1  A    between atoms: C3_4  and  C4_5 
REMARK    2  A    between atoms: C7_8  and  O1_9 
REMARK    3  A    between atoms: C9_11  and  C10_12 
REMARK    4  A    between atoms: C10_12  and  C11_13 
REMARK    5  A    between atoms: C16_19  and  O2_20 
ROOT
HETATM    1  C1  UNL     1      23.539  -1.638  55.738  1.00  0.00     0.063 C 
HETATM    2  C2  UNL     1      24.105  -0.911  54.792  1.00  0.00     0.095 A 
HETATM    3  N1  UNL     1      25.516  -0.793  54.862  1.00  0.00    -0.363 N 
HETATM    4  C3  UNL     1      26.224  -0.016  53.872  1.00  0.00     0.165 A 
HETATM    5  C7  UNL     1      25.241   0.532  52.906  1.00  0.00     0.097 A 
HETATM    6  C8  UNL     1      23.931   0.468  52.774  1.00  0.00     0.074 A 
HETATM    7  C9  UNL     1      23.391   1.193  51.627  1.00  0.00    -0.021 A 
HETATM    8  C17 UNL     1      22.098   1.166  51.339  1.00  0.00     0.051 A 
HETATM    9  C18 UNL     1      20.915   0.539  51.920  1.00  0.00     0.114 A 
HETATM   10  F1  UNL     1      19.722   0.696  51.302  1.00  0.00    -0.206 F 
HETATM   11  C19 UNL     1      20.970  -0.181  53.030  1.00  0.00     0.035 A 
HETATM   12  C20 UNL     1      21.927  -0.652  54.045  1.00  0.00     0.161 A 
HETATM   13  N2  UNL     1      23.304  -0.307  53.783  1.00  0.00    -0.328 N 
HETATM   14  H3  UNL     1      26.109  -1.242  55.604  1.00  0.00     0.162 HD
ENDROOT
BRANCH   7  15
HETATM   15  C10 UNL     1      24.331   1.963  50.822  1.00  0.00     0.082 C 
BRANCH  15  16
HETATM   16  C11 UNL     1      23.785   3.385  50.890  1.00  0.00    -0.019 A 
HETATM   17  C12 UNL     1      23.765   4.157  52.026  1.00  0.00     0.010 A 
HETATM   18  C13 UNL     1      23.302   5.426  52.164  1.00  0.00     0.002 A 
HETATM   19  C14 UNL     1      22.798   5.974  51.004  1.00  0.00     0.026 A 
HETATM   20  C15 UNL     1      22.750   5.323  49.791  1.00  0.00     0.067 A 
HETATM   21 CL1  UNL     1      22.105   6.049  48.335  1.00  0.00    -0.081 Cl
HETATM   22  C16 UNL     1      23.247   4.042  49.767  1.00  0.00     0.093 A 
BRANCH  22  23
HETATM   23  O2  UNL     1      23.217   3.349  48.558  1.00  0.00    -0.358 OA
HETATM   24  H16 UNL     1      24.045   2.809  48.274  1.00  0.00     0.217 HD
ENDBRANCH  22  23
ENDBRANCH  15  16
ENDBRANCH   7  15
BRANCH   5  25
HETATM   25  O1  UNL     1      25.989   1.251  51.991  1.00  0.00    -0.360 OA
HETATM   26  H10 UNL     1      26.945   1.057  51.729  1.00  0.00     0.217 HD
ENDBRANCH   5  25
BRANCH   4  27
HETATM   27  C4  UNL     1      27.270  -0.800  53.160  1.00  0.00     0.000 C 
HETATM   28  C5  UNL     1      28.574  -0.696  53.397  1.00  0.00    -0.033 C 
HETATM   29  C6  UNL     1      28.986   0.273  54.445  1.00  0.00     0.036 C 
ENDBRANCH   4  27
TORSDOF 5
ENDMDL
MODEL 5
REMARK VINA RESULT:      -8.3      3.653      6.151
REMARK  5 active torsions:
REMARK  status: ('A' for Active; 'I' for Inactive)
REMARK    1  A    between atoms: C3_4  and  C4_5 
REMARK    2  A    between atoms: C7_8  and  O1_9 
REMARK    3  A    between atoms: C9_11  and  C10_12 
REMARK    4  A    between atoms: C10_12  and  C11_13 
REMARK    5  A    between atoms: C16_19  and  O2_20 
ROOT
HETATM    1  C1  UNL     1      26.724   3.714  49.958  1.00  0.00     0.063 C 
HETATM    2  C2  UNL     1      26.051   2.850  50.696  1.00  0.00     0.095 A 
HETATM    3  N1  UNL     1      26.759   1.688  51.092  1.00  0.00    -0.363 N 
HETATM    4  C3  UNL     1      26.105   0.685  51.898  1.00  0.00     0.165 A 
HETATM    5  C7  UNL     1      24.715   1.127  52.171  1.00  0.00     0.097 A 
HETATM    6  C8  UNL     1      23.992   2.179  51.844  1.00  0.00     0.074 A 
HETATM    7  C9  UNL     1      22.627   2.173  52.361  1.00  0.00    -0.021 A 
HETATM    8  C17 UNL     1      21.807   3.195  52.159  1.00  0.00     0.051 A 
HETATM    9  C18 UNL     1      21.897   4.483  51.478  1.00  0.00     0.114 A 
HETATM   10  F1  UNL     1      20.837   5.323  51.525  1.00  0.00    -0.206 F 
HETATM   11  C19 UNL     1      22.981   4.859  50.818  1.00  0.00     0.035 A 
HETATM   12  C20 UNL     1      24.331   4.387  50.465  1.00  0.00     0.161 A 
HETATM   13  N2  UNL     1      24.698   3.119  51.048  1.00  0.00    -0.328 N 
HETATM   14  H3  UNL     1      27.758   1.492  50.836  1.00  0.00     0.162 HD
ENDROOT
BRANCH   7  15
HETATM   15  C10 UNL     1      22.196   0.991  53.095  1.00  0.00     0.082 C 
BRANCH  15  16
HETATM   16  C11 UNL     1      20.870   0.622  52.439  1.00  0.00    -0.019 A 
HETATM   17  C12 UNL     1      20.520   0.951  51.154  1.00  0.00     0.010 A 
HETATM   18  C13 UNL     1      19.365   0.657  50.501  1.00  0.00     0.002 A 
HETATM   19  C14 UNL     1      18.458  -0.059  51.252  1.00  0.00     0.026 A 
HETATM   20  C15 UNL     1      18.668  -0.460  52.553  1.00  0.00     0.067 A 
HETATM   21 CL1  UNL     1      17.494  -1.371  53.479  1.00  0.00    -0.081 Cl
HETATM   22  C16 UNL     1      19.872  -0.107  53.114  1.00  0.00     0.093 A 
BRANCH  22  23
HETATM   23  O2  UNL     1      20.122  -0.495  54.429  1.00  0.00    -0.358 OA
HETATM   24  H16 UNL     1      19.327  -0.707  55.044  1.00  0.00     0.217 HD
ENDBRANCH  22  23
ENDBRANCH  15  16
ENDBRANCH   7  15
BRANCH   5  25
HETATM   25  O1  UNL     1      24.160   0.127  52.950  1.00  0.00    -0.360 OA
HETATM   26  H10 UNL     1      23.834  -0.768  52.615  1.00  0.00     0.217 HD
ENDBRANCH   5  25
BRANCH   4  27
HETATM   27  C4  UNL     1      26.822   0.410  53.174  1.00  0.00     0.000 C 
HETATM   28  C5  UNL     1      27.315  -0.776  53.513  1.00  0.00    -0.033 C 
HETATM   29  C6  UNL     1      27.125  -1.882  52.538  1.00  0.00     0.036 C 
ENDBRANCH   4  27
TORSDOF 5
ENDMDL
MODEL 6
REMARK VINA RESULT:      -8.1      3.320      6.265
REMARK  5 active torsions:
REMARK  status: ('A' for Active; 'I' for Inactive)
REMARK    1  A    between atoms: C3_4  and  C4_5 
REMARK    2  A    between atoms: C7_8  and  O1_9 
REMARK    3  A    between atoms: C9_11  and  C10_12 
REMARK    4  A    between atoms: C10_12  and  C11_13 
REMARK    5  A    between atoms: C16_19  and  O2_20 
ROOT
HETATM    1  C1  UNL     1      23.024  -1.160  54.891  1.00  0.00     0.063 C 
HETATM    2  C2  UNL     1      22.785  -0.428  53.819  1.00  0.00     0.095 A 
HETATM    3  N1  UNL     1      21.454  -0.457  53.332  1.00  0.00    -0.363 N 
HETATM    4  C3  UNL     1      21.099   0.310  52.162  1.00  0.00     0.165 A 
HETATM    5  C7  UNL     1      22.302   1.034  51.683  1.00  0.00     0.097 A 
HETATM    6  C8  UNL     1      23.558   1.112  52.076  1.00  0.00     0.074 A 
HETATM    7  C9  UNL     1      24.404   1.980  51.262  1.00  0.00    -0.021 A 
HETATM    8  C17 UNL     1      25.674   2.198  51.576  1.00  0.00     0.051 A 
HETATM    9  C18 UNL     1      26.574   1.757  52.636  1.00  0.00     0.114 A 
HETATM   10  F1  UNL     1      27.836   2.245  52.667  1.00  0.00    -0.206 F 
HETATM   11  C19 UNL     1      26.199   0.898  53.571  1.00  0.00     0.035 A 
HETATM   12  C20 UNL     1      25.034   0.105  53.998  1.00  0.00     0.161 A 
HETATM   13  N2  UNL     1      23.835   0.329  53.226  1.00  0.00    -0.328 N 
HETATM   14  H3  UNL     1      20.679  -1.012  53.771  1.00  0.00     0.162 HD
ENDROOT
BRANCH   7  15
HETATM   15  C10 UNL     1      23.801   2.584  50.082  1.00  0.00     0.082 C 
BRANCH  15  16
HETATM   16  C11 UNL     1      24.534   3.914  49.942  1.00  0.00    -0.019 A 
HETATM   17  C12 UNL     1      25.752   4.070  49.329  1.00  0.00     0.010 A 
HETATM   18  C13 UNL     1      26.462   5.217  49.163  1.00  0.00     0.002 A 
HETATM   19  C14 UNL     1      25.856   6.338  49.684  1.00  0.00     0.026 A 
HETATM   20  C15 UNL     1      24.637   6.338  50.326  1.00  0.00     0.067 A 
HETATM   21 CL1  UNL     1      23.892   7.783  50.978  1.00  0.00    -0.081 Cl
HETATM   22  C16 UNL     1      24.007   5.122  50.438  1.00  0.00     0.093 A 
BRANCH  22  23
HETATM   23  O2  UNL     1      22.771   5.079  51.081  1.00  0.00    -0.358 OA
HETATM   24  H16 UNL     1      21.916   5.018  50.512  1.00  0.00     0.217 HD
ENDBRANCH  22  23
ENDBRANCH  15  16
ENDBRANCH   7  15
BRANCH   5  25
HETATM   25  O1  UNL     1      21.883   1.747  50.575  1.00  0.00    -0.360 OA
HETATM   26  H10 UNL     1      21.100   1.510  49.983  1.00  0.00     0.217 HD
ENDBRANCH   5  25
BRANCH   4  27
HETATM   27  C4  UNL     1      19.985   1.266  52.413  1.00  0.00     0.000 C 
HETATM   28  C5  UNL     1      18.752   1.118  51.939  1.00  0.00    -0.033 C 
HETATM   29  C6  UNL     1      18.496  -0.087  51.107  1.00  0.00     0.036 C 
ENDBRANCH   4  27
TORSDOF 5
ENDMDL
MODEL 7
REMARK VINA RESULT:      -8.0      3.374      6.263
REMARK  5 active torsions:
REMARK  status: ('A' for Active; 'I' for Inactive)
REMARK    1  A    between atoms: C3_4  and  C4_5 
REMARK    2  A    between atoms: C7_8  and  O1_9 
REMARK    3  A    between atoms: C9_11  and  C10_12 
REMARK    4  A    between atoms: C10_12  and  C11_13 
REMARK    5  A    between atoms: C16_19  and  O2_20 
ROOT
HETATM    1  C1  UNL     1      21.431   1.034  48.814  1.00  0.00     0.063 C 
HETATM    2  C2  UNL     1      22.229   1.840  49.491  1.00  0.00     0.095 A 
HETATM    3  N1  UNL     1      22.762   1.317  50.695  1.00  0.00    -0.363 N 
HETATM    4  C3  UNL     1      23.642   2.126  51.505  1.00  0.00     0.165 A 
HETATM    5  C7  UNL     1      23.824   3.441  50.842  1.00  0.00     0.097 A 
HETATM    6  C8  UNL     1      23.369   3.995  49.736  1.00  0.00     0.074 A 
HETATM    7  C9  UNL     1      23.839   5.356  49.492  1.00  0.00    -0.021 A 
HETATM    8  C17 UNL     1      23.510   6.013  48.389  1.00  0.00     0.051 A 
HETATM    9  C18 UNL     1      22.708   5.723  47.205  1.00  0.00     0.114 A 
HETATM   10  F1  UNL     1      22.636   6.649  46.221  1.00  0.00    -0.206 F 
HETATM   11  C19 UNL     1      22.049   4.584  47.059  1.00  0.00     0.035 A 
HETATM   12  C20 UNL     1      21.790   3.312  47.755  1.00  0.00     0.161 A 
HETATM   13  N2  UNL     1      22.508   3.145  48.996  1.00  0.00    -0.328 N 
HETATM   14  H3  UNL     1      22.559   0.353  51.059  1.00  0.00     0.162 HD
ENDROOT
BRANCH   7  15
HETATM   15  C10 UNL     1      24.672   5.968  50.518  1.00  0.00     0.082 C 
BRANCH  15  16
HETATM   16  C11 UNL     1      25.914   6.418  49.756  1.00  0.00    -0.019 A 
HETATM   17  C12 UNL     1      26.696   5.592  48.988  1.00  0.00     0.010 A 
HETATM   18  C13 UNL     1      27.809   5.917  48.279  1.00  0.00     0.002 A 
HETATM   19  C14 UNL     1      28.166   7.245  48.364  1.00  0.00     0.026 A 
HETATM   20  C15 UNL     1      27.480   8.191  49.095  1.00  0.00     0.067 A 
HETATM   21 CL1  UNL     1      27.960   9.872  49.181  1.00  0.00    -0.081 Cl
HETATM   22  C16 UNL     1      26.369   7.750  49.773  1.00  0.00     0.093 A 
BRANCH  22  23
HETATM   23  O2  UNL     1      25.648   8.677  50.523  1.00  0.00    -0.358 OA
HETATM   24  H16 UNL     1      25.753   8.678  51.546  1.00  0.00     0.217 HD
ENDBRANCH  22  23
ENDBRANCH  15  16
ENDBRANCH   7  15
BRANCH   5  25
HETATM   25  O1  UNL     1      24.679   4.150  51.666  1.00  0.00    -0.360 OA
HETATM   26  H10 UNL     1      25.652   4.344  51.478  1.00  0.00     0.217 HD
ENDBRANCH   5  25
BRANCH   4  27
HETATM   27  C4  UNL     1      24.962   1.480  51.748  1.00  0.00     0.000 C 
HETATM   28  C5  UNL     1      25.174   0.533  52.655  1.00  0.00    -0.033 C 
HETATM   29  C6  UNL     1      24.003   0.109  53.466  1.00  0.00     0.036 C 
ENDBRANCH   4  27
TORSDOF 5
ENDMDL
MODEL 8
REMARK VINA RESULT:      -8.0      4.535      7.716
REMARK  5 active torsions:
REMARK  status: ('A' for Active; 'I' for Inactive)
REMARK    1  A    between atoms: C3_4  and  C4_5 
REMARK    2  A    between atoms: C7_8  and  O1_9 
REMARK    3  A    between atoms: C9_11  and  C10_12 
REMARK    4  A    between atoms: C10_12  and  C11_13 
REMARK    5  A    between atoms: C16_19  and  O2_20 
ROOT
HETATM    1  C1  UNL     1      30.784   9.977  48.680  1.00  0.00     0.063 C 
HETATM    2  C2  UNL     1      30.362   8.735  48.529  1.00  0.00     0.095 A 
HETATM    3  N1  UNL     1      31.315   7.813  48.027  1.00  0.00    -0.363 N 
HETATM    4  C3  UNL     1      30.945   6.432  47.825  1.00  0.00     0.165 A 
HETATM    5  C7  UNL     1      29.528   6.256  48.229  1.00  0.00     0.097 A 
HETATM    6  C8  UNL     1      28.588   7.052  48.699  1.00  0.00     0.074 A 
HETATM    7  C9  UNL     1      27.305   6.405  48.956  1.00  0.00    -0.021 A 
HETATM    8  C17 UNL     1      26.289   7.072  49.484  1.00  0.00     0.051 A 
HETATM    9  C18 UNL     1      26.065   8.442  49.936  1.00  0.00     0.114 A 
HETATM   10  F1  UNL     1      24.873   8.761  50.491  1.00  0.00    -0.206 F 
HETATM   11  C19 UNL     1      26.989   9.383  49.823  1.00  0.00     0.035 A 
HETATM   12  C20 UNL     1      28.365   9.587  49.339  1.00  0.00     0.161 A 
HETATM   13  N2  UNL     1      29.023   8.393  48.867  1.00  0.00    -0.328 N 
HETATM   14  H3  UNL     1      32.304   8.064  47.781  1.00  0.00     0.162 HD
ENDROOT
BRANCH   7  15
HETATM   15  C10 UNL     1      27.181   5.000  48.591  1.00  0.00     0.082 C 
BRANCH  15  16
HETATM   16  C11 UNL     1      25.923   4.546  49.324  1.00  0.00    -0.019 A 
HETATM   17  C12 UNL     1      24.643   4.844  48.928  1.00  0.00     0.010 A 
HETATM   18  C13 UNL     1      23.478   4.475  49.522  1.00  0.00     0.002 A 
HETATM   19  C14 UNL     1      23.639   3.710  50.656  1.00  0.00     0.026 A 
HETATM   20  C15 UNL     1      24.859   3.332  51.174  1.00  0.00     0.067 A 
HETATM   21 CL1  UNL     1      25.029   2.357  52.619  1.00  0.00    -0.081 Cl
HETATM   22  C16 UNL     1      25.971   3.762  50.492  1.00  0.00     0.093 A 
BRANCH  22  23
HETATM   23  O2  UNL     1      27.224   3.400  50.984  1.00  0.00    -0.358 OA
HETATM   24  H16 UNL     1      27.624   2.494  50.708  1.00  0.00     0.217 HD
ENDBRANCH  22  23
ENDBRANCH  15  16
ENDBRANCH   7  15
BRANCH   5  25
HETATM   25  O1  UNL     1      29.251   4.917  48.017  1.00  0.00    -0.360 OA
HETATM   26  H10 UNL     1      28.979   4.252  48.727  1.00  0.00     0.217 HD
ENDBRANCH   5  25
BRANCH   4  27
HETATM   27  C4  UNL     1      31.818   5.484  48.570  1.00  0.00     0.000 C 
HETATM   28  C5  UNL     1      32.559   4.542  47.995  1.00  0.00    -0.033 C 
HETATM   29  C6  UNL     1      32.493   4.452  46.513  1.00  0.00     0.036 C 
ENDBRANCH   4  27
TORSDOF 5
ENDMDL
MODEL 9
REMARK VINA RESULT:      -7.9      3.682      7.096
REMARK  5 active torsions:
REMARK  status: ('A' for Active; 'I' for Inactive)
REMARK    1  A    between atoms: C3_4  and  C4_5 
REMARK    2  A    between atoms: C7_8  and  O1_9 
REMARK    3  A    between atoms: C9_11  and  C10_12 
REMARK    4  A    between atoms: C10_12  and  C11_13 
REMARK    5  A    between atoms: C16_19  and  O2_20 
ROOT
HETATM    1  C1  UNL     1      26.274   0.186  53.799  1.00  0.00     0.063 C 
HETATM    2  C2  UNL     1      25.171   0.472  53.131  1.00  0.00     0.095 A 
HETATM    3  N1  UNL     1      23.989  -0.164  53.585  1.00  0.00    -0.363 N 
HETATM    4  C3  UNL     1      22.734   0.084  52.915  1.00  0.00     0.165 A 
HETATM    5  C7  UNL     1      22.969   1.041  51.806  1.00  0.00     0.097 A 
HETATM    6  C8  UNL     1      24.024   1.670  51.327  1.00  0.00     0.074 A 
HETATM    7  C9  UNL     1      23.756   2.539  50.185  1.00  0.00    -0.021 A 
HETATM    8  C17 UNL     1      24.713   3.276  49.639  1.00  0.00     0.051 A 
HETATM    9  C18 UNL     1      26.135   3.487  49.890  1.00  0.00     0.114 A 
HETATM   10  F1  UNL     1      26.805   4.389  49.135  1.00  0.00    -0.206 F 
HETATM   11  C19 UNL     1      26.792   2.829  50.832  1.00  0.00     0.035 A 
HETATM   12  C20 UNL     1      26.586   1.810  51.875  1.00  0.00     0.161 A 
HETATM   13  N2  UNL     1      25.220   1.373  52.031  1.00  0.00    -0.328 N 
HETATM   14  H3  UNL     1      23.952  -0.826  54.399  1.00  0.00     0.162 HD
ENDROOT
BRANCH   7  15
HETATM   15  C10 UNL     1      22.398   2.550  49.658  1.00  0.00     0.082 C 
BRANCH  15  16
HETATM   16  C11 UNL     1      22.223   3.973  49.139  1.00  0.00    -0.019 A 
HETATM   17  C12 UNL     1      22.407   4.352  47.833  1.00  0.00     0.010 A 
HETATM   18  C13 UNL     1      22.267   5.593  47.296  1.00  0.00     0.002 A 
HETATM   19  C14 UNL     1      21.894   6.562  48.201  1.00  0.00     0.026 A 
HETATM   20  C15 UNL     1      21.674   6.333  49.542  1.00  0.00     0.067 A 
HETATM   21 CL1  UNL     1      21.199   7.588  50.667  1.00  0.00    -0.081 Cl
HETATM   22  C16 UNL     1      21.845   5.040  49.976  1.00  0.00     0.093 A 
BRANCH  22  23
HETATM   23  O2  UNL     1      21.631   4.767  51.326  1.00  0.00    -0.358 OA
HETATM   24  H16 UNL     1      21.324   5.529  51.944  1.00  0.00     0.217 HD
ENDBRANCH  22  23
ENDBRANCH  15  16
ENDBRANCH   7  15
BRANCH   5  25
HETATM   25  O1  UNL     1      21.730   1.236  51.223  1.00  0.00    -0.360 OA
HETATM   26  H10 UNL     1      21.301   0.634  50.535  1.00  0.00     0.217 HD
ENDBRANCH   5  25
BRANCH   4  27
HETATM   27  C4  UNL     1      21.681   0.602  53.833  1.00  0.00     0.000 C 
HETATM   28  C5  UNL     1      20.793  -0.165  54.458  1.00  0.00    -0.033 C 
HETATM   29  C6  UNL     1      20.878  -1.627  54.207  1.00  0.00     0.036 C 
ENDBRANCH   4  27
TORSDOF 5
ENDMDL
