MODEL 1
REMARK VINA RESULT:      -8.8      0.000      0.000
REMARK  4 active torsions:
REMARK  status: ('A' for Active; 'I' for Inactive)
REMARK    1  A    between atoms: O1_2  and  N1_3 
REMARK    2  A    between atoms: N1_3  and  C2_4 
REMARK    3  A    between atoms: C3_5  and  C4_6 
REMARK    4  A    between atoms: C11_13  and  O2_14 
ROOT
HETATM    1  C2  UNL     1      23.989   0.330  52.745  1.00  0.00     0.097 A 
HETATM    2  C3  UNL     1      24.055   1.516  51.942  1.00  0.00    -0.026 A 
HETATM    3  C16 UNL     1      25.345   1.342  52.225  1.00  0.00     0.019 A 
HETATM    4  C17 UNL     1      26.367   1.184  52.461  1.00  0.00    -0.116 C 
HETATM    5  C18 UNL     1      27.689   0.954  52.781  1.00  0.00     0.357 C 
HETATM    6  N2  UNL     1      27.436  -0.369  53.641  1.00  0.00     0.094 N 
HETATM    7  C19 UNL     1      27.081   0.199  54.945  1.00  0.00     0.310 C 
HETATM    8  C20 UNL     1      26.211  -0.917  53.006  1.00  0.00     0.275 C 
HETATM    9  C21 UNL     1      24.893  -0.624  53.560  1.00  0.00     0.068 C 
ENDROOT
BRANCH   2  10
HETATM   10  C4  UNL     1      23.019   2.234  51.305  1.00  0.00     0.044 C 
HETATM   11  C5  UNL     1      22.307   3.163  52.189  1.00  0.00    -0.021 C 
HETATM   12  C6  UNL     1      22.241   4.486  52.104  1.00  0.00    -0.025 C 
HETATM   13  C7  UNL     1      22.734   5.578  51.260  1.00  0.00     0.066 C 
HETATM   14  C8  UNL     1      23.967   5.273  50.516  1.00  0.00    -0.048 A 
HETATM   15  C9  UNL     1      24.805   6.367  50.403  1.00  0.00     0.011 A 
HETATM   16  C14 UNL     1      24.242   4.028  49.996  1.00  0.00    -0.048 A 
HETATM   17  C10 UNL     1      25.985   6.198  49.731  1.00  0.00     0.037 A 
HETATM   18  C11 UNL     1      26.333   4.966  49.176  1.00  0.00     0.068 A 
HETATM   19  C13 UNL     1      25.464   3.907  49.316  1.00  0.00     0.044 A 
HETATM   20  C15 UNL     1      23.493   2.785  50.017  1.00  0.00     0.052 C 
BRANCH  18  21
HETATM   21  O2  UNL     1      27.520   4.754  48.488  1.00  0.00    -0.356 OA
HETATM   22  C12 UNL     1      28.517   5.707  48.293  1.00  0.00     0.210 C 
ENDBRANCH  18  21
ENDBRANCH   2  10
BRANCH   1  23
HETATM   23  N1  UNL     1      22.560  -0.110  52.840  1.00  0.00    -0.187 NA
HETATM   24  H4  UNL     1      21.578  -0.335  53.080  1.00  0.00     0.155 HD
BRANCH  23  25
HETATM   25  O1  UNL     1      22.050   0.245  54.041  1.00  0.00    -0.309 OA
HETATM   26  C1  UNL     1      20.690   0.288  54.133  1.00  0.00     0.229 C 
ENDBRANCH  23  25
ENDBRANCH   1  23
TORSDOF 4
ENDMDL
MODEL 2
REMARK VINA RESULT:      -8.4      2.040      7.064
REMARK  4 active torsions:
REMARK  status: ('A' for Active; 'I' for Inactive)
REMARK    1  A    between atoms: O1_2  and  N1_3 
REMARK    2  A    between atoms: N1_3  and  C2_4 
REMARK    3  A    between atoms: C3_5  and  C4_6 
REMARK    4  A    between atoms: C11_13  and  O2_14 
ROOT
HETATM    1  C2  UNL     1      25.524   3.493  50.337  1.00  0.00     0.097 A 
HETATM    2  C3  UNL     1      25.731   2.608  51.445  1.00  0.00    -0.026 A 
HETATM    3  C16 UNL     1      24.594   3.198  51.814  1.00  0.00     0.019 A 
HETATM    4  C17 UNL     1      23.689   3.677  52.087  1.00  0.00    -0.116 C 
HETATM    5  C18 UNL     1      22.512   4.315  52.418  1.00  0.00     0.357 C 
HETATM    6  N2  UNL     1      22.430   5.228  51.108  1.00  0.00     0.094 N 
HETATM    7  C19 UNL     1      23.298   6.348  51.483  1.00  0.00     0.310 C 
HETATM    8  C20 UNL     1      23.135   4.388  50.106  1.00  0.00     0.275 C 
HETATM    9  C21 UNL     1      24.555   4.589  49.836  1.00  0.00     0.068 C 
ENDROOT
BRANCH   2  10
HETATM   10  C4  UNL     1      26.768   1.678  51.677  1.00  0.00     0.044 C 
HETATM   11  C5  UNL     1      27.757   2.122  52.664  1.00  0.00    -0.021 C 
HETATM   12  C6  UNL     1      28.040   1.578  53.841  1.00  0.00    -0.025 C 
HETATM   13  C7  UNL     1      27.625   0.451  54.680  1.00  0.00     0.066 C 
HETATM   14  C8  UNL     1      26.260  -0.036  54.426  1.00  0.00    -0.048 A 
HETATM   15  C9  UNL     1      25.619  -0.453  55.578  1.00  0.00     0.011 A 
HETATM   16  C14 UNL     1      25.695  -0.066  53.170  1.00  0.00    -0.048 A 
HETATM   17  C10 UNL     1      24.340  -0.924  55.461  1.00  0.00     0.037 A 
HETATM   18  C11 UNL     1      23.702  -0.986  54.221  1.00  0.00     0.068 A 
HETATM   19  C13 UNL     1      24.383  -0.559  53.102  1.00  0.00     0.044 A 
HETATM   20  C15 UNL     1      26.210   0.323  51.869  1.00  0.00     0.052 C 
BRANCH  18  21
HETATM   21  O2  UNL     1      22.406  -1.457  54.060  1.00  0.00    -0.356 OA
HETATM   22  C12 UNL     1      21.262  -0.858  54.583  1.00  0.00     0.210 C 
ENDBRANCH  18  21
ENDBRANCH   2  10
BRANCH   1  23
HETATM   23  N1  UNL     1      26.636   3.303  49.351  1.00  0.00    -0.187 NA
HETATM   24  H4  UNL     1      27.485   3.321  48.757  1.00  0.00     0.155 HD
BRANCH  23  25
HETATM   25  O1  UNL     1      27.590   4.239  49.549  1.00  0.00    -0.309 OA
HETATM   26  C1  UNL     1      27.901   5.025  48.479  1.00  0.00     0.229 C 
ENDBRANCH  23  25
ENDBRANCH   1  23
TORSDOF 4
ENDMDL
MODEL 3
REMARK VINA RESULT:      -8.1      2.078      5.726
REMARK  4 active torsions:
REMARK  status: ('A' for Active; 'I' for Inactive)
REMARK    1  A    between atoms: O1_2  and  N1_3 
REMARK    2  A    between atoms: N1_3  and  C2_4 
REMARK    3  A    between atoms: C3_5  and  C4_6 
REMARK    4  A    between atoms: C11_13  and  O2_14 
ROOT
HETATM    1  C2  UNL     1      25.929   2.450  51.687  1.00  0.00     0.097 A 
HETATM    2  C3  UNL     1      24.516   2.394  51.455  1.00  0.00    -0.026 A 
HETATM    3  C16 UNL     1      24.684   1.295  52.189  1.00  0.00     0.019 A 
HETATM    4  C17 UNL     1      24.840   0.426  52.777  1.00  0.00    -0.116 C 
HETATM    5  C18 UNL     1      25.071  -0.697  53.543  1.00  0.00     0.357 C 
HETATM    6  N2  UNL     1      26.645  -0.476  53.713  1.00  0.00     0.094 N 
HETATM    7  C19 UNL     1      27.153  -1.059  52.468  1.00  0.00     0.310 C 
HETATM    8  C20 UNL     1      26.757   1.002  53.632  1.00  0.00     0.275 C 
HETATM    9  C21 UNL     1      27.069   1.655  52.364  1.00  0.00     0.068 C 
ENDROOT
BRANCH   2  10
HETATM   10  C4  UNL     1      23.682   3.284  50.742  1.00  0.00     0.044 C 
HETATM   11  C5  UNL     1      23.716   3.098  49.288  1.00  0.00    -0.021 C 
HETATM   12  C6  UNL     1      22.725   2.731  48.486  1.00  0.00    -0.025 C 
HETATM   13  C7  UNL     1      21.307   2.370  48.555  1.00  0.00     0.066 C 
HETATM   14  C8  UNL     1      20.865   1.854  49.861  1.00  0.00    -0.048 A 
HETATM   15  C9  UNL     1      19.913   0.858  49.746  1.00  0.00     0.011 A 
HETATM   16  C14 UNL     1      21.358   2.322  51.059  1.00  0.00    -0.048 A 
HETATM   17  C10 UNL     1      19.431   0.302  50.901  1.00  0.00     0.037 A 
HETATM   18  C11 UNL     1      19.882   0.725  52.151  1.00  0.00     0.068 A 
HETATM   19  C13 UNL     1      20.832   1.720  52.213  1.00  0.00     0.044 A 
HETATM   20  C15 UNL     1      22.343   3.344  51.366  1.00  0.00     0.052 C 
BRANCH  18  21
HETATM   21  O2  UNL     1      19.419   0.186  53.345  1.00  0.00    -0.356 OA
HETATM   22  C12 UNL     1      18.808  -1.058  53.481  1.00  0.00     0.210 C 
ENDBRANCH  18  21
ENDBRANCH   2  10
BRANCH   1  23
HETATM   23  N1  UNL     1      26.479   3.678  51.030  1.00  0.00    -0.187 NA
HETATM   24  H4  UNL     1      26.908   4.409  50.434  1.00  0.00     0.155 HD
BRANCH  23  25
HETATM   25  O1  UNL     1      27.022   3.355  49.835  1.00  0.00    -0.309 OA
HETATM   26  C1  UNL     1      27.252   4.388  48.975  1.00  0.00     0.229 C 
ENDBRANCH  23  25
ENDBRANCH   1  23
TORSDOF 4
ENDMDL
MODEL 4
REMARK VINA RESULT:      -7.9      3.261      6.233
REMARK  4 active torsions:
REMARK  status: ('A' for Active; 'I' for Inactive)
REMARK    1  A    between atoms: O1_2  and  N1_3 
REMARK    2  A    between atoms: N1_3  and  C2_4 
REMARK    3  A    between atoms: C3_5  and  C4_6 
REMARK    4  A    between atoms: C11_13  and  O2_14 
ROOT
HETATM    1  C2  UNL     1      23.556   6.563  50.608  1.00  0.00     0.097 A 
HETATM    2  C3  UNL     1      23.549   5.142  50.792  1.00  0.00    -0.026 A 
HETATM    3  C16 UNL     1      24.694   5.295  50.129  1.00  0.00     0.019 A 
HETATM    4  C17 UNL     1      25.603   5.438  49.601  1.00  0.00    -0.116 C 
HETATM    5  C18 UNL     1      26.780   5.654  48.917  1.00  0.00     0.357 C 
HETATM    6  N2  UNL     1      26.635   7.242  48.809  1.00  0.00     0.094 N 
HETATM    7  C19 UNL     1      25.771   7.373  47.632  1.00  0.00     0.310 C 
HETATM    8  C20 UNL     1      25.843   7.560  50.024  1.00  0.00     0.275 C 
HETATM    9  C21 UNL     1      24.390   7.687  49.951  1.00  0.00     0.068 C 
ENDROOT
BRANCH   2  10
HETATM   10  C4  UNL     1      22.602   4.320  51.443  1.00  0.00     0.044 C 
HETATM   11  C5  UNL     1      21.991   3.311  50.573  1.00  0.00    -0.021 C 
HETATM   12  C6  UNL     1      22.071   1.989  50.669  1.00  0.00    -0.025 C 
HETATM   13  C7  UNL     1      22.685   0.966  51.520  1.00  0.00     0.066 C 
HETATM   14  C8  UNL     1      23.881   1.411  52.252  1.00  0.00    -0.048 A 
HETATM   15  C9  UNL     1      24.835   0.417  52.370  1.00  0.00     0.011 A 
HETATM   16  C14 UNL     1      24.022   2.684  52.759  1.00  0.00    -0.048 A 
HETATM   17  C10 UNL     1      25.994   0.720  53.032  1.00  0.00     0.037 A 
HETATM   18  C11 UNL     1      26.208   1.989  53.573  1.00  0.00     0.068 A 
HETATM   19  C13 UNL     1      25.227   2.945  53.430  1.00  0.00     0.044 A 
HETATM   20  C15 UNL     1      23.141   3.838  52.733  1.00  0.00     0.052 C 
BRANCH  18  21
HETATM   21  O2  UNL     1      27.369   2.336  54.251  1.00  0.00    -0.356 OA
HETATM   22  C12 UNL     1      28.648   2.350  53.700  1.00  0.00     0.210 C 
ENDBRANCH  18  21
ENDBRANCH   2  10
BRANCH   1  23
HETATM   23  N1  UNL     1      22.331   7.140  51.248  1.00  0.00    -0.187 NA
HETATM   24  H4  UNL     1      21.401   7.507  51.520  1.00  0.00     0.155 HD
BRANCH  23  25
HETATM   25  O1  UNL     1      21.314   7.158  50.357  1.00  0.00    -0.309 OA
HETATM   26  C1  UNL     1      20.649   8.340  50.219  1.00  0.00     0.229 C 
ENDBRANCH  23  25
ENDBRANCH   1  23
TORSDOF 4
ENDMDL
MODEL 5
REMARK VINA RESULT:      -7.6      2.271      4.839
REMARK  4 active torsions:
REMARK  status: ('A' for Active; 'I' for Inactive)
REMARK    1  A    between atoms: O1_2  and  N1_3 
REMARK    2  A    between atoms: N1_3  and  C2_4 
REMARK    3  A    between atoms: C3_5  and  C4_6 
REMARK    4  A    between atoms: C11_13  and  O2_14 
ROOT
HETATM    1  C2  UNL     1      21.144   1.063  53.006  1.00  0.00     0.097 A 
HETATM    2  C3  UNL     1      22.379   1.617  52.536  1.00  0.00    -0.026 A 
HETATM    3  C16 UNL     1      21.565   1.960  51.539  1.00  0.00     0.019 A 
HETATM    4  C17 UNL     1      20.900   2.225  50.757  1.00  0.00    -0.116 C 
HETATM    5  C18 UNL     1      20.013   2.558  49.756  1.00  0.00     0.357 C 
HETATM    6  N2  UNL     1      18.725   1.893  50.429  1.00  0.00     0.094 N 
HETATM    7  C19 UNL     1      18.874   0.495  50.015  1.00  0.00     0.310 C 
HETATM    8  C20 UNL     1      19.046   2.002  51.875  1.00  0.00     0.275 C 
HETATM    9  C21 UNL     1      19.666   0.888  52.584  1.00  0.00     0.068 C 
ENDROOT
BRANCH   2  10
HETATM   10  C4  UNL     1      23.657   1.614  53.139  1.00  0.00     0.044 C 
HETATM   11  C5  UNL     1      24.487   0.462  52.771  1.00  0.00    -0.021 C 
HETATM   12  C6  UNL     1      25.638   0.460  52.110  1.00  0.00    -0.025 C 
HETATM   13  C7  UNL     1      26.570   1.403  51.486  1.00  0.00     0.066 C 
HETATM   14  C8  UNL     1      25.968   2.680  51.072  1.00  0.00    -0.048 A 
HETATM   15  C9  UNL     1      26.514   3.171  49.900  1.00  0.00     0.011 A 
HETATM   16  C14 UNL     1      24.970   3.307  51.784  1.00  0.00    -0.048 A 
HETATM   17  C10 UNL     1      26.027   4.356  49.417  1.00  0.00     0.037 A 
HETATM   18  C11 UNL     1      25.016   5.049  50.085  1.00  0.00     0.068 A 
HETATM   19  C13 UNL     1      24.506   4.519  51.249  1.00  0.00     0.044 A 
HETATM   20  C15 UNL     1      24.287   2.945  53.013  1.00  0.00     0.052 C 
BRANCH  18  21
HETATM   21  O2  UNL     1      24.496   6.253  49.629  1.00  0.00    -0.356 OA
HETATM   22  C12 UNL     1      23.934   7.241  50.434  1.00  0.00     0.210 C 
ENDBRANCH  18  21
ENDBRANCH   2  10
BRANCH   1  23
HETATM   23  N1  UNL     1      21.377   0.420  54.339  1.00  0.00    -0.187 NA
HETATM   24  H4  UNL     1      21.537  -0.189  55.161  1.00  0.00     0.155 HD
BRANCH  23  25
HETATM   25  O1  UNL     1      21.451  -0.922  54.194  1.00  0.00    -0.309 OA
HETATM   26  C1  UNL     1      22.310  -1.575  55.027  1.00  0.00     0.229 C 
ENDBRANCH  23  25
ENDBRANCH   1  23
TORSDOF 4
ENDMDL
MODEL 6
REMARK VINA RESULT:      -7.6      3.998      7.133
REMARK  4 active torsions:
REMARK  status: ('A' for Active; 'I' for Inactive)
REMARK    1  A    between atoms: O1_2  and  N1_3 
REMARK    2  A    between atoms: N1_3  and  C2_4 
REMARK    3  A    between atoms: C3_5  and  C4_6 
REMARK    4  A    between atoms: C11_13  and  O2_14 
ROOT
HETATM    1  C2  UNL     1      25.298   6.419  48.606  1.00  0.00     0.097 A 
HETATM    2  C3  UNL     1      26.702   6.619  48.404  1.00  0.00    -0.026 A 
HETATM    3  C16 UNL     1      26.704   5.386  48.908  1.00  0.00     0.019 A 
HETATM    4  C17 UNL     1      26.683   4.405  49.309  1.00  0.00    -0.116 C 
HETATM    5  C18 UNL     1      26.626   3.129  49.830  1.00  0.00     0.357 C 
HETATM    6  N2  UNL     1      25.036   3.069  49.980  1.00  0.00     0.094 N 
HETATM    7  C19 UNL     1      24.842   3.746  51.265  1.00  0.00     0.310 C 
HETATM    8  C20 UNL     1      24.591   3.972  48.889  1.00  0.00     0.275 C 
HETATM    9  C21 UNL     1      24.299   5.377  49.160  1.00  0.00     0.068 C 
ENDROOT
BRANCH   2  10
HETATM   10  C4  UNL     1      27.388   7.736  47.876  1.00  0.00     0.044 C 
HETATM   11  C5  UNL     1      27.516   8.855  48.815  1.00  0.00    -0.021 C 
HETATM   12  C6  UNL     1      28.627   9.374  49.324  1.00  0.00    -0.025 C 
HETATM   13  C7  UNL     1      30.078   9.182  49.266  1.00  0.00     0.066 C 
HETATM   14  C8  UNL     1      30.506   7.826  48.888  1.00  0.00    -0.048 A 
HETATM   15  C9  UNL     1      31.653   7.425  49.549  1.00  0.00     0.011 A 
HETATM   16  C14 UNL     1      29.827   7.051  47.974  1.00  0.00    -0.048 A 
HETATM   17  C10 UNL     1      32.141   6.175  49.277  1.00  0.00     0.037 A 
HETATM   18  C11 UNL     1      31.507   5.334  48.362  1.00  0.00     0.068 A 
HETATM   19  C13 UNL     1      30.368   5.780  47.729  1.00  0.00     0.044 A 
HETATM   20  C15 UNL     1      28.627   7.303  47.196  1.00  0.00     0.052 C 
BRANCH  18  21
HETATM   21  O2  UNL     1      31.970   4.060  48.058  1.00  0.00    -0.356 OA
HETATM   22  C12 UNL     1      31.957   3.481  46.791  1.00  0.00     0.210 C 
ENDBRANCH  18  21
ENDBRANCH   2  10
BRANCH   1  23
HETATM   23  N1  UNL     1      24.563   7.641  48.148  1.00  0.00    -0.187 NA
HETATM   24  H4  UNL     1      24.022   8.385  47.672  1.00  0.00     0.155 HD
BRANCH  23  25
HETATM   25  O1  UNL     1      24.074   7.442  46.903  1.00  0.00    -0.309 OA
HETATM   26  C1  UNL     1      23.816   8.561  46.168  1.00  0.00     0.229 C 
ENDBRANCH  23  25
ENDBRANCH   1  23
TORSDOF 4
ENDMDL
MODEL 7
REMARK VINA RESULT:      -7.2      4.771      8.757
REMARK  4 active torsions:
REMARK  status: ('A' for Active; 'I' for Inactive)
REMARK    1  A    between atoms: O1_2  and  N1_3 
REMARK    2  A    between atoms: N1_3  and  C2_4 
REMARK    3  A    between atoms: C3_5  and  C4_6 
REMARK    4  A    between atoms: C11_13  and  O2_14 
ROOT
HETATM    1  C2  UNL     1      30.345   8.838  49.321  1.00  0.00     0.097 A 
HETATM    2  C3  UNL     1      28.978   8.643  48.939  1.00  0.00    -0.026 A 
HETATM    3  C16 UNL     1      29.508   7.488  48.540  1.00  0.00     0.019 A 
HETATM    4  C17 UNL     1      29.949   6.575  48.231  1.00  0.00    -0.116 C 
HETATM    5  C18 UNL     1      30.547   5.396  47.840  1.00  0.00     0.357 C 
HETATM    6  N2  UNL     1      32.020   5.771  48.337  1.00  0.00     0.094 N 
HETATM    7  C19 UNL     1      32.516   6.553  47.201  1.00  0.00     0.310 C 
HETATM    8  C20 UNL     1      31.736   6.690  49.467  1.00  0.00     0.275 C 
HETATM    9  C21 UNL     1      31.722   8.136  49.263  1.00  0.00     0.068 C 
ENDROOT
BRANCH   2  10
HETATM   10  C4  UNL     1      27.867   9.502  49.094  1.00  0.00     0.044 C 
HETATM   11  C5  UNL     1      27.405  10.111  47.843  1.00  0.00    -0.021 C 
HETATM   12  C6  UNL     1      26.234   9.954  47.238  1.00  0.00    -0.025 C 
HETATM   13  C7  UNL     1      24.972   9.232  47.418  1.00  0.00     0.066 C 
HETATM   14  C8  UNL     1      25.069   8.018  48.244  1.00  0.00    -0.048 A 
HETATM   15  C9  UNL     1      24.235   7.007  47.804  1.00  0.00     0.011 A 
HETATM   16  C14 UNL     1      25.905   7.915  49.334  1.00  0.00    -0.048 A 
HETATM   17  C10 UNL     1      24.244   5.826  48.497  1.00  0.00     0.037 A 
HETATM   18  C11 UNL     1      25.065   5.648  49.612  1.00  0.00     0.068 A 
HETATM   19  C13 UNL     1      25.877   6.687  50.011  1.00  0.00     0.044 A 
HETATM   20  C15 UNL     1      26.833   8.858  49.932  1.00  0.00     0.052 C 
BRANCH  18  21
HETATM   21  O2  UNL     1      25.104   4.467  50.342  1.00  0.00    -0.356 OA
HETATM   22  C12 UNL     1      26.162   3.561  50.348  1.00  0.00     0.210 C 
ENDBRANCH  18  21
ENDBRANCH   2  10
BRANCH   1  23
HETATM   23  N1  UNL     1      30.482  10.181  49.970  1.00  0.00    -0.187 NA
HETATM   24  H4  UNL     1      30.636  11.167  50.247  1.00  0.00     0.155 HD
BRANCH  23  25
HETATM   25  O1  UNL     1      30.951  11.078  49.074  1.00  0.00    -0.309 OA
HETATM   26  C1  UNL     1      30.495  12.356  49.200  1.00  0.00     0.229 C 
ENDBRANCH  23  25
ENDBRANCH   1  23
TORSDOF 4
ENDMDL
MODEL 8
REMARK VINA RESULT:      -7.2      3.368      5.902
REMARK  4 active torsions:
REMARK  status: ('A' for Active; 'I' for Inactive)
REMARK    1  A    between atoms: O1_2  and  N1_3 
REMARK    2  A    between atoms: N1_3  and  C2_4 
REMARK    3  A    between atoms: C3_5  and  C4_6 
REMARK    4  A    between atoms: C11_13  and  O2_14 
ROOT
HETATM    1  C2  UNL     1      20.878   3.337  50.908  1.00  0.00     0.097 A 
HETATM    2  C3  UNL     1      21.675   2.260  51.414  1.00  0.00    -0.026 A 
HETATM    3  C16 UNL     1      22.189   2.389  50.192  1.00  0.00     0.019 A 
HETATM    4  C17 UNL     1      22.586   2.510  49.216  1.00  0.00    -0.116 C 
HETATM    5  C18 UNL     1      23.084   2.690  47.942  1.00  0.00     0.357 C 
HETATM    6  N2  UNL     1      22.117   3.898  47.542  1.00  0.00     0.094 N 
HETATM    7  C19 UNL     1      20.916   3.176  47.114  1.00  0.00     0.310 C 
HETATM    8  C20 UNL     1      21.855   4.529  48.860  1.00  0.00     0.275 C 
HETATM    9  C21 UNL     1      20.663   4.178  49.627  1.00  0.00     0.068 C 
ENDROOT
BRANCH   2  10
HETATM   10  C4  UNL     1      21.646   1.632  52.679  1.00  0.00     0.044 C 
HETATM   11  C5  UNL     1      21.213   0.232  52.640  1.00  0.00    -0.021 C 
HETATM   12  C6  UNL     1      21.909  -0.850  52.967  1.00  0.00    -0.025 C 
HETATM   13  C7  UNL     1      23.240  -1.217  53.456  1.00  0.00     0.066 C 
HETATM   14  C8  UNL     1      24.297  -0.238  53.158  1.00  0.00    -0.048 A 
HETATM   15  C9  UNL     1      25.514  -0.834  52.882  1.00  0.00     0.011 A 
HETATM   16  C14 UNL     1      24.083   1.123  53.157  1.00  0.00    -0.048 A 
HETATM   17  C10 UNL     1      26.572  -0.017  52.586  1.00  0.00     0.037 A 
HETATM   18  C11 UNL     1      26.431   1.371  52.567  1.00  0.00     0.068 A 
HETATM   19  C13 UNL     1      25.199   1.917  52.850  1.00  0.00     0.044 A 
HETATM   20  C15 UNL     1      22.894   1.914  53.420  1.00  0.00     0.052 C 
BRANCH  18  21
HETATM   21  O2  UNL     1      27.478   2.234  52.272  1.00  0.00    -0.356 OA
HETATM   22  C12 UNL     1      28.571   2.483  53.099  1.00  0.00     0.210 C 
ENDBRANCH  18  21
ENDBRANCH   2  10
BRANCH   1  23
HETATM   23  N1  UNL     1      19.918   3.772  51.973  1.00  0.00    -0.187 NA
HETATM   24  H4  UNL     1      19.138   3.944  52.632  1.00  0.00     0.155 HD
BRANCH  23  25
HETATM   25  O1  UNL     1      18.760   3.086  51.855  1.00  0.00    -0.309 OA
HETATM   26  C1  UNL     1      17.639   3.825  51.618  1.00  0.00     0.229 C 
ENDBRANCH  23  25
ENDBRANCH   1  23
TORSDOF 4
ENDMDL
MODEL 9
REMARK VINA RESULT:      -6.9      3.543      6.438
REMARK  4 active torsions:
REMARK  status: ('A' for Active; 'I' for Inactive)
REMARK    1  A    between atoms: O1_2  and  N1_3 
REMARK    2  A    between atoms: N1_3  and  C2_4 
REMARK    3  A    between atoms: C3_5  and  C4_6 
REMARK    4  A    between atoms: C11_13  and  O2_14 
ROOT
HETATM    1  C2  UNL     1      23.073   4.322  49.524  1.00  0.00     0.097 A 
HETATM    2  C3  UNL     1      24.221   5.097  49.155  1.00  0.00    -0.026 A 
HETATM    3  C16 UNL     1      23.395   5.394  48.153  1.00  0.00     0.019 A 
HETATM    4  C17 UNL     1      22.721   5.619  47.365  1.00  0.00    -0.116 C 
HETATM    5  C18 UNL     1      21.825   5.896  46.354  1.00  0.00     0.357 C 
HETATM    6  N2  UNL     1      20.637   4.986  46.916  1.00  0.00     0.094 N 
HETATM    7  C19 UNL     1      21.016   3.667  46.400  1.00  0.00     0.310 C 
HETATM    8  C20 UNL     1      20.890   5.021  48.378  1.00  0.00     0.275 C 
HETATM    9  C21 UNL     1      21.655   3.959  49.025  1.00  0.00     0.068 C 
ENDROOT
BRANCH   2  10
HETATM   10  C4  UNL     1      25.464   5.239  49.811  1.00  0.00     0.044 C 
HETATM   11  C5  UNL     1      26.500   4.321  49.330  1.00  0.00    -0.021 C 
HETATM   12  C6  UNL     1      27.646   4.620  48.730  1.00  0.00    -0.025 C 
HETATM   13  C7  UNL     1      28.400   5.795  48.284  1.00  0.00     0.066 C 
HETATM   14  C8  UNL     1      27.581   6.988  48.020  1.00  0.00    -0.048 A 
HETATM   15  C9  UNL     1      28.052   7.731  46.952  1.00  0.00     0.011 A 
HETATM   16  C14 UNL     1      26.469   7.316  48.762  1.00  0.00    -0.048 A 
HETATM   17  C10 UNL     1      27.364   8.865  46.613  1.00  0.00     0.037 A 
HETATM   18  C11 UNL     1      26.228   9.262  47.319  1.00  0.00     0.068 A 
HETATM   19  C13 UNL     1      25.800   8.488  48.375  1.00  0.00     0.044 A 
HETATM   20  C15 UNL     1      25.839   6.667  49.897  1.00  0.00     0.052 C 
BRANCH  18  21
HETATM   21  O2  UNL     1      25.503  10.404  47.007  1.00  0.00    -0.356 OA
HETATM   22  C12 UNL     1      25.785  11.272  45.954  1.00  0.00     0.210 C 
ENDBRANCH  18  21
ENDBRANCH   2  10
BRANCH   1  23
HETATM   23  N1  UNL     1      23.361   3.612  50.811  1.00  0.00    -0.187 NA
HETATM   24  H4  UNL     1      23.598   2.971  51.589  1.00  0.00     0.155 HD
BRANCH  23  25
HETATM   25  O1  UNL     1      23.709   2.331  50.560  1.00  0.00    -0.309 OA
HETATM   26  C1  UNL     1      24.238   1.630  51.603  1.00  0.00     0.229 C 
ENDBRANCH  23  25
ENDBRANCH   1  23
TORSDOF 4
ENDMDL
