MODEL 1
REMARK VINA RESULT:      -7.4      0.000      0.000
REMARK  6 active torsions:
REMARK  status: ('A' for Active; 'I' for Inactive)
REMARK    1  A    between atoms: N1_2  and  C2_3 
REMARK    2  A    between atoms: C2_3  and  N2_4 
REMARK    3  A    between atoms: N2_4  and  C3_5 
REMARK    4  A    between atoms: C3_5  and  C4_6 
REMARK    5  A    between atoms: C11_14  and  O1_15 
REMARK    6  A    between atoms: C13_17  and  O2_18 
ROOT
HETATM    1  C2  UNL     1      24.620   3.388  51.622  1.00  0.00     0.135 C 
HETATM    2  C9  UNL     1      25.081   2.237  52.078  1.00  0.00     0.040 A 
HETATM    3  C10 UNL     1      24.077   1.296  52.550  1.00  0.00     0.057 A 
HETATM    4  C11 UNL     1      24.607   0.152  52.999  1.00  0.00     0.102 A 
HETATM    5  C13 UNL     1      26.025  -0.185  53.039  1.00  0.00     0.103 A 
HETATM    6  C15 UNL     1      26.948   0.668  52.609  1.00  0.00     0.071 A 
HETATM    7  C16 UNL     1      26.511   1.961  52.091  1.00  0.00     0.065 A 
HETATM    8  N3  UNL     1      27.399   2.788  51.675  1.00  0.00    -0.299 NA
HETATM    9  H18 UNL     1      27.077   3.705  51.308  1.00  0.00     0.187 HD
ENDROOT
BRANCH   1  10
HETATM   10  N1  UNL     1      23.208   3.626  51.623  1.00  0.00    -0.254 NA
HETATM   11  C1  UNL     1      22.762   4.608  52.360  1.00  0.00     0.151 C 
ENDBRANCH   1  10
BRANCH   1  12
HETATM   12  N2  UNL     1      24.923   4.643  51.066  1.00  0.00    -0.370 N 
HETATM   13  H3  UNL     1      25.162   5.468  51.660  1.00  0.00     0.161 HD
BRANCH  12  14
HETATM   14  C3  UNL     1      24.877   4.695  49.617  1.00  0.00     0.161 C 
BRANCH  14  15
HETATM   15  C4  UNL     1      26.103   5.410  49.174  1.00  0.00    -0.027 A 
HETATM   16  C5  UNL     1      27.242   4.691  48.803  1.00  0.00     0.010 A 
HETATM   17  C6  UNL     1      28.405   5.254  48.385  1.00  0.00     0.001 A 
HETATM   18  C7  UNL     1      28.701   6.587  48.245  1.00  0.00     0.001 A 
HETATM   19  C8  UNL     1      27.834   7.647  48.512  1.00  0.00     0.016 A 
HETATM   20  P1  UNL     1      26.258   7.151  49.070  1.00  0.00    -0.026 P 
ENDBRANCH  14  15
ENDBRANCH  12  14
ENDBRANCH   1  12
BRANCH   4  21
HETATM   21  O1  UNL     1      23.690  -0.806  53.472  1.00  0.00    -0.353 OA
HETATM   22  C12 UNL     1      22.359  -0.641  53.011  1.00  0.00     0.210 C 
ENDBRANCH   4  21
BRANCH   5  23
HETATM   23  O2  UNL     1      26.483  -1.381  53.514  1.00  0.00    -0.353 OA
HETATM   24  C14 UNL     1      27.171  -2.274  52.662  1.00  0.00     0.210 C 
ENDBRANCH   5  23
TORSDOF 6
ENDMDL
MODEL 2
REMARK VINA RESULT:      -7.2      1.268      1.397
REMARK  6 active torsions:
REMARK  status: ('A' for Active; 'I' for Inactive)
REMARK    1  A    between atoms: N1_2  and  C2_3 
REMARK    2  A    between atoms: C2_3  and  N2_4 
REMARK    3  A    between atoms: N2_4  and  C3_5 
REMARK    4  A    between atoms: C3_5  and  C4_6 
REMARK    5  A    between atoms: C11_14  and  O1_15 
REMARK    6  A    between atoms: C13_17  and  O2_18 
ROOT
HETATM    1  C2  UNL     1      24.898   2.779  52.183  1.00  0.00     0.135 C 
HETATM    2  C9  UNL     1      25.718   1.881  52.701  1.00  0.00     0.040 A 
HETATM    3  C10 UNL     1      25.083   0.785  53.415  1.00  0.00     0.057 A 
HETATM    4  C11 UNL     1      25.966  -0.089  53.915  1.00  0.00     0.102 A 
HETATM    5  C13 UNL     1      27.417  -0.015  53.794  1.00  0.00     0.103 A 
HETATM    6  C15 UNL     1      28.003   0.983  53.143  1.00  0.00     0.071 A 
HETATM    7  C16 UNL     1      27.159   2.013  52.545  1.00  0.00     0.065 A 
HETATM    8  N3  UNL     1      27.721   2.979  51.915  1.00  0.00    -0.299 NA
HETATM    9  H18 UNL     1      27.112   3.706  51.492  1.00  0.00     0.187 HD
ENDROOT
BRANCH   1  10
HETATM   10  N1  UNL     1      23.486   2.619  52.355  1.00  0.00    -0.254 NA
HETATM   11  C1  UNL     1      22.774   3.699  52.539  1.00  0.00     0.151 C 
ENDBRANCH   1  10
BRANCH   1  12
HETATM   12  N2  UNL     1      24.765   3.970  51.448  1.00  0.00    -0.370 N 
HETATM   13  H3  UNL     1      24.590   4.889  51.911  1.00  0.00     0.161 HD
BRANCH  12  14
HETATM   14  C3  UNL     1      24.892   3.816  50.011  1.00  0.00     0.161 C 
BRANCH  14  15
HETATM   15  C4  UNL     1      25.805   4.893  49.542  1.00  0.00    -0.027 A 
HETATM   16  C5  UNL     1      27.002   4.570  48.898  1.00  0.00     0.010 A 
HETATM   17  C6  UNL     1      27.896   5.480  48.436  1.00  0.00     0.001 A 
HETATM   18  C7  UNL     1      27.824   6.850  48.499  1.00  0.00     0.001 A 
HETATM   19  C8  UNL     1      26.783   7.586  49.067  1.00  0.00     0.016 A 
HETATM   20  P1  UNL     1      25.503   6.607  49.734  1.00  0.00    -0.026 P 
ENDBRANCH  14  15
ENDBRANCH  12  14
ENDBRANCH   1  12
BRANCH   4  21
HETATM   21  O1  UNL     1      25.419  -1.178  54.621  1.00  0.00    -0.353 OA
HETATM   22  C12 UNL     1      24.049  -1.045  54.963  1.00  0.00     0.210 C 
ENDBRANCH   4  21
BRANCH   5  23
HETATM   23  O2  UNL     1      28.248  -0.954  54.337  1.00  0.00    -0.353 OA
HETATM   24  C14 UNL     1      29.514  -1.205  53.763  1.00  0.00     0.210 C 
ENDBRANCH   5  23
TORSDOF 6
ENDMDL
MODEL 3
REMARK VINA RESULT:      -7.2      4.406      6.469
REMARK  6 active torsions:
REMARK  status: ('A' for Active; 'I' for Inactive)
REMARK    1  A    between atoms: N1_2  and  C2_3 
REMARK    2  A    between atoms: C2_3  and  N2_4 
REMARK    3  A    between atoms: N2_4  and  C3_5 
REMARK    4  A    between atoms: C3_5  and  C4_6 
REMARK    5  A    between atoms: C11_14  and  O1_15 
REMARK    6  A    between atoms: C13_17  and  O2_18 
ROOT
HETATM    1  C2  UNL     1      23.546   0.265  53.190  1.00  0.00     0.135 C 
HETATM    2  C9  UNL     1      22.272  -0.083  53.247  1.00  0.00     0.040 A 
HETATM    3  C10 UNL     1      21.418   0.479  52.213  1.00  0.00     0.057 A 
HETATM    4  C11 UNL     1      20.142   0.090  52.325  1.00  0.00     0.102 A 
HETATM    5  C13 UNL     1      19.598  -0.799  53.344  1.00  0.00     0.103 A 
HETATM    6  C15 UNL     1      20.372  -1.317  54.291  1.00  0.00     0.071 A 
HETATM    7  C16 UNL     1      21.791  -0.975  54.291  1.00  0.00     0.065 A 
HETATM    8  N3  UNL     1      22.542  -1.473  55.204  1.00  0.00    -0.299 NA
HETATM    9  H18 UNL     1      23.551  -1.225  55.195  1.00  0.00     0.187 HD
ENDROOT
BRANCH   1  10
HETATM   10  N1  UNL     1      23.986   1.144  52.150  1.00  0.00    -0.254 NA
HETATM   11  C1  UNL     1      24.326   2.359  52.489  1.00  0.00     0.151 C 
ENDBRANCH   1  10
BRANCH   1  12
HETATM   12  N2  UNL     1      24.826   0.150  53.759  1.00  0.00    -0.370 N 
HETATM   13  H3  UNL     1      25.186   0.838  54.457  1.00  0.00     0.161 HD
BRANCH  12  14
HETATM   14  C3  UNL     1      25.597  -0.991  53.300  1.00  0.00     0.161 C 
BRANCH  14  15
HETATM   15  C4  UNL     1      27.032  -0.620  53.429  1.00  0.00    -0.027 A 
HETATM   16  C5  UNL     1      28.029  -1.561  53.163  1.00  0.00     0.010 A 
HETATM   17  C6  UNL     1      29.361  -1.316  53.253  1.00  0.00     0.001 A 
HETATM   18  C7  UNL     1      29.988  -0.148  53.608  1.00  0.00     0.001 A 
HETATM   19  C8  UNL     1      29.352   1.046  53.953  1.00  0.00     0.016 A 
HETATM   20  P1  UNL     1      27.612   0.963  53.906  1.00  0.00    -0.026 P 
ENDBRANCH  14  15
ENDBRANCH  12  14
ENDBRANCH   1  12
BRANCH   4  21
HETATM   21  O1  UNL     1      19.258   0.598  51.354  1.00  0.00    -0.353 OA
HETATM   22  C12 UNL     1      19.876   1.079  50.171  1.00  0.00     0.210 C 
ENDBRANCH   4  21
BRANCH   5  23
HETATM   23  O2  UNL     1      18.277  -1.147  53.385  1.00  0.00    -0.353 OA
HETATM   24  C14 UNL     1      17.898  -2.483  53.643  1.00  0.00     0.210 C 
ENDBRANCH   5  23
TORSDOF 6
ENDMDL
MODEL 4
REMARK VINA RESULT:      -6.7      2.030      3.986
REMARK  6 active torsions:
REMARK  status: ('A' for Active; 'I' for Inactive)
REMARK    1  A    between atoms: N1_2  and  C2_3 
REMARK    2  A    between atoms: C2_3  and  N2_4 
REMARK    3  A    between atoms: N2_4  and  C3_5 
REMARK    4  A    between atoms: C3_5  and  C4_6 
REMARK    5  A    between atoms: C11_14  and  O1_15 
REMARK    6  A    between atoms: C13_17  and  O2_18 
ROOT
HETATM    1  C2  UNL     1      24.163   1.437  51.936  1.00  0.00     0.135 C 
HETATM    2  C9  UNL     1      23.074   0.813  52.352  1.00  0.00     0.040 A 
HETATM    3  C10 UNL     1      23.235  -0.016  53.536  1.00  0.00     0.057 A 
HETATM    4  C11 UNL     1      22.099  -0.620  53.906  1.00  0.00     0.102 A 
HETATM    5  C13 UNL     1      20.806  -0.504  53.244  1.00  0.00     0.103 A 
HETATM    6  C15 UNL     1      20.651   0.251  52.162  1.00  0.00     0.071 A 
HETATM    7  C16 UNL     1      21.812   0.970  51.646  1.00  0.00     0.065 A 
HETATM    8  N3  UNL     1      21.667   1.701  50.601  1.00  0.00    -0.299 NA
HETATM    9  H18 UNL     1      22.498   2.209  50.242  1.00  0.00     0.187 HD
ENDROOT
BRANCH   1  10
HETATM   10  N1  UNL     1      25.388   1.261  52.655  1.00  0.00    -0.254 NA
HETATM   11  C1  UNL     1      26.407   0.772  52.000  1.00  0.00     0.151 C 
ENDBRANCH   1  10
BRANCH   1  12
HETATM   12  N2  UNL     1      24.736   2.304  50.990  1.00  0.00    -0.370 N 
HETATM   13  H3  UNL     1      25.362   1.957  50.230  1.00  0.00     0.161 HD
BRANCH  12  14
HETATM   14  C3  UNL     1      24.390   3.703  51.157  1.00  0.00     0.161 C 
BRANCH  14  15
HETATM   15  C4  UNL     1      25.325   4.482  50.302  1.00  0.00    -0.027 A 
HETATM   16  C5  UNL     1      26.400   3.846  49.675  1.00  0.00     0.010 A 
HETATM   17  C6  UNL     1      27.304   4.471  48.878  1.00  0.00     0.001 A 
HETATM   18  C7  UNL     1      27.357   5.798  48.531  1.00  0.00     0.001 A 
HETATM   19  C8  UNL     1      26.462   6.785  48.946  1.00  0.00     0.016 A 
HETATM   20  P1  UNL     1      25.197   6.201  49.994  1.00  0.00    -0.026 P 
ENDBRANCH  14  15
ENDBRANCH  12  14
ENDBRANCH   1  12
BRANCH   4  21
HETATM   21  O1  UNL     1      22.183  -1.440  55.047  1.00  0.00    -0.353 OA
HETATM   22  C12 UNL     1      23.456  -1.470  55.673  1.00  0.00     0.210 C 
ENDBRANCH   4  21
BRANCH   5  23
HETATM   23  O2  UNL     1      19.691  -1.158  53.689  1.00  0.00    -0.353 OA
HETATM   24  C14 UNL     1      18.439  -0.936  53.075  1.00  0.00     0.210 C 
ENDBRANCH   5  23
TORSDOF 6
ENDMDL
MODEL 5
REMARK VINA RESULT:      -6.5      4.002      6.610
REMARK  6 active torsions:
REMARK  status: ('A' for Active; 'I' for Inactive)
REMARK    1  A    between atoms: N1_2  and  C2_3 
REMARK    2  A    between atoms: C2_3  and  N2_4 
REMARK    3  A    between atoms: N2_4  and  C3_5 
REMARK    4  A    between atoms: C3_5  and  C4_6 
REMARK    5  A    between atoms: C11_14  and  O1_15 
REMARK    6  A    between atoms: C13_17  and  O2_18 
ROOT
HETATM    1  C2  UNL     1      23.639   1.732  52.394  1.00  0.00     0.135 C 
HETATM    2  C9  UNL     1      24.730   1.104  52.797  1.00  0.00     0.040 A 
HETATM    3  C10 UNL     1      25.988   1.772  52.505  1.00  0.00     0.057 A 
HETATM    4  C11 UNL     1      27.054   1.086  52.937  1.00  0.00     0.102 A 
HETATM    5  C13 UNL     1      27.031  -0.195  53.632  1.00  0.00     0.103 A 
HETATM    6  C15 UNL     1      25.886  -0.811  53.903  1.00  0.00     0.071 A 
HETATM    7  C16 UNL     1      24.639  -0.175  53.487  1.00  0.00     0.065 A 
HETATM    8  N3  UNL     1      23.531  -0.767  53.746  1.00  0.00    -0.299 NA
HETATM    9  H18 UNL     1      22.650  -0.306  53.447  1.00  0.00     0.187 HD
ENDROOT
BRANCH   1  10
HETATM   10  N1  UNL     1      23.765   2.988  51.719  1.00  0.00    -0.254 NA
HETATM   11  C1  UNL     1      23.173   4.023  52.255  1.00  0.00     0.151 C 
ENDBRANCH   1  10
BRANCH   1  12
HETATM   12  N2  UNL     1      22.236   1.727  52.318  1.00  0.00    -0.370 N 
HETATM   13  H3  UNL     1      21.640   2.153  53.063  1.00  0.00     0.161 HD
BRANCH  12  14
HETATM   14  C3  UNL     1      21.692   1.089  51.134  1.00  0.00     0.161 C 
BRANCH  14  15
HETATM   15  C4  UNL     1      20.371   0.524  51.520  1.00  0.00    -0.027 A 
HETATM   16  C5  UNL     1      19.300   0.563  50.624  1.00  0.00     0.010 A 
HETATM   17  C6  UNL     1      18.061   0.073  50.885  1.00  0.00     0.001 A 
HETATM   18  C7  UNL     1      17.613  -0.537  52.030  1.00  0.00     0.001 A 
HETATM   19  C8  UNL     1      18.372  -0.777  53.177  1.00  0.00     0.016 A 
HETATM   20  P1  UNL     1      20.021  -0.222  53.065  1.00  0.00    -0.026 P 
ENDBRANCH  14  15
ENDBRANCH  12  14
ENDBRANCH   1  12
BRANCH   4  21
HETATM   21  O1  UNL     1      28.307   1.677  52.687  1.00  0.00    -0.353 OA
HETATM   22  C12 UNL     1      28.787   2.526  53.717  1.00  0.00     0.210 C 
ENDBRANCH   4  21
BRANCH   5  23
HETATM   23  O2  UNL     1      28.170  -0.829  54.041  1.00  0.00    -0.353 OA
HETATM   24  C14 UNL     1      28.854  -1.704  53.168  1.00  0.00     0.210 C 
ENDBRANCH   5  23
TORSDOF 6
ENDMDL
MODEL 6
REMARK VINA RESULT:      -6.3      3.702      6.692
REMARK  6 active torsions:
REMARK  status: ('A' for Active; 'I' for Inactive)
REMARK    1  A    between atoms: N1_2  and  C2_3 
REMARK    2  A    between atoms: C2_3  and  N2_4 
REMARK    3  A    between atoms: N2_4  and  C3_5 
REMARK    4  A    between atoms: C3_5  and  C4_6 
REMARK    5  A    between atoms: C11_14  and  O1_15 
REMARK    6  A    between atoms: C13_17  and  O2_18 
ROOT
HETATM    1  C2  UNL     1      24.415   3.058  50.602  1.00  0.00     0.135 C 
HETATM    2  C9  UNL     1      24.757   4.127  49.903  1.00  0.00     0.040 A 
HETATM    3  C10 UNL     1      23.654   4.922  49.388  1.00  0.00     0.057 A 
HETATM    4  C11 UNL     1      24.065   5.989  48.690  1.00  0.00     0.102 A 
HETATM    5  C13 UNL     1      25.448   6.372  48.435  1.00  0.00     0.103 A 
HETATM    6  C15 UNL     1      26.460   5.650  48.903  1.00  0.00     0.071 A 
HETATM    7  C16 UNL     1      26.158   4.455  49.684  1.00  0.00     0.065 A 
HETATM    8  N3  UNL     1      27.132   3.755  50.138  1.00  0.00    -0.299 NA
HETATM    9  H18 UNL     1      26.907   2.907  50.693  1.00  0.00     0.187 HD
ENDROOT
BRANCH   1  10
HETATM   10  N1  UNL     1      23.028   2.765  50.799  1.00  0.00    -0.254 NA
HETATM   11  C1  UNL     1      22.581   1.627  50.337  1.00  0.00     0.151 C 
ENDBRANCH   1  10
BRANCH   1  12
HETATM   12  N2  UNL     1      24.850   1.938  51.332  1.00  0.00    -0.370 N 
HETATM   13  H3  UNL     1      24.841   0.976  50.927  1.00  0.00     0.161 HD
BRANCH  12  14
HETATM   14  C3  UNL     1      25.304   2.228  52.679  1.00  0.00     0.161 C 
BRANCH  14  15
HETATM   15  C4  UNL     1      26.490   1.364  52.927  1.00  0.00    -0.027 A 
HETATM   16  C5  UNL     1      26.405  -0.018  52.737  1.00  0.00     0.010 A 
HETATM   17  C6  UNL     1      27.431  -0.885  52.936  1.00  0.00     0.001 A 
HETATM   18  C7  UNL     1      28.710  -0.607  53.349  1.00  0.00     0.001 A 
HETATM   19  C8  UNL     1      29.213   0.659  53.649  1.00  0.00     0.016 A 
HETATM   20  P1  UNL     1      28.053   1.947  53.460  1.00  0.00    -0.026 P 
ENDBRANCH  14  15
ENDBRANCH  12  14
ENDBRANCH   1  12
BRANCH   4  21
HETATM   21  O1  UNL     1      23.048   6.805  48.160  1.00  0.00    -0.353 OA
HETATM   22  C12 UNL     1      22.329   7.566  49.118  1.00  0.00     0.210 C 
ENDBRANCH   4  21
BRANCH   5  23
HETATM   23  O2  UNL     1      25.781   7.481  47.709  1.00  0.00    -0.353 OA
HETATM   24  C14 UNL     1      27.136   7.787  47.453  1.00  0.00     0.210 C 
ENDBRANCH   5  23
TORSDOF 6
ENDMDL
MODEL 7
REMARK VINA RESULT:      -6.2      4.704      6.945
REMARK  6 active torsions:
REMARK  status: ('A' for Active; 'I' for Inactive)
REMARK    1  A    between atoms: N1_2  and  C2_3 
REMARK    2  A    between atoms: C2_3  and  N2_4 
REMARK    3  A    between atoms: N2_4  and  C3_5 
REMARK    4  A    between atoms: C3_5  and  C4_6 
REMARK    5  A    between atoms: C11_14  and  O1_15 
REMARK    6  A    between atoms: C13_17  and  O2_18 
ROOT
HETATM    1  C2  UNL     1      21.631   0.453  52.813  1.00  0.00     0.135 C 
HETATM    2  C9  UNL     1      20.444  -0.128  52.821  1.00  0.00     0.040 A 
HETATM    3  C10 UNL     1      19.530   0.288  51.770  1.00  0.00     0.057 A 
HETATM    4  C11 UNL     1      18.347  -0.336  51.833  1.00  0.00     0.102 A 
HETATM    5  C13 UNL     1      17.950  -1.334  52.819  1.00  0.00     0.103 A 
HETATM    6  C15 UNL     1      18.779  -1.719  53.782  1.00  0.00     0.071 A 
HETATM    7  C16 UNL     1      20.109  -1.118  53.834  1.00  0.00     0.065 A 
HETATM    8  N3  UNL     1      20.913  -1.487  54.763  1.00  0.00    -0.299 NA
HETATM    9  H18 UNL     1      21.856  -1.054  54.792  1.00  0.00     0.187 HD
ENDROOT
BRANCH   1  10
HETATM   10  N1  UNL     1      21.928   1.422  51.802  1.00  0.00    -0.254 NA
HETATM   11  C1  UNL     1      22.040   2.669  52.176  1.00  0.00     0.151 C 
ENDBRANCH   1  10
BRANCH   1  12
HETATM   12  N2  UNL     1      22.893   0.567  53.422  1.00  0.00    -0.370 N 
HETATM   13  H3  UNL     1      23.156   1.396  53.999  1.00  0.00     0.161 HD
BRANCH  12  14
HETATM   14  C3  UNL     1      23.787  -0.551  53.184  1.00  0.00     0.161 C 
BRANCH  14  15
HETATM   15  C4  UNL     1      25.170  -0.003  53.191  1.00  0.00    -0.027 A 
HETATM   16  C5  UNL     1      26.268  -0.864  53.117  1.00  0.00     0.010 A 
HETATM   17  C6  UNL     1      27.564  -0.458  53.116  1.00  0.00     0.001 A 
HETATM   18  C7  UNL     1      28.053   0.822  53.186  1.00  0.00     0.001 A 
HETATM   19  C8  UNL     1      27.286   1.985  53.271  1.00  0.00     0.016 A 
HETATM   20  P1  UNL     1      25.566   1.700  53.288  1.00  0.00    -0.026 P 
ENDBRANCH  14  15
ENDBRANCH  12  14
ENDBRANCH   1  12
BRANCH   4  21
HETATM   21  O1  UNL     1      17.412   0.019  50.843  1.00  0.00    -0.353 OA
HETATM   22  C12 UNL     1      16.736   1.246  51.068  1.00  0.00     0.210 C 
ENDBRANCH   4  21
BRANCH   5  23
HETATM   23  O2  UNL     1      16.717  -1.924  52.810  1.00  0.00    -0.353 OA
HETATM   24  C14 UNL     1      16.573  -3.284  53.166  1.00  0.00     0.210 C 
ENDBRANCH   5  23
TORSDOF 6
ENDMDL
MODEL 8
REMARK VINA RESULT:      -6.2      4.205      6.383
REMARK  6 active torsions:
REMARK  status: ('A' for Active; 'I' for Inactive)
REMARK    1  A    between atoms: N1_2  and  C2_3 
REMARK    2  A    between atoms: C2_3  and  N2_4 
REMARK    3  A    between atoms: N2_4  and  C3_5 
REMARK    4  A    between atoms: C3_5  and  C4_6 
REMARK    5  A    between atoms: C11_14  and  O1_15 
REMARK    6  A    between atoms: C13_17  and  O2_18 
ROOT
HETATM    1  C2  UNL     1      23.109   1.759  52.647  1.00  0.00     0.135 C 
HETATM    2  C9  UNL     1      22.571   2.883  52.205  1.00  0.00     0.040 A 
HETATM    3  C10 UNL     1      21.133   2.852  51.990  1.00  0.00     0.057 A 
HETATM    4  C11 UNL     1      20.650   4.018  51.542  1.00  0.00     0.102 A 
HETATM    5  C13 UNL     1      21.421   5.227  51.279  1.00  0.00     0.103 A 
HETATM    6  C15 UNL     1      22.734   5.262  51.473  1.00  0.00     0.071 A 
HETATM    7  C16 UNL     1      23.396   4.056  51.961  1.00  0.00     0.065 A 
HETATM    8  N3  UNL     1      24.665   4.086  52.150  1.00  0.00    -0.299 NA
HETATM    9  H18 UNL     1      25.127   3.223  52.498  1.00  0.00     0.187 HD
ENDROOT
BRANCH   1  10
HETATM   10  N1  UNL     1      22.267   0.624  52.877  1.00  0.00    -0.254 NA
HETATM   11  C1  UNL     1      22.315   0.067  54.058  1.00  0.00     0.151 C 
ENDBRANCH   1  10
BRANCH   1  12
HETATM   12  N2  UNL     1      24.278   1.088  53.044  1.00  0.00    -0.370 N 
HETATM   13  H3  UNL     1      24.457   0.832  54.041  1.00  0.00     0.161 HD
BRANCH  12  14
HETATM   14  C3  UNL     1      25.203   0.785  51.968  1.00  0.00     0.161 C 
BRANCH  14  15
HETATM   15  C4  UNL     1      26.529   0.543  52.597  1.00  0.00    -0.027 A 
HETATM   16  C5  UNL     1      27.040  -0.754  52.684  1.00  0.00     0.010 A 
HETATM   17  C6  UNL     1      28.238  -1.073  53.238  1.00  0.00     0.001 A 
HETATM   18  C7  UNL     1      29.161  -0.231  53.807  1.00  0.00     0.001 A 
HETATM   19  C8  UNL     1      29.039   1.154  53.925  1.00  0.00     0.016 A 
HETATM   20  P1  UNL     1      27.555   1.793  53.269  1.00  0.00    -0.026 P 
ENDBRANCH  14  15
ENDBRANCH  12  14
ENDBRANCH   1  12
BRANCH   4  21
HETATM   21  O1  UNL     1      19.262   4.060  51.312  1.00  0.00    -0.353 OA
HETATM   22  C12 UNL     1      18.585   2.826  51.494  1.00  0.00     0.210 C 
ENDBRANCH   4  21
BRANCH   5  23
HETATM   23  O2  UNL     1      20.846   6.380  50.822  1.00  0.00    -0.353 OA
HETATM   24  C14 UNL     1      21.634   7.529  50.593  1.00  0.00     0.210 C 
ENDBRANCH   5  23
TORSDOF 6
ENDMDL
MODEL 9
REMARK VINA RESULT:      -6.2      5.731      9.014
REMARK  6 active torsions:
REMARK  status: ('A' for Active; 'I' for Inactive)
REMARK    1  A    between atoms: N1_2  and  C2_3 
REMARK    2  A    between atoms: C2_3  and  N2_4 
REMARK    3  A    between atoms: N2_4  and  C3_5 
REMARK    4  A    between atoms: C3_5  and  C4_6 
REMARK    5  A    between atoms: C11_14  and  O1_15 
REMARK    6  A    between atoms: C13_17  and  O2_18 
ROOT
HETATM    1  C2  UNL     1      30.276   8.301  48.731  1.00  0.00     0.135 C 
HETATM    2  C9  UNL     1      31.318   7.511  48.537  1.00  0.00     0.040 A 
HETATM    3  C10 UNL     1      32.489   8.143  47.949  1.00  0.00     0.057 A 
HETATM    4  C11 UNL     1      33.508   7.292  47.779  1.00  0.00     0.102 A 
HETATM    5  C13 UNL     1      33.516   5.875  48.123  1.00  0.00     0.103 A 
HETATM    6  C15 UNL     1      32.451   5.291  48.661  1.00  0.00     0.071 A 
HETATM    7  C16 UNL     1      31.262   6.103  48.903  1.00  0.00     0.065 A 
HETATM    8  N3  UNL     1      30.231   5.543  49.423  1.00  0.00    -0.299 NA
HETATM    9  H18 UNL     1      29.391   6.129  49.591  1.00  0.00     0.187 HD
ENDROOT
BRANCH   1  10
HETATM   10  N1  UNL     1      30.366   9.680  48.360  1.00  0.00    -0.254 NA
HETATM   11  C1  UNL     1      30.372  10.564  49.322  1.00  0.00     0.151 C 
ENDBRANCH   1  10
BRANCH   1  12
HETATM   12  N2  UNL     1      28.954   8.416  49.193  1.00  0.00    -0.370 N 
HETATM   13  H3  UNL     1      28.734   8.706  50.172  1.00  0.00     0.161 HD
BRANCH  12  14
HETATM   14  C3  UNL     1      27.935   8.103  48.209  1.00  0.00     0.161 C 
BRANCH  14  15
HETATM   15  C4  UNL     1      26.976   7.174  48.866  1.00  0.00    -0.027 A 
HETATM   16  C5  UNL     1      27.017   5.806  48.586  1.00  0.00     0.010 A 
HETATM   17  C6  UNL     1      26.187   4.883  49.136  1.00  0.00     0.001 A 
HETATM   18  C7  UNL     1      25.173   5.084  50.040  1.00  0.00     0.001 A 
HETATM   19  C8  UNL     1      24.797   6.313  50.582  1.00  0.00     0.016 A 
HETATM   20  P1  UNL     1      25.743   7.661  50.010  1.00  0.00    -0.026 P 
ENDBRANCH  14  15
ENDBRANCH  12  14
ENDBRANCH   1  12
BRANCH   4  21
HETATM   21  O1  UNL     1      34.676   7.837  47.213  1.00  0.00    -0.353 OA
HETATM   22  C12 UNL     1      35.623   8.330  48.147  1.00  0.00     0.210 C 
ENDBRANCH   4  21
BRANCH   5  23
HETATM   23  O2  UNL     1      34.604   5.075  47.916  1.00  0.00    -0.353 OA
HETATM   24  C14 UNL     1      34.711   4.306  46.735  1.00  0.00     0.210 C 
ENDBRANCH   5  23
TORSDOF 6
ENDMDL
