MODEL 1
REMARK VINA RESULT:      -7.7      0.000      0.000
REMARK  1 active torsions:
REMARK  status: ('A' for Active; 'I' for Inactive)
REMARK    1  A    between atoms: C2_2  and  C3_3 
ROOT
HETATM    1  C3  UNL     1      25.518   4.818  49.629  1.00  0.00     0.044 C 
HETATM    2  C4  UNL     1      25.116   4.214  50.722  1.00  0.00     0.101 C 
HETATM    3  N1  UNL     1      25.859   3.180  51.325  1.00  0.00    -0.338 N 
HETATM    4  C5  UNL     1      26.674   2.259  52.009  1.00  0.00     0.204 C 
HETATM    5  N2  UNL     1      26.139   1.900  53.053  1.00  0.00    -0.259 NA
HETATM    6  C6  UNL     1      26.321   1.076  54.160  1.00  0.00     0.317 C 
HETATM    7  O1  UNL     1      25.661  -0.188  53.907  1.00  0.00    -0.370 OA
HETATM    8  C7  UNL     1      24.379   0.256  53.545  1.00  0.00     0.170 C 
HETATM    9  C8  UNL     1      23.384  -0.800  53.208  1.00  0.00     0.026 C 
HETATM   10  C9  UNL     1      22.198  -0.052  52.588  1.00  0.00     0.004 C 
HETATM   11  C10 UNL     1      21.547   0.943  53.496  1.00  0.00     0.027 C 
HETATM   12  C11 UNL     1      20.591   1.787  52.608  1.00  0.00     0.175 C 
HETATM   13  O2  UNL     1      21.371   2.422  51.630  1.00  0.00    -0.351 OA
HETATM   14  C12 UNL     1      21.040   3.249  50.614  1.00  0.00     0.076 A 
HETATM   15  C13 UNL     1      20.066   2.722  49.798  1.00  0.00     0.037 A 
HETATM   16  C14 UNL     1      19.534   3.339  48.684  1.00  0.00     0.003 A 
HETATM   17  C15 UNL     1      20.030   4.608  48.358  1.00  0.00     0.001 A 
HETATM   18  C16 UNL     1      21.009   5.122  49.189  1.00  0.00     0.011 A 
HETATM   19  C17 UNL     1      21.551   4.494  50.328  1.00  0.00    -0.007 A 
HETATM   20  C18 UNL     1      22.572   5.297  51.030  1.00  0.00     0.162 C 
HETATM   21  N3  UNL     1      23.886   4.769  51.130  1.00  0.00    -0.372 N 
HETATM   22  H5  UNL     1      26.303   4.027  51.821  1.00  0.00     0.168 HD
HETATM   23  H25 UNL     1      24.210   4.811  52.121  1.00  0.00     0.161 HD
ENDROOT
BRANCH   1  24
HETATM   24  C2  UNL     1      26.772   4.134  49.354  1.00  0.00    -0.023 C 
HETATM   25  C1  UNL     1      27.663   4.840  48.623  1.00  0.00     0.031 C 
ENDBRANCH   1  24
TORSDOF 1
ENDMDL
MODEL 2
REMARK VINA RESULT:      -7.5      2.089      3.655
REMARK  1 active torsions:
REMARK  status: ('A' for Active; 'I' for Inactive)
REMARK    1  A    between atoms: C2_2  and  C3_3 
ROOT
HETATM    1  C3  UNL     1      26.034   1.766  51.898  1.00  0.00     0.044 C 
HETATM    2  C4  UNL     1      24.829   1.780  52.416  1.00  0.00     0.101 C 
HETATM    3  N1  UNL     1      24.212   0.616  52.913  1.00  0.00    -0.338 N 
HETATM    4  C5  UNL     1      23.661  -0.514  53.546  1.00  0.00     0.204 C 
HETATM    5  N2  UNL     1      22.573  -0.243  54.044  1.00  0.00    -0.259 NA
HETATM    6  C6  UNL     1      21.522  -0.798  54.769  1.00  0.00     0.317 C 
HETATM    7  O1  UNL     1      20.493  -1.218  53.840  1.00  0.00    -0.370 OA
HETATM    8  C7  UNL     1      20.312  -0.038  53.101  1.00  0.00     0.170 C 
HETATM    9  C8  UNL     1      19.290  -0.085  52.019  1.00  0.00     0.026 C 
HETATM   10  C9  UNL     1      19.500   1.201  51.210  1.00  0.00     0.004 C 
HETATM   11  C10 UNL     1      19.308   2.463  51.991  1.00  0.00     0.027 C 
HETATM   12  C11 UNL     1      19.847   3.616  51.098  1.00  0.00     0.175 C 
HETATM   13  O2  UNL     1      21.206   3.365  50.859  1.00  0.00    -0.351 OA
HETATM   14  C12 UNL     1      22.132   4.040  50.142  1.00  0.00     0.076 A 
HETATM   15  C13 UNL     1      21.729   4.279  48.848  1.00  0.00     0.037 A 
HETATM   16  C14 UNL     1      22.467   4.942  47.889  1.00  0.00     0.003 A 
HETATM   17  C15 UNL     1      23.732   5.411  48.266  1.00  0.00     0.001 A 
HETATM   18  C16 UNL     1      24.120   5.163  49.570  1.00  0.00     0.011 A 
HETATM   19  C17 UNL     1      23.367   4.487  50.551  1.00  0.00    -0.007 A 
HETATM   20  C18 UNL     1      24.037   4.389  51.863  1.00  0.00     0.162 C 
HETATM   21  N3  UNL     1      24.324   3.095  52.373  1.00  0.00    -0.372 N 
HETATM   22  H5  UNL     1      24.722   0.937  53.805  1.00  0.00     0.168 HD
HETATM   23  H25 UNL     1      23.975   3.015  53.353  1.00  0.00     0.161 HD
ENDROOT
BRANCH   1  24
HETATM   24  C2  UNL     1      26.395   0.362  52.019  1.00  0.00    -0.023 C 
HETATM   25  C1  UNL     1      27.533   0.118  52.706  1.00  0.00     0.031 C 
ENDBRANCH   1  24
TORSDOF 1
ENDMDL
MODEL 3
REMARK VINA RESULT:      -7.3      1.740      2.296
REMARK  1 active torsions:
REMARK  status: ('A' for Active; 'I' for Inactive)
REMARK    1  A    between atoms: C2_2  and  C3_3 
ROOT
HETATM    1  C3  UNL     1      26.357   6.057  49.136  1.00  0.00     0.044 C 
HETATM    2  C4  UNL     1      25.761   5.404  50.105  1.00  0.00     0.101 C 
HETATM    3  N1  UNL     1      26.111   4.084  50.449  1.00  0.00    -0.338 N 
HETATM    4  C5  UNL     1      26.565   2.827  50.889  1.00  0.00     0.204 C 
HETATM    5  N2  UNL     1      25.924   2.454  51.867  1.00  0.00    -0.259 NA
HETATM    6  C6  UNL     1      25.806   1.405  52.775  1.00  0.00     0.317 C 
HETATM    7  O1  UNL     1      24.770   0.507  52.309  1.00  0.00    -0.370 OA
HETATM    8  C7  UNL     1      23.712   1.410  52.113  1.00  0.00     0.170 C 
HETATM    9  C8  UNL     1      22.430   0.831  51.625  1.00  0.00     0.026 C 
HETATM   10  C9  UNL     1      21.568   2.036  51.231  1.00  0.00     0.004 C 
HETATM   11  C10 UNL     1      21.268   2.978  52.354  1.00  0.00     0.027 C 
HETATM   12  C11 UNL     1      20.658   4.253  51.705  1.00  0.00     0.175 C 
HETATM   13  O2  UNL     1      21.620   4.786  50.835  1.00  0.00    -0.351 OA
HETATM   14  C12 UNL     1      21.597   5.867  50.024  1.00  0.00     0.076 A 
HETATM   15  C13 UNL     1      20.517   5.868  49.172  1.00  0.00     0.037 A 
HETATM   16  C14 UNL     1      20.237   6.840  48.234  1.00  0.00     0.003 A 
HETATM   17  C15 UNL     1      21.130   7.917  48.143  1.00  0.00     0.001 A 
HETATM   18  C16 UNL     1      22.209   7.899  49.007  1.00  0.00     0.011 A 
HETATM   19  C17 UNL     1      22.495   6.907  49.967  1.00  0.00    -0.007 A 
HETATM   20  C18 UNL     1      23.713   7.170  50.760  1.00  0.00     0.162 C 
HETATM   21  N3  UNL     1      24.777   6.233  50.681  1.00  0.00    -0.372 N 
HETATM   22  H5  UNL     1      26.802   4.617  51.079  1.00  0.00     0.168 HD
HETATM   23  H25 UNL     1      25.081   5.961  51.641  1.00  0.00     0.161 HD
ENDROOT
BRANCH   1  24
HETATM   24  C2  UNL     1      27.319   5.073  48.663  1.00  0.00    -0.023 C 
HETATM   25  C1  UNL     1      28.524   5.572  48.310  1.00  0.00     0.031 C 
ENDBRANCH   1  24
TORSDOF 1
ENDMDL
MODEL 4
REMARK VINA RESULT:      -7.3      7.421     12.066
REMARK  1 active torsions:
REMARK  status: ('A' for Active; 'I' for Inactive)
REMARK    1  A    between atoms: C2_2  and  C3_3 
ROOT
HETATM    1  C3  UNL     1      28.563   6.135  48.315  1.00  0.00     0.044 C 
HETATM    2  C4  UNL     1      29.442   7.087  48.520  1.00  0.00     0.101 C 
HETATM    3  N1  UNL     1      29.117   8.451  48.387  1.00  0.00    -0.338 N 
HETATM    4  C5  UNL     1      28.752   9.810  48.406  1.00  0.00     0.204 C 
HETATM    5  N2  UNL     1      29.710  10.511  48.715  1.00  0.00    -0.259 NA
HETATM    6  C6  UNL     1      30.088  11.835  48.924  1.00  0.00     0.317 C 
HETATM    7  O1  UNL     1      30.678  12.343  47.702  1.00  0.00    -0.370 OA
HETATM    8  C7  UNL     1      31.640  11.353  47.446  1.00  0.00     0.170 C 
HETATM    9  C8  UNL     1      32.477  11.544  46.230  1.00  0.00     0.026 C 
HETATM   10  C9  UNL     1      33.218  10.215  46.038  1.00  0.00     0.004 C 
HETATM   11  C10 UNL     1      34.110   9.831  47.176  1.00  0.00     0.027 C 
HETATM   12  C11 UNL     1      34.521   8.352  46.931  1.00  0.00     0.175 C 
HETATM   13  O2  UNL     1      33.348   7.583  46.922  1.00  0.00    -0.351 OA
HETATM   14  C12 UNL     1      33.143   6.260  46.738  1.00  0.00     0.076 A 
HETATM   15  C13 UNL     1      33.713   5.791  45.577  1.00  0.00     0.037 A 
HETATM   16  C14 UNL     1      33.664   4.487  45.130  1.00  0.00     0.003 A 
HETATM   17  C15 UNL     1      32.974   3.564  45.927  1.00  0.00     0.001 A 
HETATM   18  C16 UNL     1      32.407   4.053  47.090  1.00  0.00     0.011 A 
HETATM   19  C17 UNL     1      32.458   5.384  47.548  1.00  0.00    -0.007 A 
HETATM   20  C18 UNL     1      31.774   5.604  48.839  1.00  0.00     0.162 C 
HETATM   21  N3  UNL     1      30.678   6.506  48.869  1.00  0.00    -0.372 N 
HETATM   22  H5  UNL     1      28.860   8.310  49.424  1.00  0.00     0.168 HD
HETATM   23  H25 UNL     1      30.807   7.195  49.641  1.00  0.00     0.161 HD
ENDROOT
BRANCH   1  24
HETATM   24  C2  UNL     1      27.373   6.898  47.971  1.00  0.00    -0.023 C 
HETATM   25  C1  UNL     1      26.230   6.474  48.555  1.00  0.00     0.031 C 
ENDBRANCH   1  24
TORSDOF 1
ENDMDL
MODEL 5
REMARK VINA RESULT:      -6.8      5.744      9.642
REMARK  1 active torsions:
REMARK  status: ('A' for Active; 'I' for Inactive)
REMARK    1  A    between atoms: C2_2  and  C3_3 
ROOT
HETATM    1  C3  UNL     1      31.319   6.178  48.275  1.00  0.00     0.044 C 
HETATM    2  C4  UNL     1      30.155   6.603  48.706  1.00  0.00     0.101 C 
HETATM    3  N1  UNL     1      28.979   5.841  48.568  1.00  0.00    -0.338 N 
HETATM    4  C5  UNL     1      27.839   5.016  48.568  1.00  0.00     0.204 C 
HETATM    5  N2  UNL     1      26.895   5.584  49.108  1.00  0.00    -0.259 NA
HETATM    6  C6  UNL     1      25.556   5.416  49.452  1.00  0.00     0.317 C 
HETATM    7  O1  UNL     1      24.736   5.999  48.409  1.00  0.00    -0.370 OA
HETATM    8  C7  UNL     1      25.300   7.282  48.322  1.00  0.00     0.170 C 
HETATM    9  C8  UNL     1      24.693   8.204  47.324  1.00  0.00     0.026 C 
HETATM   10  C9  UNL     1      25.656   9.394  47.236  1.00  0.00     0.004 C 
HETATM   11  C10 UNL     1      25.843  10.138  48.520  1.00  0.00     0.027 C 
HETATM   12  C11 UNL     1      27.052  11.090  48.303  1.00  0.00     0.175 C 
HETATM   13  O2  UNL     1      28.169  10.295  48.007  1.00  0.00    -0.351 OA
HETATM   14  C12 UNL     1      29.451  10.615  47.725  1.00  0.00     0.076 A 
HETATM   15  C13 UNL     1      29.556  11.520  46.694  1.00  0.00     0.037 A 
HETATM   16  C14 UNL     1      30.737  12.026  46.189  1.00  0.00     0.003 A 
HETATM   17  C15 UNL     1      31.927  11.578  46.776  1.00  0.00     0.001 A 
HETATM   18  C16 UNL     1      31.802  10.669  47.811  1.00  0.00     0.011 A 
HETATM   19  C17 UNL     1      30.597  10.154  48.329  1.00  0.00    -0.007 A 
HETATM   20  C18 UNL     1      30.779   9.210  49.451  1.00  0.00     0.162 C 
HETATM   21  N3  UNL     1      30.316   7.878  49.285  1.00  0.00    -0.372 N 
HETATM   22  H5  UNL     1      29.321   5.465  49.518  1.00  0.00     0.168 HD
HETATM   23  H25 UNL     1      29.721   7.606  50.098  1.00  0.00     0.161 HD
ENDROOT
BRANCH   1  24
HETATM   24  C2  UNL     1      30.974   4.879  47.718  1.00  0.00    -0.023 C 
HETATM   25  C1  UNL     1      32.020   4.149  47.274  1.00  0.00     0.031 C 
ENDBRANCH   1  24
TORSDOF 1
ENDMDL
MODEL 6
REMARK VINA RESULT:      -6.7      2.990      7.322
REMARK  1 active torsions:
REMARK  status: ('A' for Active; 'I' for Inactive)
REMARK    1  A    between atoms: C2_2  and  C3_3 
ROOT
HETATM    1  C3  UNL     1      18.356   0.253  51.354  1.00  0.00     0.044 C 
HETATM    2  C4  UNL     1      18.962   1.401  51.167  1.00  0.00     0.101 C 
HETATM    3  N1  UNL     1      18.891   2.097  49.944  1.00  0.00    -0.338 N 
HETATM    4  C5  UNL     1      18.693   2.862  48.780  1.00  0.00     0.204 C 
HETATM    5  N2  UNL     1      19.276   3.939  48.866  1.00  0.00    -0.259 NA
HETATM    6  C6  UNL     1      19.522   5.120  48.170  1.00  0.00     0.317 C 
HETATM    7  O1  UNL     1      20.790   4.992  47.481  1.00  0.00    -0.370 OA
HETATM    8  C7  UNL     1      21.623   4.596  48.540  1.00  0.00     0.170 C 
HETATM    9  C8  UNL     1      23.055   4.367  48.205  1.00  0.00     0.026 C 
HETATM   10  C9  UNL     1      23.653   3.682  49.440  1.00  0.00     0.004 C 
HETATM   11  C10 UNL     1      23.582   4.494  50.695  1.00  0.00     0.027 C 
HETATM   12  C11 UNL     1      23.952   3.533  51.859  1.00  0.00     0.175 C 
HETATM   13  O2  UNL     1      23.008   2.495  51.868  1.00  0.00    -0.351 OA
HETATM   14  C12 UNL     1      22.878   1.406  52.657  1.00  0.00     0.076 A 
HETATM   15  C13 UNL     1      24.026   0.648  52.708  1.00  0.00     0.037 A 
HETATM   16  C14 UNL     1      24.185  -0.517  53.429  1.00  0.00     0.003 A 
HETATM   17  C15 UNL     1      23.084  -0.966  54.170  1.00  0.00     0.001 A 
HETATM   18  C16 UNL     1      21.939  -0.193  54.107  1.00  0.00     0.011 A 
HETATM   19  C17 UNL     1      21.776   0.999  53.372  1.00  0.00    -0.007 A 
HETATM   20  C18 UNL     1      20.441   1.615  53.513  1.00  0.00     0.162 C 
HETATM   21  N3  UNL     1      19.645   1.759  52.347  1.00  0.00    -0.372 N 
HETATM   22  H5  UNL     1      18.022   2.507  50.430  1.00  0.00     0.168 HD
HETATM   23  H25 UNL     1      19.296   2.740  52.275  1.00  0.00     0.161 HD
ENDROOT
BRANCH   1  24
HETATM   24  C2  UNL     1      17.717   0.039  50.064  1.00  0.00    -0.023 C 
HETATM   25  C1  UNL     1      16.487  -0.518  50.117  1.00  0.00     0.031 C 
ENDBRANCH   1  24
TORSDOF 1
ENDMDL
MODEL 7
REMARK VINA RESULT:      -6.7      2.529      6.546
REMARK  1 active torsions:
REMARK  status: ('A' for Active; 'I' for Inactive)
REMARK    1  A    between atoms: C2_2  and  C3_3 
ROOT
HETATM    1  C3  UNL     1      22.754   0.012  53.442  1.00  0.00     0.044 C 
HETATM    2  C4  UNL     1      21.988   0.939  52.917  1.00  0.00     0.101 C 
HETATM    3  N1  UNL     1      20.710   0.652  52.398  1.00  0.00    -0.338 N 
HETATM    4  C5  UNL     1      19.379   0.393  52.024  1.00  0.00     0.204 C 
HETATM    5  N2  UNL     1      18.825   1.424  51.655  1.00  0.00    -0.259 NA
HETATM    6  C6  UNL     1      17.613   1.916  51.176  1.00  0.00     0.317 C 
HETATM    7  O1  UNL     1      17.672   1.956  49.729  1.00  0.00    -0.370 OA
HETATM    8  C7  UNL     1      18.865   2.673  49.537  1.00  0.00     0.170 C 
HETATM    9  C8  UNL     1      19.264   2.924  48.125  1.00  0.00     0.026 C 
HETATM   10  C9  UNL     1      20.703   3.451  48.202  1.00  0.00     0.004 C 
HETATM   11  C10 UNL     1      20.858   4.722  48.975  1.00  0.00     0.027 C 
HETATM   12  C11 UNL     1      22.385   4.922  49.188  1.00  0.00     0.175 C 
HETATM   13  O2  UNL     1      22.858   3.820  49.916  1.00  0.00    -0.351 OA
HETATM   14  C12 UNL     1      24.095   3.495  50.351  1.00  0.00     0.076 A 
HETATM   15  C13 UNL     1      25.030   3.498  49.341  1.00  0.00     0.037 A 
HETATM   16  C14 UNL     1      26.370   3.203  49.489  1.00  0.00     0.003 A 
HETATM   17  C15 UNL     1      26.814   2.873  50.776  1.00  0.00     0.001 A 
HETATM   18  C16 UNL     1      25.861   2.875  51.778  1.00  0.00     0.011 A 
HETATM   19  C17 UNL     1      24.493   3.177  51.629  1.00  0.00    -0.007 A 
HETATM   20  C18 UNL     1      23.722   3.115  52.887  1.00  0.00     0.162 C 
HETATM   21  N3  UNL     1      22.658   2.178  52.973  1.00  0.00    -0.372 N 
HETATM   22  H5  UNL     1      20.443   0.852  53.422  1.00  0.00     0.168 HD
HETATM   23  H25 UNL     1      21.793   2.654  53.309  1.00  0.00     0.161 HD
ENDROOT
BRANCH   1  24
HETATM   24  C2  UNL     1      21.924  -1.175  53.302  1.00  0.00    -0.023 C 
HETATM   25  C1  UNL     1      21.653  -1.825  54.454  1.00  0.00     0.031 C 
ENDBRANCH   1  24
TORSDOF 1
ENDMDL
MODEL 8
REMARK VINA RESULT:      -6.6      2.110      5.689
REMARK  1 active torsions:
REMARK  status: ('A' for Active; 'I' for Inactive)
REMARK    1  A    between atoms: C2_2  and  C3_3 
ROOT
HETATM    1  C3  UNL     1      25.280   6.486  50.184  1.00  0.00     0.044 C 
HETATM    2  C4  UNL     1      24.259   5.714  49.896  1.00  0.00     0.101 C 
HETATM    3  N1  UNL     1      22.936   6.197  49.869  1.00  0.00    -0.338 N 
HETATM    4  C5  UNL     1      21.639   6.714  49.691  1.00  0.00     0.204 C 
HETATM    5  N2  UNL     1      20.868   5.830  49.328  1.00  0.00    -0.259 NA
HETATM    6  C6  UNL     1      19.539   5.598  48.983  1.00  0.00     0.317 C 
HETATM    7  O1  UNL     1      18.837   5.116  50.155  1.00  0.00    -0.370 OA
HETATM    8  C7  UNL     1      19.675   4.057  50.542  1.00  0.00     0.170 C 
HETATM    9  C8  UNL     1      19.257   3.292  51.749  1.00  0.00     0.026 C 
HETATM   10  C9  UNL     1      20.462   2.413  52.105  1.00  0.00     0.004 C 
HETATM   11  C10 UNL     1      20.858   1.441  51.039  1.00  0.00     0.027 C 
HETATM   12  C11 UNL     1      22.244   0.874  51.456  1.00  0.00     0.175 C 
HETATM   13  O2  UNL     1      23.140   1.951  51.523  1.00  0.00    -0.351 OA
HETATM   14  C12 UNL     1      24.450   2.011  51.847  1.00  0.00     0.076 A 
HETATM   15  C13 UNL     1      24.722   1.434  53.066  1.00  0.00     0.037 A 
HETATM   16  C14 UNL     1      25.968   1.351  53.654  1.00  0.00     0.003 A 
HETATM   17  C15 UNL     1      27.046   1.902  52.948  1.00  0.00     0.001 A 
HETATM   18  C16 UNL     1      26.754   2.478  51.725  1.00  0.00     0.011 A 
HETATM   19  C17 UNL     1      25.482   2.562  51.123  1.00  0.00    -0.007 A 
HETATM   20  C18 UNL     1      25.484   3.218  49.800  1.00  0.00     0.162 C 
HETATM   21  N3  UNL     1      24.726   4.408  49.644  1.00  0.00    -0.372 N 
HETATM   22  H5  UNL     1      23.217   6.398  48.849  1.00  0.00     0.168 HD
HETATM   23  H25 UNL     1      24.113   4.330  48.803  1.00  0.00     0.161 HD
ENDROOT
BRANCH   1  24
HETATM   24  C2  UNL     1      24.629   7.768  50.413  1.00  0.00    -0.023 C 
HETATM   25  C1  UNL     1      25.336   8.849  50.019  1.00  0.00     0.031 C 
ENDBRANCH   1  24
TORSDOF 1
ENDMDL
MODEL 9
REMARK VINA RESULT:      -6.6      9.921     12.845
REMARK  1 active torsions:
REMARK  status: ('A' for Active; 'I' for Inactive)
REMARK    1  A    between atoms: C2_2  and  C3_3 
ROOT
HETATM    1  C3  UNL     1      35.136   8.595  43.906  1.00  0.00     0.044 C 
HETATM    2  C4  UNL     1      33.955   8.637  44.475  1.00  0.00     0.101 C 
HETATM    3  N1  UNL     1      33.487   9.779  45.152  1.00  0.00    -0.338 N 
HETATM    4  C5  UNL     1      32.961  10.968  45.691  1.00  0.00     0.204 C 
HETATM    5  N2  UNL     1      31.809  10.796  46.075  1.00  0.00    -0.259 NA
HETATM    6  C6  UNL     1      30.733  11.452  46.669  1.00  0.00     0.317 C 
HETATM    7  O1  UNL     1      30.775  11.204  48.096  1.00  0.00    -0.370 OA
HETATM    8  C7  UNL     1      30.861   9.803  48.115  1.00  0.00     0.170 C 
HETATM    9  C8  UNL     1      30.919   9.162  49.457  1.00  0.00     0.026 C 
HETATM   10  C9  UNL     1      31.292   7.699  49.189  1.00  0.00     0.004 C 
HETATM   11  C10 UNL     1      30.308   6.951  48.347  1.00  0.00     0.027 C 
HETATM   12  C11 UNL     1      30.998   5.617  47.948  1.00  0.00     0.175 C 
HETATM   13  O2  UNL     1      32.153   5.939  47.220  1.00  0.00    -0.351 OA
HETATM   14  C12 UNL     1      33.106   5.162  46.658  1.00  0.00     0.076 A 
HETATM   15  C13 UNL     1      33.659   4.273  47.550  1.00  0.00     0.037 A 
HETATM   16  C14 UNL     1      34.653   3.361  47.261  1.00  0.00     0.003 A 
HETATM   17  C15 UNL     1      35.139   3.341  45.947  1.00  0.00     0.001 A 
HETATM   18  C16 UNL     1      34.572   4.241  45.064  1.00  0.00     0.011 A 
HETATM   19  C17 UNL     1      33.555   5.172  45.358  1.00  0.00    -0.007 A 
HETATM   20  C18 UNL     1      33.136   5.991  44.203  1.00  0.00     0.162 C 
HETATM   21  N3  UNL     1      33.309   7.399  44.284  1.00  0.00    -0.372 N 
HETATM   22  H5  UNL     1      33.142  10.011  44.158  1.00  0.00     0.168 HD
HETATM   23  H25 UNL     1      32.418   7.879  44.031  1.00  0.00     0.161 HD
ENDROOT
BRANCH   1  24
HETATM   24  C2  UNL     1      35.653   9.924  44.196  1.00  0.00    -0.023 C 
HETATM   25  C1  UNL     1      36.945  10.125  43.855  1.00  0.00     0.031 C 
ENDBRANCH   1  24
TORSDOF 1
ENDMDL
