MODEL 1
REMARK VINA RESULT:      -7.6      0.000      0.000
REMARK  8 active torsions:
REMARK  status: ('A' for Active; 'I' for Inactive)
REMARK    1  A    between atoms: C2_2  and  C3_3 
REMARK    2  A    between atoms: C2_2  and  C6_8 
REMARK    3  A    between atoms: C3_3  and  N1_4 
REMARK    4  A    between atoms: N1_4  and  C5_6 
REMARK    5  A    between atoms: C5_6  and  O1_7 
REMARK    6  A    between atoms: C6_8  and  C7_10 
REMARK    7  A    between atoms: C10_13  and  C11_14 
REMARK    8  A    between atoms: C11_14  and  C12_15 
ROOT
HETATM    1  C7  UNL     1      24.169  -0.132  53.659  1.00  0.00     0.000 A 
HETATM    2  C8  UNL     1      22.958  -0.535  53.999  1.00  0.00     0.012 A 
HETATM    3  C9  UNL     1      21.866   0.277  53.484  1.00  0.00     0.004 A 
HETATM    4  C10 UNL     1      22.451   1.235  52.788  1.00  0.00    -0.067 A 
HETATM    5  C18 UNL     1      23.915   1.089  52.819  1.00  0.00     0.048 A 
HETATM    6  C19 UNL     1      24.575   2.278  53.464  1.00  0.00     0.020 C 
ENDROOT
BRANCH   1   7
HETATM    7  C6  UNL     1      25.511  -0.616  53.931  1.00  0.00     0.183 C 
HETATM    8  O2  UNL     1      25.832  -0.997  55.110  1.00  0.00    -0.288 OA
BRANCH   7   9
HETATM    9  C2  UNL     1      26.595  -0.726  52.971  1.00  0.00    -0.001 C 
HETATM   10  C1  UNL     1      26.730  -1.892  52.369  1.00  0.00     0.044 C 
BRANCH   9  11
HETATM   11  C3  UNL     1      27.519   0.375  52.653  1.00  0.00     0.313 C 
BRANCH  11  12
HETATM   12  N1  UNL     1      28.065   1.011  53.825  1.00  0.00     0.110 N 
HETATM   13  C4  UNL     1      28.408   2.363  53.474  1.00  0.00     0.313 C 
BRANCH  12  14
HETATM   14  C5  UNL     1      29.220   0.279  54.341  1.00  0.00     0.437 C 
BRANCH  14  15
HETATM   15  O1  UNL     1      30.259   0.308  53.414  1.00  0.00    -0.373 OA
HETATM   16  H10 UNL     1      31.097  -0.066  53.811  1.00  0.00     0.211 HD
ENDBRANCH  14  15
ENDBRANCH  12  14
ENDBRANCH  11  12
ENDBRANCH   9  11
ENDBRANCH   7   9
ENDBRANCH   1   7
BRANCH   4  17
HETATM   17  C11 UNL     1      21.803   2.337  52.051  1.00  0.00     0.073 C 
BRANCH  17  18
HETATM   18  C12 UNL     1      22.102   2.308  50.608  1.00  0.00    -0.054 A 
HETATM   19  C13 UNL     1      22.945   3.102  49.869  1.00  0.00     0.007 A 
HETATM   20  C14 UNL     1      23.098   2.925  48.515  1.00  0.00     0.001 A 
HETATM   21  C15 UNL     1      22.406   1.940  47.848  1.00  0.00     0.000 A 
HETATM   22  C16 UNL     1      21.539   1.108  48.547  1.00  0.00     0.001 A 
HETATM   23  C17 UNL     1      21.405   1.312  49.921  1.00  0.00     0.007 A 
ENDBRANCH  17  18
ENDBRANCH   4  17
TORSDOF 8
ENDMDL
MODEL 2
REMARK VINA RESULT:      -7.2      2.029      2.766
REMARK  8 active torsions:
REMARK  status: ('A' for Active; 'I' for Inactive)
REMARK    1  A    between atoms: C2_2  and  C3_3 
REMARK    2  A    between atoms: C2_2  and  C6_8 
REMARK    3  A    between atoms: C3_3  and  N1_4 
REMARK    4  A    between atoms: N1_4  and  C5_6 
REMARK    5  A    between atoms: C5_6  and  O1_7 
REMARK    6  A    between atoms: C6_8  and  C7_10 
REMARK    7  A    between atoms: C10_13  and  C11_14 
REMARK    8  A    between atoms: C11_14  and  C12_15 
ROOT
HETATM    1  C7  UNL     1      24.357   0.367  53.153  1.00  0.00     0.000 A 
HETATM    2  C8  UNL     1      23.114   0.168  52.752  1.00  0.00     0.012 A 
HETATM    3  C9  UNL     1      22.528   1.257  51.984  1.00  0.00     0.004 A 
HETATM    4  C10 UNL     1      23.474   2.175  51.916  1.00  0.00    -0.067 A 
HETATM    5  C18 UNL     1      24.689   1.732  52.619  1.00  0.00     0.048 A 
HETATM    6  C19 UNL     1      25.025   2.645  53.767  1.00  0.00     0.020 C 
ENDROOT
BRANCH   1   7
HETATM    7  C6  UNL     1      25.312  -0.415  53.918  1.00  0.00     0.183 C 
HETATM    8  O2  UNL     1      24.961  -0.962  55.020  1.00  0.00    -0.288 OA
BRANCH   7   9
HETATM    9  C2  UNL     1      26.697  -0.667  53.561  1.00  0.00    -0.001 C 
HETATM   10  C1  UNL     1      26.904  -1.474  52.539  1.00  0.00     0.044 C 
BRANCH   9  11
HETATM   11  C3  UNL     1      27.844  -0.076  54.272  1.00  0.00     0.313 C 
BRANCH  11  12
HETATM   12  N1  UNL     1      28.725   0.663  53.404  1.00  0.00     0.110 N 
HETATM   13  C4  UNL     1      30.053   0.135  53.571  1.00  0.00     0.313 C 
BRANCH  12  14
HETATM   14  C5  UNL     1      28.677   2.096  53.688  1.00  0.00     0.437 C 
BRANCH  14  15
HETATM   15  O1  UNL     1      28.319   2.800  52.541  1.00  0.00    -0.373 OA
HETATM   16  H10 UNL     1      29.072   3.382  52.234  1.00  0.00     0.211 HD
ENDBRANCH  14  15
ENDBRANCH  12  14
ENDBRANCH  11  12
ENDBRANCH   9  11
ENDBRANCH   7   9
ENDBRANCH   1   7
BRANCH   4  17
HETATM   17  C11 UNL     1      23.408   3.488  51.247  1.00  0.00     0.073 C 
BRANCH  17  18
HETATM   18  C12 UNL     1      24.632   3.803  50.488  1.00  0.00    -0.054 A 
HETATM   19  C13 UNL     1      25.619   2.967  50.027  1.00  0.00     0.007 A 
HETATM   20  C14 UNL     1      26.701   3.447  49.328  1.00  0.00     0.001 A 
HETATM   21  C15 UNL     1      26.833   4.791  49.066  1.00  0.00     0.000 A 
HETATM   22  C16 UNL     1      25.862   5.682  49.509  1.00  0.00     0.001 A 
HETATM   23  C17 UNL     1      24.776   5.166  50.215  1.00  0.00     0.007 A 
ENDBRANCH  17  18
ENDBRANCH   4  17
TORSDOF 8
ENDMDL
MODEL 3
REMARK VINA RESULT:      -7.0      2.870      6.171
REMARK  8 active torsions:
REMARK  status: ('A' for Active; 'I' for Inactive)
REMARK    1  A    between atoms: C2_2  and  C3_3 
REMARK    2  A    between atoms: C2_2  and  C6_8 
REMARK    3  A    between atoms: C3_3  and  N1_4 
REMARK    4  A    between atoms: N1_4  and  C5_6 
REMARK    5  A    between atoms: C5_6  and  O1_7 
REMARK    6  A    between atoms: C6_8  and  C7_10 
REMARK    7  A    between atoms: C10_13  and  C11_14 
REMARK    8  A    between atoms: C11_14  and  C12_15 
ROOT
HETATM    1  C7  UNL     1      23.695   2.811  51.866  1.00  0.00     0.000 A 
HETATM    2  C8  UNL     1      24.341   3.271  52.922  1.00  0.00     0.012 A 
HETATM    3  C9  UNL     1      24.987   2.258  53.744  1.00  0.00     0.004 A 
HETATM    4  C10 UNL     1      24.714   1.111  53.149  1.00  0.00    -0.067 A 
HETATM    5  C18 UNL     1      23.899   1.324  51.942  1.00  0.00     0.048 A 
HETATM    6  C19 UNL     1      22.560   0.646  52.054  1.00  0.00     0.020 C 
ENDROOT
BRANCH   1   7
HETATM    7  C6  UNL     1      22.929   3.431  50.798  1.00  0.00     0.183 C 
HETATM    8  O2  UNL     1      21.745   3.863  51.021  1.00  0.00    -0.288 OA
BRANCH   7   9
HETATM    9  C2  UNL     1      23.371   3.631  49.429  1.00  0.00    -0.001 C 
HETATM   10  C1  UNL     1      22.978   2.733  48.547  1.00  0.00     0.044 C 
BRANCH   9  11
HETATM   11  C3  UNL     1      24.214   4.760  49.000  1.00  0.00     0.313 C 
BRANCH  11  12
HETATM   12  N1  UNL     1      25.363   4.959  49.846  1.00  0.00     0.110 N 
HETATM   13  C4  UNL     1      25.805   6.317  49.677  1.00  0.00     0.313 C 
BRANCH  12  14
HETATM   14  C5  UNL     1      26.427   4.005  49.536  1.00  0.00     0.437 C 
BRANCH  14  15
HETATM   15  O1  UNL     1      27.048   3.583  50.709  1.00  0.00    -0.373 OA
HETATM   16  H10 UNL     1      27.273   2.609  50.659  1.00  0.00     0.211 HD
ENDBRANCH  14  15
ENDBRANCH  12  14
ENDBRANCH  11  12
ENDBRANCH   9  11
ENDBRANCH   7   9
ENDBRANCH   1   7
BRANCH   4  17
HETATM   17  C11 UNL     1      25.130  -0.241  53.568  1.00  0.00     0.073 C 
BRANCH  17  18
HETATM   18  C12 UNL     1      26.582  -0.343  53.800  1.00  0.00    -0.054 A 
HETATM   19  C13 UNL     1      27.369   0.285  54.733  1.00  0.00     0.007 A 
HETATM   20  C14 UNL     1      28.724   0.063  54.799  1.00  0.00     0.001 A 
HETATM   21  C15 UNL     1      29.342  -0.802  53.926  1.00  0.00     0.000 A 
HETATM   22  C16 UNL     1      28.592  -1.466  52.961  1.00  0.00     0.001 A 
HETATM   23  C17 UNL     1      27.220  -1.220  52.918  1.00  0.00     0.007 A 
ENDBRANCH  17  18
ENDBRANCH   4  17
TORSDOF 8
ENDMDL
MODEL 4
REMARK VINA RESULT:      -7.0      2.644      3.696
REMARK  8 active torsions:
REMARK  status: ('A' for Active; 'I' for Inactive)
REMARK    1  A    between atoms: C2_2  and  C3_3 
REMARK    2  A    between atoms: C2_2  and  C6_8 
REMARK    3  A    between atoms: C3_3  and  N1_4 
REMARK    4  A    between atoms: N1_4  and  C5_6 
REMARK    5  A    between atoms: C5_6  and  O1_7 
REMARK    6  A    between atoms: C6_8  and  C7_10 
REMARK    7  A    between atoms: C10_13  and  C11_14 
REMARK    8  A    between atoms: C11_14  and  C12_15 
ROOT
HETATM    1  C7  UNL     1      25.165   2.199  52.822  1.00  0.00     0.000 A 
HETATM    2  C8  UNL     1      24.238   3.117  53.029  1.00  0.00     0.012 A 
HETATM    3  C9  UNL     1      23.677   3.715  51.827  1.00  0.00     0.004 A 
HETATM    4  C10 UNL     1      24.304   3.123  50.826  1.00  0.00    -0.067 A 
HETATM    5  C18 UNL     1      25.276   2.136  51.324  1.00  0.00     0.048 A 
HETATM    6  C19 UNL     1      26.680   2.491  50.917  1.00  0.00     0.020 C 
ENDROOT
BRANCH   1   7
HETATM    7  C6  UNL     1      25.974   1.363  53.691  1.00  0.00     0.183 C 
HETATM    8  O2  UNL     1      26.554   1.868  54.715  1.00  0.00    -0.288 OA
BRANCH   7   9
HETATM    9  C2  UNL     1      26.219  -0.060  53.530  1.00  0.00    -0.001 C 
HETATM   10  C1  UNL     1      25.346  -0.874  54.093  1.00  0.00     0.044 C 
BRANCH   9  11
HETATM   11  C3  UNL     1      27.363  -0.613  52.787  1.00  0.00     0.313 C 
BRANCH  11  12
HETATM   12  N1  UNL     1      28.389  -1.147  53.647  1.00  0.00     0.110 N 
HETATM   13  C4  UNL     1      29.285  -0.073  53.982  1.00  0.00     0.313 C 
BRANCH  12  14
HETATM   14  C5  UNL     1      29.095  -2.257  53.010  1.00  0.00     0.437 C 
BRANCH  14  15
HETATM   15  O1  UNL     1      28.596  -3.471  53.475  1.00  0.00    -0.373 OA
HETATM   16  H10 UNL     1      28.991  -4.235  52.965  1.00  0.00     0.211 HD
ENDBRANCH  14  15
ENDBRANCH  12  14
ENDBRANCH  11  12
ENDBRANCH   9  11
ENDBRANCH   7   9
ENDBRANCH   1   7
BRANCH   4  17
HETATM   17  C11 UNL     1      24.116   3.356  49.382  1.00  0.00     0.073 C 
BRANCH  17  18
HETATM   18  C12 UNL     1      24.405   4.747  48.988  1.00  0.00    -0.054 A 
HETATM   19  C13 UNL     1      23.547   5.753  48.619  1.00  0.00     0.007 A 
HETATM   20  C14 UNL     1      24.005   7.004  48.281  1.00  0.00     0.001 A 
HETATM   21  C15 UNL     1      25.350   7.293  48.302  1.00  0.00     0.000 A 
HETATM   22  C16 UNL     1      26.264   6.311  48.669  1.00  0.00     0.001 A 
HETATM   23  C17 UNL     1      25.769   5.052  49.006  1.00  0.00     0.007 A 
ENDBRANCH  17  18
ENDBRANCH   4  17
TORSDOF 8
ENDMDL
MODEL 5
REMARK VINA RESULT:      -7.0      3.149      6.803
REMARK  8 active torsions:
REMARK  status: ('A' for Active; 'I' for Inactive)
REMARK    1  A    between atoms: C2_2  and  C3_3 
REMARK    2  A    between atoms: C2_2  and  C6_8 
REMARK    3  A    between atoms: C3_3  and  N1_4 
REMARK    4  A    between atoms: N1_4  and  C5_6 
REMARK    5  A    between atoms: C5_6  and  O1_7 
REMARK    6  A    between atoms: C6_8  and  C7_10 
REMARK    7  A    between atoms: C10_13  and  C11_14 
REMARK    8  A    between atoms: C11_14  and  C12_15 
ROOT
HETATM    1  C7  UNL     1      24.372   2.522  50.865  1.00  0.00     0.000 A 
HETATM    2  C8  UNL     1      25.449   2.832  50.167  1.00  0.00     0.012 A 
HETATM    3  C9  UNL     1      26.716   2.591  50.840  1.00  0.00     0.004 A 
HETATM    4  C10 UNL     1      26.387   2.105  52.023  1.00  0.00    -0.067 A 
HETATM    5  C18 UNL     1      24.926   2.009  52.165  1.00  0.00     0.048 A 
HETATM    6  C19 UNL     1      24.423   2.873  53.291  1.00  0.00     0.020 C 
ENDROOT
BRANCH   1   7
HETATM    7  C6  UNL     1      22.943   2.589  50.609  1.00  0.00     0.183 C 
HETATM    8  O2  UNL     1      22.344   3.719  50.593  1.00  0.00    -0.288 OA
BRANCH   7   9
HETATM    9  C2  UNL     1      22.064   1.462  50.352  1.00  0.00    -0.001 C 
HETATM   10  C1  UNL     1      21.710   1.267  49.096  1.00  0.00     0.044 C 
BRANCH   9  11
HETATM   11  C3  UNL     1      21.566   0.558  51.402  1.00  0.00     0.313 C 
BRANCH  11  12
HETATM   12  N1  UNL     1      21.387   1.213  52.672  1.00  0.00     0.110 N 
HETATM   13  C4  UNL     1      21.610   0.239  53.706  1.00  0.00     0.313 C 
BRANCH  12  14
HETATM   14  C5  UNL     1      20.061   1.818  52.780  1.00  0.00     0.437 C 
BRANCH  14  15
HETATM   15  O1  UNL     1      20.161   3.206  52.724  1.00  0.00    -0.373 OA
HETATM   16  H10 UNL     1      20.568   3.496  51.857  1.00  0.00     0.211 HD
ENDBRANCH  14  15
ENDBRANCH  12  14
ENDBRANCH  11  12
ENDBRANCH   9  11
ENDBRANCH   7   9
ENDBRANCH   1   7
BRANCH   4  17
HETATM   17  C11 UNL     1      27.295   1.689  53.109  1.00  0.00     0.073 C 
BRANCH  17  18
HETATM   18  C12 UNL     1      27.655   0.261  53.033  1.00  0.00    -0.054 A 
HETATM   19  C13 UNL     1      26.922  -0.807  52.578  1.00  0.00     0.007 A 
HETATM   20  C14 UNL     1      27.431  -2.084  52.584  1.00  0.00     0.001 A 
HETATM   21  C15 UNL     1      28.700  -2.337  53.049  1.00  0.00     0.000 A 
HETATM   22  C16 UNL     1      29.487  -1.292  53.521  1.00  0.00     0.001 A 
HETATM   23  C17 UNL     1      28.943  -0.007  53.503  1.00  0.00     0.007 A 
ENDBRANCH  17  18
ENDBRANCH   4  17
TORSDOF 8
ENDMDL
MODEL 6
REMARK VINA RESULT:      -7.0      2.055      3.189
REMARK  8 active torsions:
REMARK  status: ('A' for Active; 'I' for Inactive)
REMARK    1  A    between atoms: C2_2  and  C3_3 
REMARK    2  A    between atoms: C2_2  and  C6_8 
REMARK    3  A    between atoms: C3_3  and  N1_4 
REMARK    4  A    between atoms: N1_4  and  C5_6 
REMARK    5  A    between atoms: C5_6  and  O1_7 
REMARK    6  A    between atoms: C6_8  and  C7_10 
REMARK    7  A    between atoms: C10_13  and  C11_14 
REMARK    8  A    between atoms: C11_14  and  C12_15 
ROOT
HETATM    1  C7  UNL     1      26.008   2.163  52.119  1.00  0.00     0.000 A 
HETATM    2  C8  UNL     1      26.619   2.372  50.967  1.00  0.00     0.012 A 
HETATM    3  C9  UNL     1      25.916   3.248  50.041  1.00  0.00     0.004 A 
HETATM    4  C10 UNL     1      24.807   3.591  50.672  1.00  0.00    -0.067 A 
HETATM    5  C18 UNL     1      24.745   2.969  52.004  1.00  0.00     0.048 A 
HETATM    6  C19 UNL     1      23.559   2.050  52.128  1.00  0.00     0.020 C 
ENDROOT
BRANCH   1   7
HETATM    7  C6  UNL     1      26.324   1.388  53.307  1.00  0.00     0.183 C 
HETATM    8  O2  UNL     1      26.483   1.973  54.434  1.00  0.00    -0.288 OA
BRANCH   7   9
HETATM    9  C2  UNL     1      26.488  -0.053  53.373  1.00  0.00    -0.001 C 
HETATM   10  C1  UNL     1      25.562  -0.721  54.034  1.00  0.00     0.044 C 
BRANCH   9  11
HETATM   11  C3  UNL     1      27.611  -0.777  52.753  1.00  0.00     0.313 C 
BRANCH  11  12
HETATM   12  N1  UNL     1      28.657  -1.103  53.687  1.00  0.00     0.110 N 
HETATM   13  C4  UNL     1      29.547   0.024  53.763  1.00  0.00     0.313 C 
BRANCH  12  14
HETATM   14  C5  UNL     1      29.364  -2.321  53.295  1.00  0.00     0.437 C 
BRANCH  14  15
HETATM   15  O1  UNL     1      28.507  -3.416  53.369  1.00  0.00    -0.373 OA
HETATM   16  H10 UNL     1      28.992  -4.260  53.137  1.00  0.00     0.211 HD
ENDBRANCH  14  15
ENDBRANCH  12  14
ENDBRANCH  11  12
ENDBRANCH   9  11
ENDBRANCH   7   9
ENDBRANCH   1   7
BRANCH   4  17
HETATM   17  C11 UNL     1      23.730   4.472  50.183  1.00  0.00     0.073 C 
BRANCH  17  18
HETATM   18  C12 UNL     1      23.103   3.970  48.946  1.00  0.00    -0.054 A 
HETATM   19  C13 UNL     1      22.789   2.685  48.579  1.00  0.00     0.007 A 
HETATM   20  C14 UNL     1      22.199   2.405  47.369  1.00  0.00     0.001 A 
HETATM   21  C15 UNL     1      21.902   3.411  46.478  1.00  0.00     0.000 A 
HETATM   22  C16 UNL     1      22.198   4.731  46.800  1.00  0.00     0.001 A 
HETATM   23  C17 UNL     1      22.797   4.984  48.034  1.00  0.00     0.007 A 
ENDBRANCH  17  18
ENDBRANCH   4  17
TORSDOF 8
ENDMDL
MODEL 7
REMARK VINA RESULT:      -6.8      3.411      6.835
REMARK  8 active torsions:
REMARK  status: ('A' for Active; 'I' for Inactive)
REMARK    1  A    between atoms: C2_2  and  C3_3 
REMARK    2  A    between atoms: C2_2  and  C6_8 
REMARK    3  A    between atoms: C3_3  and  N1_4 
REMARK    4  A    between atoms: N1_4  and  C5_6 
REMARK    5  A    between atoms: C5_6  and  O1_7 
REMARK    6  A    between atoms: C6_8  and  C7_10 
REMARK    7  A    between atoms: C10_13  and  C11_14 
REMARK    8  A    between atoms: C11_14  and  C12_15 
ROOT
HETATM    1  C7  UNL     1      23.319   2.032  51.388  1.00  0.00     0.000 A 
HETATM    2  C8  UNL     1      24.564   2.469  51.433  1.00  0.00     0.012 A 
HETATM    3  C9  UNL     1      25.487   1.639  52.193  1.00  0.00     0.004 A 
HETATM    4  C10 UNL     1      24.754   0.634  52.638  1.00  0.00    -0.067 A 
HETATM    5  C18 UNL     1      23.357   0.765  52.195  1.00  0.00     0.048 A 
HETATM    6  C19 UNL     1      22.418   0.896  53.364  1.00  0.00     0.020 C 
ENDROOT
BRANCH   1   7
HETATM    7  C6  UNL     1      22.097   2.516  50.768  1.00  0.00     0.183 C 
HETATM    8  O2  UNL     1      21.461   1.779  49.937  1.00  0.00    -0.288 OA
BRANCH   7   9
HETATM    9  C2  UNL     1      21.474   3.808  50.992  1.00  0.00    -0.001 C 
HETATM   10  C1  UNL     1      20.488   3.841  51.867  1.00  0.00     0.044 C 
BRANCH   9  11
HETATM   11  C3  UNL     1      21.886   5.043  50.304  1.00  0.00     0.313 C 
BRANCH  11  12
HETATM   12  N1  UNL     1      22.414   6.039  51.201  1.00  0.00     0.110 N 
HETATM   13  C4  UNL     1      21.999   7.330  50.721  1.00  0.00     0.313 C 
BRANCH  12  14
HETATM   14  C5  UNL     1      23.869   5.947  51.305  1.00  0.00     0.437 C 
BRANCH  14  15
HETATM   15  O1  UNL     1      24.344   6.874  52.229  1.00  0.00    -0.373 OA
HETATM   16  H10 UNL     1      23.671   7.027  52.954  1.00  0.00     0.211 HD
ENDBRANCH  14  15
ENDBRANCH  12  14
ENDBRANCH  11  12
ENDBRANCH   9  11
ENDBRANCH   7   9
ENDBRANCH   1   7
BRANCH   4  17
HETATM   17  C11 UNL     1      25.195  -0.503  53.468  1.00  0.00     0.073 C 
BRANCH  17  18
HETATM   18  C12 UNL     1      26.634  -0.451  53.785  1.00  0.00    -0.054 A 
HETATM   19  C13 UNL     1      27.296   0.267  54.750  1.00  0.00     0.007 A 
HETATM   20  C14 UNL     1      28.660   0.187  54.898  1.00  0.00     0.001 A 
HETATM   21  C15 UNL     1      29.414  -0.620  54.078  1.00  0.00     0.000 A 
HETATM   22  C16 UNL     1      28.795  -1.369  53.083  1.00  0.00     0.001 A 
HETATM   23  C17 UNL     1      27.410  -1.267  52.957  1.00  0.00     0.007 A 
ENDBRANCH  17  18
ENDBRANCH   4  17
TORSDOF 8
ENDMDL
MODEL 8
REMARK VINA RESULT:      -6.8      3.236      5.104
REMARK  8 active torsions:
REMARK  status: ('A' for Active; 'I' for Inactive)
REMARK    1  A    between atoms: C2_2  and  C3_3 
REMARK    2  A    between atoms: C2_2  and  C6_8 
REMARK    3  A    between atoms: C3_3  and  N1_4 
REMARK    4  A    between atoms: N1_4  and  C5_6 
REMARK    5  A    between atoms: C5_6  and  O1_7 
REMARK    6  A    between atoms: C6_8  and  C7_10 
REMARK    7  A    between atoms: C10_13  and  C11_14 
REMARK    8  A    between atoms: C11_14  and  C12_15 
ROOT
HETATM    1  C7  UNL     1      24.970   2.253  52.855  1.00  0.00     0.000 A 
HETATM    2  C8  UNL     1      24.339   3.403  53.009  1.00  0.00     0.012 A 
HETATM    3  C9  UNL     1      24.112   4.156  51.784  1.00  0.00     0.004 A 
HETATM    4  C10 UNL     1      24.639   3.416  50.826  1.00  0.00    -0.067 A 
HETATM    5  C18 UNL     1      25.218   2.178  51.374  1.00  0.00     0.048 A 
HETATM    6  C19 UNL     1      26.700   2.104  51.124  1.00  0.00     0.020 C 
ENDROOT
BRANCH   1   7
HETATM    7  C6  UNL     1      25.399   1.203  53.762  1.00  0.00     0.183 C 
HETATM    8  O2  UNL     1      26.296   1.439  54.644  1.00  0.00    -0.288 OA
BRANCH   7   9
HETATM    9  C2  UNL     1      24.902  -0.162  53.792  1.00  0.00    -0.001 C 
HETATM   10  C1  UNL     1      25.693  -1.086  53.283  1.00  0.00     0.044 C 
BRANCH   9  11
HETATM   11  C3  UNL     1      23.593  -0.543  54.349  1.00  0.00     0.313 C 
BRANCH  11  12
HETATM   12  N1  UNL     1      22.694  -1.079  53.360  1.00  0.00     0.110 N 
HETATM   13  C4  UNL     1      22.150   0.023  52.614  1.00  0.00     0.313 C 
BRANCH  12  14
HETATM   14  C5  UNL     1      21.640  -1.884  53.976  1.00  0.00     0.437 C 
BRANCH  14  15
HETATM   15  O1  UNL     1      21.118  -1.221  55.083  1.00  0.00    -0.373 OA
HETATM   16  H10 UNL     1      21.794  -1.172  55.818  1.00  0.00     0.211 HD
ENDBRANCH  14  15
ENDBRANCH  12  14
ENDBRANCH  11  12
ENDBRANCH   9  11
ENDBRANCH   7   9
ENDBRANCH   1   7
BRANCH   4  17
HETATM   17  C11 UNL     1      24.685   3.713  49.381  1.00  0.00     0.073 C 
BRANCH  17  18
HETATM   18  C12 UNL     1      25.580   4.840  49.061  1.00  0.00    -0.054 A 
HETATM   19  C13 UNL     1      25.292   6.173  48.907  1.00  0.00     0.007 A 
HETATM   20  C14 UNL     1      26.270   7.090  48.604  1.00  0.00     0.001 A 
HETATM   21  C15 UNL     1      27.580   6.700  48.443  1.00  0.00     0.000 A 
HETATM   22  C16 UNL     1      27.927   5.361  48.588  1.00  0.00     0.001 A 
HETATM   23  C17 UNL     1      26.913   4.454  48.896  1.00  0.00     0.007 A 
ENDBRANCH  17  18
ENDBRANCH   4  17
TORSDOF 8
ENDMDL
MODEL 9
REMARK VINA RESULT:      -6.6      3.781      6.978
REMARK  8 active torsions:
REMARK  status: ('A' for Active; 'I' for Inactive)
REMARK    1  A    between atoms: C2_2  and  C3_3 
REMARK    2  A    between atoms: C2_2  and  C6_8 
REMARK    3  A    between atoms: C3_3  and  N1_4 
REMARK    4  A    between atoms: N1_4  and  C5_6 
REMARK    5  A    between atoms: C5_6  and  O1_7 
REMARK    6  A    between atoms: C6_8  and  C7_10 
REMARK    7  A    between atoms: C10_13  and  C11_14 
REMARK    8  A    between atoms: C11_14  and  C12_15 
ROOT
HETATM    1  C7  UNL     1      24.908   2.732  50.601  1.00  0.00     0.000 A 
HETATM    2  C8  UNL     1      26.219   2.863  50.502  1.00  0.00     0.012 A 
HETATM    3  C9  UNL     1      26.987   2.254  51.578  1.00  0.00     0.004 A 
HETATM    4  C10 UNL     1      26.084   1.721  52.382  1.00  0.00    -0.067 A 
HETATM    5  C18 UNL     1      24.723   1.953  51.873  1.00  0.00     0.048 A 
HETATM    6  C19 UNL     1      23.906   2.770  52.838  1.00  0.00     0.020 C 
ENDROOT
BRANCH   1   7
HETATM    7  C6  UNL     1      23.783   3.160  49.788  1.00  0.00     0.183 C 
HETATM    8  O2  UNL     1      23.043   2.294  49.204  1.00  0.00    -0.288 OA
BRANCH   7   9
HETATM    9  C2  UNL     1      23.372   4.532  49.546  1.00  0.00    -0.001 C 
HETATM   10  C1  UNL     1      22.575   4.733  48.514  1.00  0.00     0.044 C 
BRANCH   9  11
HETATM   11  C3  UNL     1      23.795   5.670  50.378  1.00  0.00     0.313 C 
BRANCH  11  12
HETATM   12  N1  UNL     1      24.433   6.717  49.621  1.00  0.00     0.110 N 
HETATM   13  C4  UNL     1      25.848   6.458  49.617  1.00  0.00     0.313 C 
BRANCH  12  14
HETATM   14  C5  UNL     1      24.129   8.036  50.172  1.00  0.00     0.437 C 
BRANCH  14  15
HETATM   15  O1  UNL     1      24.073   7.974  51.562  1.00  0.00    -0.373 OA
HETATM   16  H10 UNL     1      24.607   7.200  51.903  1.00  0.00     0.211 HD
ENDBRANCH  14  15
ENDBRANCH  12  14
ENDBRANCH  11  12
ENDBRANCH   9  11
ENDBRANCH   7   9
ENDBRANCH   1   7
BRANCH   4  17
HETATM   17  C11 UNL     1      26.322   0.978  53.634  1.00  0.00     0.073 C 
BRANCH  17  18
HETATM   18  C12 UNL     1      27.291  -0.120  53.469  1.00  0.00    -0.054 A 
HETATM   19  C13 UNL     1      28.617  -0.182  53.821  1.00  0.00     0.007 A 
HETATM   20  C14 UNL     1      29.373  -1.306  53.585  1.00  0.00     0.001 A 
HETATM   21  C15 UNL     1      28.822  -2.414  52.983  1.00  0.00     0.000 A 
HETATM   22  C16 UNL     1      27.484  -2.405  52.606  1.00  0.00     0.001 A 
HETATM   23  C17 UNL     1      26.743  -1.251  52.859  1.00  0.00     0.007 A 
ENDBRANCH  17  18
ENDBRANCH   4  17
TORSDOF 8
ENDMDL
