MODEL 1
REMARK VINA RESULT:      -7.1      0.000      0.000
REMARK  10 active torsions:
REMARK  status: ('A' for Active; 'I' for Inactive)
REMARK    1  A    between atoms: C2_2  and  C3_3 
REMARK    2  A    between atoms: C3_3  and  C4_4 
REMARK    3  A    between atoms: C4_4  and  N1_5 
REMARK    4  A    between atoms: N1_5  and  C5_6 
REMARK       I    between atoms: N1_5  and  C11_15 
REMARK    5  A    between atoms: C5_6  and  C6_7 
REMARK    6  A    between atoms: C6_7  and  C10_13 
REMARK    7  A    between atoms: C7_8  and  C8_9 
REMARK    8  A    between atoms: C8_9  and  C9_11 
REMARK    9  A    between atoms: C10_13  and  O1_14 
REMARK       I    between atoms: C11_15  and  N2_17 
REMARK   10  A    between atoms: N2_17  and  C12_18 
ROOT
HETATM    1  N1  UNL     1      23.611   0.702  52.591  1.00  0.00    -0.330 N 
HETATM    2  C11 UNL     1      24.899   0.219  52.932  1.00  0.00     0.323 C 
HETATM    3  O2  UNL     1      24.736  -0.466  53.964  1.00  0.00    -0.247 OA
HETATM    4  N2  UNL     1      26.176   0.373  52.354  1.00  0.00    -0.309 N 
HETATM    5  H19 UNL     1      26.112   0.970  51.511  1.00  0.00     0.170 HD
ENDROOT
BRANCH   1   6
HETATM    6  C4  UNL     1      22.614   0.209  53.553  1.00  0.00     0.128 C 
BRANCH   6   7
HETATM    7  C3  UNL     1      21.222   0.414  53.015  1.00  0.00     0.020 C 
BRANCH   7   8
HETATM    8  C2  UNL     1      20.272  -0.601  53.581  1.00  0.00    -0.003 C 
HETATM    9  C1  UNL     1      21.097  -1.625  54.319  1.00  0.00     0.005 C 
ENDBRANCH   7   8
ENDBRANCH   6   7
ENDBRANCH   1   6
BRANCH   1  10
HETATM   10  C5  UNL     1      23.128   1.541  51.545  1.00  0.00     0.163 C 
BRANCH  10  11
HETATM   11  C6  UNL     1      23.812   2.858  51.409  1.00  0.00    -0.041 C 
HETATM   12  C7  UNL     1      24.637   3.134  50.370  1.00  0.00     0.001 C 
BRANCH  12  13
HETATM   13  C8  UNL     1      25.459   4.293  49.927  1.00  0.00     0.119 C 
HETATM   14 CL1  UNL     1      24.619   5.305  48.749  1.00  0.00    -0.120 Cl
BRANCH  13  15
HETATM   15  C9  UNL     1      26.786   3.799  49.435  1.00  0.00     0.138 C 
HETATM   16 CL2  UNL     1      27.623   5.109  48.531  1.00  0.00    -0.129 Cl
ENDBRANCH  13  15
ENDBRANCH  12  13
BRANCH  11  17
HETATM   17  C10 UNL     1      23.376   3.634  52.576  1.00  0.00     0.200 C 
BRANCH  17  18
HETATM   18  O1  UNL     1      24.473   3.865  53.398  1.00  0.00    -0.397 OA
HETATM   19  H18 UNL     1      25.170   4.402  52.912  1.00  0.00     0.209 HD
ENDBRANCH  17  18
ENDBRANCH  11  17
ENDBRANCH  10  11
ENDBRANCH   1  10
BRANCH   4  20
HETATM   20  C12 UNL     1      27.399  -0.167  52.794  1.00  0.00     0.036 A 
HETATM   21  C13 UNL     1      27.775  -1.486  52.816  1.00  0.00     0.029 A 
HETATM   22  C14 UNL     1      28.991  -1.956  53.259  1.00  0.00     0.002 A 
HETATM   23  C15 UNL     1      29.907  -1.040  53.718  1.00  0.00     0.000 A 
HETATM   24  C16 UNL     1      29.574   0.293  53.715  1.00  0.00     0.002 A 
HETATM   25  C17 UNL     1      28.345   0.714  53.261  1.00  0.00     0.029 A 
ENDBRANCH   4  20
TORSDOF 10
ENDMDL
MODEL 2
REMARK VINA RESULT:      -6.8      1.731      2.230
REMARK  10 active torsions:
REMARK  status: ('A' for Active; 'I' for Inactive)
REMARK    1  A    between atoms: C2_2  and  C3_3 
REMARK    2  A    between atoms: C3_3  and  C4_4 
REMARK    3  A    between atoms: C4_4  and  N1_5 
REMARK    4  A    between atoms: N1_5  and  C5_6 
REMARK       I    between atoms: N1_5  and  C11_15 
REMARK    5  A    between atoms: C5_6  and  C6_7 
REMARK    6  A    between atoms: C6_7  and  C10_13 
REMARK    7  A    between atoms: C7_8  and  C8_9 
REMARK    8  A    between atoms: C8_9  and  C9_11 
REMARK    9  A    between atoms: C10_13  and  O1_14 
REMARK       I    between atoms: C11_15  and  N2_17 
REMARK   10  A    between atoms: N2_17  and  C12_18 
ROOT
HETATM    1  N1  UNL     1      23.611   1.016  52.772  1.00  0.00    -0.330 N 
HETATM    2  C11 UNL     1      24.893   0.437  52.951  1.00  0.00     0.323 C 
HETATM    3  O2  UNL     1      24.686  -0.781  53.137  1.00  0.00    -0.247 OA
HETATM    4  N2  UNL     1      26.201   0.961  52.950  1.00  0.00    -0.309 N 
HETATM    5  H19 UNL     1      26.172   1.982  52.780  1.00  0.00     0.170 HD
ENDROOT
BRANCH   1   6
HETATM    6  C4  UNL     1      22.571  -0.020  52.859  1.00  0.00     0.128 C 
BRANCH   6   7
HETATM    7  C3  UNL     1      21.240   0.602  53.192  1.00  0.00     0.020 C 
BRANCH   7   8
HETATM    8  C2  UNL     1      20.361  -0.368  53.925  1.00  0.00    -0.003 C 
HETATM    9  C1  UNL     1      21.244  -1.486  54.422  1.00  0.00     0.005 C 
ENDBRANCH   7   8
ENDBRANCH   6   7
ENDBRANCH   1   6
BRANCH   1  10
HETATM   10  C5  UNL     1      23.166   2.350  52.541  1.00  0.00     0.163 C 
BRANCH  10  11
HETATM   11  C6  UNL     1      23.544   2.936  51.225  1.00  0.00    -0.041 C 
HETATM   12  C7  UNL     1      23.026   2.478  50.060  1.00  0.00     0.001 C 
BRANCH  12  13
HETATM   13  C8  UNL     1      23.168   2.807  48.616  1.00  0.00     0.119 C 
HETATM   14 CL1  UNL     1      22.970   4.531  48.293  1.00  0.00    -0.120 Cl
BRANCH  13  15
HETATM   15  C9  UNL     1      22.230   1.950  47.819  1.00  0.00     0.138 C 
HETATM   16 CL2  UNL     1      21.319   0.861  48.922  1.00  0.00    -0.129 Cl
ENDBRANCH  13  15
ENDBRANCH  12  13
BRANCH  11  17
HETATM   17  C10 UNL     1      24.505   3.998  51.545  1.00  0.00     0.200 C 
BRANCH  17  18
HETATM   18  O1  UNL     1      25.792   3.523  51.321  1.00  0.00    -0.397 OA
HETATM   19  H18 UNL     1      25.837   3.027  50.447  1.00  0.00     0.209 HD
ENDBRANCH  17  18
ENDBRANCH  11  17
ENDBRANCH  10  11
ENDBRANCH   1  10
BRANCH   4  20
HETATM   20  C12 UNL     1      27.413   0.272  53.141  1.00  0.00     0.036 A 
HETATM   21  C13 UNL     1      27.647  -1.071  53.000  1.00  0.00     0.029 A 
HETATM   22  C14 UNL     1      28.860  -1.691  53.202  1.00  0.00     0.002 A 
HETATM   23  C15 UNL     1      29.928  -0.911  53.576  1.00  0.00     0.000 A 
HETATM   24  C16 UNL     1      29.741   0.442  53.730  1.00  0.00     0.002 A 
HETATM   25  C17 UNL     1      28.508   1.015  53.516  1.00  0.00     0.029 A 
ENDBRANCH   4  20
TORSDOF 10
ENDMDL
MODEL 3
REMARK VINA RESULT:      -6.8      2.895      5.223
REMARK  10 active torsions:
REMARK  status: ('A' for Active; 'I' for Inactive)
REMARK    1  A    between atoms: C2_2  and  C3_3 
REMARK    2  A    between atoms: C3_3  and  C4_4 
REMARK    3  A    between atoms: C4_4  and  N1_5 
REMARK    4  A    between atoms: N1_5  and  C5_6 
REMARK       I    between atoms: N1_5  and  C11_15 
REMARK    5  A    between atoms: C5_6  and  C6_7 
REMARK    6  A    between atoms: C6_7  and  C10_13 
REMARK    7  A    between atoms: C7_8  and  C8_9 
REMARK    8  A    between atoms: C8_9  and  C9_11 
REMARK    9  A    between atoms: C10_13  and  O1_14 
REMARK       I    between atoms: C11_15  and  N2_17 
REMARK   10  A    between atoms: N2_17  and  C12_18 
ROOT
HETATM    1  N1  UNL     1      25.133   3.112  51.570  1.00  0.00    -0.330 N 
HETATM    2  C11 UNL     1      26.176   2.194  51.855  1.00  0.00     0.323 C 
HETATM    3  O2  UNL     1      26.883   2.162  50.826  1.00  0.00    -0.247 OA
HETATM    4  N2  UNL     1      26.496   1.412  52.983  1.00  0.00    -0.309 N 
HETATM    5  H19 UNL     1      25.800   1.572  53.732  1.00  0.00     0.170 HD
ENDROOT
BRANCH   1   6
HETATM    6  C4  UNL     1      25.298   3.661  50.216  1.00  0.00     0.128 C 
BRANCH   6   7
HETATM    7  C3  UNL     1      24.959   5.129  50.201  1.00  0.00     0.020 C 
BRANCH   7   8
HETATM    8  C2  UNL     1      25.854   5.879  49.258  1.00  0.00    -0.003 C 
HETATM    9  C1  UNL     1      26.973   4.946  48.866  1.00  0.00     0.005 C 
ENDBRANCH   7   8
ENDBRANCH   6   7
ENDBRANCH   1   6
BRANCH   1  10
HETATM   10  C5  UNL     1      24.008   3.573  52.312  1.00  0.00     0.163 C 
BRANCH  10  11
HETATM   11  C6  UNL     1      22.787   2.724  52.222  1.00  0.00    -0.041 C 
HETATM   12  C7  UNL     1      22.806   1.404  52.527  1.00  0.00     0.001 C 
BRANCH  12  13
HETATM   13  C8  UNL     1      21.820   0.290  52.551  1.00  0.00     0.119 C 
HETATM   14 CL1  UNL     1      20.752   0.303  51.145  1.00  0.00    -0.120 Cl
BRANCH  13  15
HETATM   15  C9  UNL     1      21.076   0.317  53.853  1.00  0.00     0.138 C 
HETATM   16 CL2  UNL     1      21.870  -0.790  55.027  1.00  0.00    -0.129 Cl
ENDBRANCH  13  15
ENDBRANCH  12  13
BRANCH  11  17
HETATM   17  C10 UNL     1      21.727   3.632  51.770  1.00  0.00     0.200 C 
BRANCH  17  18
HETATM   18  O1  UNL     1      20.660   3.557  52.658  1.00  0.00    -0.397 OA
HETATM   19  H18 UNL     1      20.068   4.364  52.567  1.00  0.00     0.209 HD
ENDBRANCH  17  18
ENDBRANCH  11  17
ENDBRANCH  10  11
ENDBRANCH   1  10
BRANCH   4  20
HETATM   20  C12 UNL     1      27.577   0.526  53.147  1.00  0.00     0.036 A 
HETATM   21  C13 UNL     1      28.857   0.825  53.536  1.00  0.00     0.029 A 
HETATM   22  C14 UNL     1      29.876  -0.090  53.679  1.00  0.00     0.002 A 
HETATM   23  C15 UNL     1      29.600  -1.410  53.414  1.00  0.00     0.000 A 
HETATM   24  C16 UNL     1      28.329  -1.757  53.021  1.00  0.00     0.002 A 
HETATM   25  C17 UNL     1      27.343  -0.805  52.892  1.00  0.00     0.029 A 
ENDBRANCH   4  20
TORSDOF 10
ENDMDL
MODEL 4
REMARK VINA RESULT:      -6.5      2.950      5.272
REMARK  10 active torsions:
REMARK  status: ('A' for Active; 'I' for Inactive)
REMARK    1  A    between atoms: C2_2  and  C3_3 
REMARK    2  A    between atoms: C3_3  and  C4_4 
REMARK    3  A    between atoms: C4_4  and  N1_5 
REMARK    4  A    between atoms: N1_5  and  C5_6 
REMARK       I    between atoms: N1_5  and  C11_15 
REMARK    5  A    between atoms: C5_6  and  C6_7 
REMARK    6  A    between atoms: C6_7  and  C10_13 
REMARK    7  A    between atoms: C7_8  and  C8_9 
REMARK    8  A    between atoms: C8_9  and  C9_11 
REMARK    9  A    between atoms: C10_13  and  O1_14 
REMARK       I    between atoms: C11_15  and  N2_17 
REMARK   10  A    between atoms: N2_17  and  C12_18 
ROOT
HETATM    1  N1  UNL     1      25.415   4.000  50.564  1.00  0.00    -0.330 N 
HETATM    2  C11 UNL     1      26.275   3.037  51.150  1.00  0.00     0.323 C 
HETATM    3  O2  UNL     1      27.089   2.728  50.254  1.00  0.00    -0.247 OA
HETATM    4  N2  UNL     1      26.342   2.452  52.430  1.00  0.00    -0.309 N 
HETATM    5  H19 UNL     1      25.591   2.831  53.032  1.00  0.00     0.170 HD
ENDROOT
BRANCH   1   6
HETATM    6  C4  UNL     1      25.818   4.259  49.173  1.00  0.00     0.128 C 
BRANCH   6   7
HETATM    7  C3  UNL     1      25.624   5.714  48.834  1.00  0.00     0.020 C 
BRANCH   7   8
HETATM    8  C2  UNL     1      26.944   6.410  48.675  1.00  0.00    -0.003 C 
HETATM    9  C1  UNL     1      27.984   5.347  48.427  1.00  0.00     0.005 C 
ENDBRANCH   7   8
ENDBRANCH   6   7
ENDBRANCH   1   6
BRANCH   1  10
HETATM   10  C5  UNL     1      24.285   4.723  51.045  1.00  0.00     0.163 C 
BRANCH  10  11
HETATM   11  C6  UNL     1      23.423   3.994  52.017  1.00  0.00    -0.041 C 
HETATM   12  C7  UNL     1      22.814   2.825  51.702  1.00  0.00     0.001 C 
BRANCH  12  13
HETATM   13  C8  UNL     1      21.918   1.858  52.390  1.00  0.00     0.119 C 
HETATM   14 CL1  UNL     1      22.776   0.419  52.945  1.00  0.00    -0.120 Cl
BRANCH  13  15
HETATM   15  C9  UNL     1      20.755   1.540  51.499  1.00  0.00     0.138 C 
HETATM   16 CL2  UNL     1      21.320   0.587  50.082  1.00  0.00    -0.129 Cl
ENDBRANCH  13  15
ENDBRANCH  12  13
BRANCH  11  17
HETATM   17  C10 UNL     1      23.442   4.817  53.232  1.00  0.00     0.200 C 
BRANCH  17  18
HETATM   18  O1  UNL     1      24.092   6.014  52.954  1.00  0.00    -0.397 OA
HETATM   19  H18 UNL     1      24.969   6.061  53.445  1.00  0.00     0.209 HD
ENDBRANCH  17  18
ENDBRANCH  11  17
ENDBRANCH  10  11
ENDBRANCH   1  10
BRANCH   4  20
HETATM   20  C12 UNL     1      27.259   1.491  52.899  1.00  0.00     0.036 A 
HETATM   21  C13 UNL     1      27.227   0.135  52.703  1.00  0.00     0.029 A 
HETATM   22  C14 UNL     1      28.157  -0.758  53.188  1.00  0.00     0.002 A 
HETATM   23  C15 UNL     1      29.202  -0.261  53.929  1.00  0.00     0.000 A 
HETATM   24  C16 UNL     1      29.275   1.093  54.152  1.00  0.00     0.002 A 
HETATM   25  C17 UNL     1      28.321   1.946  53.645  1.00  0.00     0.029 A 
ENDBRANCH   4  20
TORSDOF 10
ENDMDL
MODEL 5
REMARK VINA RESULT:      -6.5      2.963      6.887
REMARK  10 active torsions:
REMARK  status: ('A' for Active; 'I' for Inactive)
REMARK    1  A    between atoms: C2_2  and  C3_3 
REMARK    2  A    between atoms: C3_3  and  C4_4 
REMARK    3  A    between atoms: C4_4  and  N1_5 
REMARK    4  A    between atoms: N1_5  and  C5_6 
REMARK       I    between atoms: N1_5  and  C11_15 
REMARK    5  A    between atoms: C5_6  and  C6_7 
REMARK    6  A    between atoms: C6_7  and  C10_13 
REMARK    7  A    between atoms: C7_8  and  C8_9 
REMARK    8  A    between atoms: C8_9  and  C9_11 
REMARK    9  A    between atoms: C10_13  and  O1_14 
REMARK       I    between atoms: C11_15  and  N2_17 
REMARK   10  A    between atoms: N2_17  and  C12_18 
ROOT
HETATM    1  N1  UNL     1      26.333   1.935  52.634  1.00  0.00    -0.330 N 
HETATM    2  C11 UNL     1      26.039   2.887  51.625  1.00  0.00     0.323 C 
HETATM    3  O2  UNL     1      27.032   2.886  50.866  1.00  0.00    -0.247 OA
HETATM    4  N2  UNL     1      24.935   3.727  51.378  1.00  0.00    -0.309 N 
HETATM    5  H19 UNL     1      24.215   3.588  52.109  1.00  0.00     0.170 HD
ENDROOT
BRANCH   1   6
HETATM    6  C4  UNL     1      27.649   1.327  52.388  1.00  0.00     0.128 C 
BRANCH   6   7
HETATM    7  C3  UNL     1      28.535   1.493  53.596  1.00  0.00     0.020 C 
BRANCH   7   8
HETATM    8  C2  UNL     1      29.520   0.366  53.700  1.00  0.00    -0.003 C 
HETATM    9  C1  UNL     1      28.798  -0.898  53.300  1.00  0.00     0.005 C 
ENDBRANCH   7   8
ENDBRANCH   6   7
ENDBRANCH   1   6
BRANCH   1  10
HETATM   10  C5  UNL     1      25.627   1.486  53.787  1.00  0.00     0.163 C 
BRANCH  10  11
HETATM   11  C6  UNL     1      24.586   0.450  53.541  1.00  0.00    -0.041 C 
HETATM   12  C7  UNL     1      23.416   0.740  52.922  1.00  0.00     0.001 C 
BRANCH  12  13
HETATM   13  C8  UNL     1      22.193  -0.009  52.524  1.00  0.00     0.119 C 
HETATM   14 CL1  UNL     1      21.571   0.501  50.953  1.00  0.00    -0.120 Cl
BRANCH  13  15
HETATM   15  C9  UNL     1      21.174   0.091  53.618  1.00  0.00     0.138 C 
HETATM   16 CL2  UNL     1      21.559  -1.096  54.914  1.00  0.00    -0.129 Cl
ENDBRANCH  13  15
ENDBRANCH  12  13
BRANCH  11  17
HETATM   17  C10 UNL     1      25.145  -0.789  54.095  1.00  0.00     0.200 C 
BRANCH  17  18
HETATM   18  O1  UNL     1      25.873  -0.481  55.239  1.00  0.00    -0.397 OA
HETATM   19  H18 UNL     1      26.237  -1.319  55.660  1.00  0.00     0.209 HD
ENDBRANCH  17  18
ENDBRANCH  11  17
ENDBRANCH  10  11
ENDBRANCH   1  10
BRANCH   4  20
HETATM   20  C12 UNL     1      24.759   4.644  50.324  1.00  0.00     0.036 A 
HETATM   21  C13 UNL     1      25.468   5.792  50.082  1.00  0.00     0.029 A 
HETATM   22  C14 UNL     1      25.248   6.651  49.030  1.00  0.00     0.002 A 
HETATM   23  C15 UNL     1      24.241   6.346  48.146  1.00  0.00     0.000 A 
HETATM   24  C16 UNL     1      23.503   5.204  48.349  1.00  0.00     0.002 A 
HETATM   25  C17 UNL     1      23.761   4.375  49.417  1.00  0.00     0.029 A 
ENDBRANCH   4  20
TORSDOF 10
ENDMDL
MODEL 6
REMARK VINA RESULT:      -6.4      2.015      6.060
REMARK  10 active torsions:
REMARK  status: ('A' for Active; 'I' for Inactive)
REMARK    1  A    between atoms: C2_2  and  C3_3 
REMARK    2  A    between atoms: C3_3  and  C4_4 
REMARK    3  A    between atoms: C4_4  and  N1_5 
REMARK    4  A    between atoms: N1_5  and  C5_6 
REMARK       I    between atoms: N1_5  and  C11_15 
REMARK    5  A    between atoms: C5_6  and  C6_7 
REMARK    6  A    between atoms: C6_7  and  C10_13 
REMARK    7  A    between atoms: C7_8  and  C8_9 
REMARK    8  A    between atoms: C8_9  and  C9_11 
REMARK    9  A    between atoms: C10_13  and  O1_14 
REMARK       I    between atoms: C11_15  and  N2_17 
REMARK   10  A    between atoms: N2_17  and  C12_18 
ROOT
HETATM    1  N1  UNL     1      24.413   0.808  53.178  1.00  0.00    -0.330 N 
HETATM    2  C11 UNL     1      23.085   0.324  53.058  1.00  0.00     0.323 C 
HETATM    3  O2  UNL     1      23.136  -0.876  53.400  1.00  0.00    -0.247 OA
HETATM    4  N2  UNL     1      21.870   0.919  52.664  1.00  0.00    -0.309 N 
HETATM    5  H19 UNL     1      22.025   1.913  52.420  1.00  0.00     0.170 HD
ENDROOT
BRANCH   1   6
HETATM    6  C4  UNL     1      25.300  -0.261  53.657  1.00  0.00     0.128 C 
BRANCH   6   7
HETATM    7  C3  UNL     1      26.331   0.298  54.602  1.00  0.00     0.020 C 
BRANCH   7   8
HETATM    8  C2  UNL     1      27.716  -0.105  54.188  1.00  0.00    -0.003 C 
HETATM    9  C1  UNL     1      28.540   1.155  54.090  1.00  0.00     0.005 C 
ENDBRANCH   7   8
ENDBRANCH   6   7
ENDBRANCH   1   6
BRANCH   1  10
HETATM   10  C5  UNL     1      25.017   2.074  52.926  1.00  0.00     0.163 C 
BRANCH  10  11
HETATM   11  C6  UNL     1      25.166   2.440  51.489  1.00  0.00    -0.041 C 
HETATM   12  C7  UNL     1      24.116   2.856  50.741  1.00  0.00     0.001 C 
BRANCH  12  13
HETATM   13  C8  UNL     1      23.900   3.287  49.333  1.00  0.00     0.119 C 
HETATM   14 CL1  UNL     1      24.561   4.890  49.009  1.00  0.00    -0.120 Cl
BRANCH  13  15
HETATM   15  C9  UNL     1      22.442   3.175  49.000  1.00  0.00     0.138 C 
HETATM   16 CL2  UNL     1      22.086   1.523  48.385  1.00  0.00    -0.129 Cl
ENDBRANCH  13  15
ENDBRANCH  12  13
BRANCH  11  17
HETATM   17  C10 UNL     1      26.589   2.238  51.193  1.00  0.00     0.200 C 
BRANCH  17  18
HETATM   18  O1  UNL     1      27.163   3.466  50.886  1.00  0.00    -0.397 OA
HETATM   19  H18 UNL     1      26.895   3.759  49.962  1.00  0.00     0.209 HD
ENDBRANCH  17  18
ENDBRANCH  11  17
ENDBRANCH  10  11
ENDBRANCH   1  10
BRANCH   4  20
HETATM   20  C12 UNL     1      20.596   0.324  52.587  1.00  0.00     0.036 A 
HETATM   21  C13 UNL     1      19.975  -0.456  53.528  1.00  0.00     0.029 A 
HETATM   22  C14 UNL     1      18.723  -1.012  53.395  1.00  0.00     0.002 A 
HETATM   23  C15 UNL     1      18.032  -0.776  52.231  1.00  0.00     0.000 A 
HETATM   24  C16 UNL     1      18.616   0.000  51.258  1.00  0.00     0.002 A 
HETATM   25  C17 UNL     1      19.871   0.536  51.438  1.00  0.00     0.029 A 
ENDBRANCH   4  20
TORSDOF 10
ENDMDL
MODEL 7
REMARK VINA RESULT:      -6.3      3.242      5.848
REMARK  10 active torsions:
REMARK  status: ('A' for Active; 'I' for Inactive)
REMARK    1  A    between atoms: C2_2  and  C3_3 
REMARK    2  A    between atoms: C3_3  and  C4_4 
REMARK    3  A    between atoms: C4_4  and  N1_5 
REMARK    4  A    between atoms: N1_5  and  C5_6 
REMARK       I    between atoms: N1_5  and  C11_15 
REMARK    5  A    between atoms: C5_6  and  C6_7 
REMARK    6  A    between atoms: C6_7  and  C10_13 
REMARK    7  A    between atoms: C7_8  and  C8_9 
REMARK    8  A    between atoms: C8_9  and  C9_11 
REMARK    9  A    between atoms: C10_13  and  O1_14 
REMARK       I    between atoms: C11_15  and  N2_17 
REMARK   10  A    between atoms: N2_17  and  C12_18 
ROOT
HETATM    1  N1  UNL     1      23.128   1.969  51.026  1.00  0.00    -0.330 N 
HETATM    2  C11 UNL     1      23.963   2.883  50.335  1.00  0.00     0.323 C 
HETATM    3  O2  UNL     1      23.622   2.805  49.136  1.00  0.00    -0.247 OA
HETATM    4  N2  UNL     1      24.990   3.757  50.745  1.00  0.00    -0.309 N 
HETATM    5  H19 UNL     1      25.129   3.683  51.768  1.00  0.00     0.170 HD
ENDROOT
BRANCH   1   6
HETATM    6  C4  UNL     1      22.204   1.317  50.086  1.00  0.00     0.128 C 
BRANCH   6   7
HETATM    7  C3  UNL     1      20.878   1.058  50.752  1.00  0.00     0.020 C 
BRANCH   7   8
HETATM    8  C2  UNL     1      19.879   2.119  50.393  1.00  0.00    -0.003 C 
HETATM    9  C1  UNL     1      19.927   2.291  48.895  1.00  0.00     0.005 C 
ENDBRANCH   7   8
ENDBRANCH   6   7
ENDBRANCH   1   6
BRANCH   1  10
HETATM   10  C5  UNL     1      23.028   1.580  52.393  1.00  0.00     0.163 C 
BRANCH  10  11
HETATM   11  C6  UNL     1      24.034   0.582  52.853  1.00  0.00    -0.041 C 
HETATM   12  C7  UNL     1      25.366   0.801  52.740  1.00  0.00     0.001 C 
BRANCH  12  13
HETATM   13  C8  UNL     1      26.612   0.059  53.076  1.00  0.00     0.119 C 
HETATM   14 CL1  UNL     1      26.614  -1.584  52.433  1.00  0.00    -0.120 Cl
BRANCH  13  15
HETATM   15  C9  UNL     1      26.831   0.109  54.559  1.00  0.00     0.138 C 
HETATM   16 CL2  UNL     1      28.593   0.036  54.914  1.00  0.00    -0.129 Cl
ENDBRANCH  13  15
ENDBRANCH  12  13
BRANCH  11  17
HETATM   17  C10 UNL     1      23.244  -0.535  53.384  1.00  0.00     0.200 C 
BRANCH  17  18
HETATM   18  O1  UNL     1      22.116  -0.027  54.017  1.00  0.00    -0.397 OA
HETATM   19  H18 UNL     1      22.227   0.956  54.200  1.00  0.00     0.209 HD
ENDBRANCH  17  18
ENDBRANCH  11  17
ENDBRANCH  10  11
ENDBRANCH   1  10
BRANCH   4  20
HETATM   20  C12 UNL     1      25.757   4.630  49.950  1.00  0.00     0.036 A 
HETATM   21  C13 UNL     1      25.509   5.949  49.671  1.00  0.00     0.029 A 
HETATM   22  C14 UNL     1      26.299   6.755  48.883  1.00  0.00     0.002 A 
HETATM   23  C15 UNL     1      27.428   6.204  48.326  1.00  0.00     0.000 A 
HETATM   24  C16 UNL     1      27.718   4.884  48.578  1.00  0.00     0.002 A 
HETATM   25  C17 UNL     1      26.896   4.119  49.373  1.00  0.00     0.029 A 
ENDBRANCH   4  20
TORSDOF 10
ENDMDL
MODEL 8
REMARK VINA RESULT:      -6.3      1.815      2.518
REMARK  10 active torsions:
REMARK  status: ('A' for Active; 'I' for Inactive)
REMARK    1  A    between atoms: C2_2  and  C3_3 
REMARK    2  A    between atoms: C3_3  and  C4_4 
REMARK    3  A    between atoms: C4_4  and  N1_5 
REMARK    4  A    between atoms: N1_5  and  C5_6 
REMARK       I    between atoms: N1_5  and  C11_15 
REMARK    5  A    between atoms: C5_6  and  C6_7 
REMARK    6  A    between atoms: C6_7  and  C10_13 
REMARK    7  A    between atoms: C7_8  and  C8_9 
REMARK    8  A    between atoms: C8_9  and  C9_11 
REMARK    9  A    between atoms: C10_13  and  O1_14 
REMARK       I    between atoms: C11_15  and  N2_17 
REMARK   10  A    between atoms: N2_17  and  C12_18 
ROOT
HETATM    1  N1  UNL     1      23.771   1.346  52.030  1.00  0.00    -0.330 N 
HETATM    2  C11 UNL     1      24.984   0.818  52.540  1.00  0.00     0.323 C 
HETATM    3  O2  UNL     1      24.761   0.574  53.744  1.00  0.00    -0.247 OA
HETATM    4  N2  UNL     1      26.244   0.559  51.965  1.00  0.00    -0.309 N 
HETATM    5  H19 UNL     1      26.237   0.823  50.964  1.00  0.00     0.170 HD
ENDROOT
BRANCH   1   6
HETATM    6  C4  UNL     1      22.751   1.384  53.088  1.00  0.00     0.128 C 
BRANCH   6   7
HETATM    7  C3  UNL     1      21.568   0.534  52.705  1.00  0.00     0.020 C 
BRANCH   7   8
HETATM    8  C2  UNL     1      20.839   0.044  53.922  1.00  0.00    -0.003 C 
HETATM    9  C1  UNL     1      21.638  -1.103  54.491  1.00  0.00     0.005 C 
ENDBRANCH   7   8
ENDBRANCH   6   7
ENDBRANCH   1   6
BRANCH   1  10
HETATM   10  C5  UNL     1      23.379   1.828  50.748  1.00  0.00     0.163 C 
BRANCH  10  11
HETATM   11  C6  UNL     1      23.718   3.251  50.465  1.00  0.00    -0.041 C 
HETATM   12  C7  UNL     1      22.844   4.259  50.705  1.00  0.00     0.001 C 
BRANCH  12  13
HETATM   13  C8  UNL     1      22.839   5.739  50.553  1.00  0.00     0.119 C 
HETATM   14 CL1  UNL     1      24.070   6.524  51.544  1.00  0.00    -0.120 Cl
BRANCH  13  15
HETATM   15  C9  UNL     1      21.457   6.259  50.813  1.00  0.00     0.138 C 
HETATM   16 CL2  UNL     1      20.301   4.884  50.906  1.00  0.00    -0.129 Cl
ENDBRANCH  13  15
ENDBRANCH  12  13
BRANCH  11  17
HETATM   17  C10 UNL     1      25.083   3.216  49.929  1.00  0.00     0.200 C 
BRANCH  17  18
HETATM   18  O1  UNL     1      25.961   3.672  50.906  1.00  0.00    -0.397 OA
HETATM   19  H18 UNL     1      26.830   3.963  50.490  1.00  0.00     0.209 HD
ENDBRANCH  17  18
ENDBRANCH  11  17
ENDBRANCH  10  11
ENDBRANCH   1  10
BRANCH   4  20
HETATM   20  C12 UNL     1      27.389   0.023  52.586  1.00  0.00     0.036 A 
HETATM   21  C13 UNL     1      27.730  -1.298  52.722  1.00  0.00     0.029 A 
HETATM   22  C14 UNL     1      28.868  -1.763  53.342  1.00  0.00     0.002 A 
HETATM   23  C15 UNL     1      29.737  -0.839  53.872  1.00  0.00     0.000 A 
HETATM   24  C16 UNL     1      29.436   0.497  53.759  1.00  0.00     0.002 A 
HETATM   25  C17 UNL     1      28.285   0.913  53.129  1.00  0.00     0.029 A 
ENDBRANCH   4  20
TORSDOF 10
ENDMDL
MODEL 9
REMARK VINA RESULT:      -6.3      3.235      6.552
REMARK  10 active torsions:
REMARK  status: ('A' for Active; 'I' for Inactive)
REMARK    1  A    between atoms: C2_2  and  C3_3 
REMARK    2  A    between atoms: C3_3  and  C4_4 
REMARK    3  A    between atoms: C4_4  and  N1_5 
REMARK    4  A    between atoms: N1_5  and  C5_6 
REMARK       I    between atoms: N1_5  and  C11_15 
REMARK    5  A    between atoms: C5_6  and  C6_7 
REMARK    6  A    between atoms: C6_7  and  C10_13 
REMARK    7  A    between atoms: C7_8  and  C8_9 
REMARK    8  A    between atoms: C8_9  and  C9_11 
REMARK    9  A    between atoms: C10_13  and  O1_14 
REMARK       I    between atoms: C11_15  and  N2_17 
REMARK   10  A    between atoms: N2_17  and  C12_18 
ROOT
HETATM    1  N1  UNL     1      25.755   2.844  51.460  1.00  0.00    -0.330 N 
HETATM    2  C11 UNL     1      26.036   3.800  50.451  1.00  0.00     0.323 C 
HETATM    3  O2  UNL     1      26.685   3.183  49.579  1.00  0.00    -0.247 OA
HETATM    4  N2  UNL     1      25.731   5.168  50.301  1.00  0.00    -0.309 N 
HETATM    5  H19 UNL     1      25.191   5.501  51.119  1.00  0.00     0.170 HD
ENDROOT
BRANCH   1   6
HETATM    6  C4  UNL     1      26.310   1.535  51.086  1.00  0.00     0.128 C 
BRANCH   6   7
HETATM    7  C3  UNL     1      26.941   0.873  52.283  1.00  0.00     0.020 C 
BRANCH   7   8
HETATM    8  C2  UNL     1      26.557  -0.576  52.361  1.00  0.00    -0.003 C 
HETATM    9  C1  UNL     1      25.642  -0.735  53.550  1.00  0.00     0.005 C 
ENDBRANCH   7   8
ENDBRANCH   6   7
ENDBRANCH   1   6
BRANCH   1  10
HETATM   10  C5  UNL     1      25.074   2.915  52.709  1.00  0.00     0.163 C 
BRANCH  10  11
HETATM   11  C6  UNL     1      23.589   2.805  52.640  1.00  0.00    -0.041 C 
HETATM   12  C7  UNL     1      22.953   1.611  52.704  1.00  0.00     0.001 C 
BRANCH  12  13
HETATM   13  C8  UNL     1      21.543   1.139  52.668  1.00  0.00     0.119 C 
HETATM   14 CL1  UNL     1      21.027   0.433  54.201  1.00  0.00    -0.120 Cl
BRANCH  13  15
HETATM   15  C9  UNL     1      21.362   0.210  51.505  1.00  0.00     0.138 C 
HETATM   16 CL2  UNL     1      21.814   1.053  49.981  1.00  0.00    -0.129 Cl
ENDBRANCH  13  15
ENDBRANCH  12  13
BRANCH  11  17
HETATM   17  C10 UNL     1      23.114   4.187  52.501  1.00  0.00     0.200 C 
BRANCH  17  18
HETATM   18  O1  UNL     1      23.870   5.008  53.329  1.00  0.00    -0.397 OA
HETATM   19  H18 UNL     1      24.808   5.098  52.976  1.00  0.00     0.209 HD
ENDBRANCH  17  18
ENDBRANCH  11  17
ENDBRANCH  10  11
ENDBRANCH   1  10
BRANCH   4  20
HETATM   20  C12 UNL     1      26.072   6.022  49.235  1.00  0.00     0.036 A 
HETATM   21  C13 UNL     1      27.316   6.249  48.706  1.00  0.00     0.029 A 
HETATM   22  C14 UNL     1      27.587   7.100  47.658  1.00  0.00     0.002 A 
HETATM   23  C15 UNL     1      26.537   7.781  47.091  1.00  0.00     0.000 A 
HETATM   24  C16 UNL     1      25.271   7.584  47.589  1.00  0.00     0.002 A 
HETATM   25  C17 UNL     1      25.050   6.722  48.639  1.00  0.00     0.029 A 
ENDBRANCH   4  20
TORSDOF 10
ENDMDL
