MODEL 1
REMARK VINA RESULT:      -8.7      0.000      0.000
REMARK  2 active torsions:
REMARK  status: ('A' for Active; 'I' for Inactive)
REMARK       I    between atoms: N2_8  and  C7_9 
REMARK    1  A    between atoms: C7_9  and  C8_11 
REMARK    2  A    between atoms: N4_17  and  C12_18 
ROOT
HETATM    1  C8  UNL     1      25.947   1.541  53.716  1.00  0.00     0.270 C 
HETATM    2  C9  UNL     1      27.430   1.472  53.604  1.00  0.00     0.250 C 
HETATM    3  O2  UNL     1      27.976   2.546  53.974  1.00  0.00    -0.271 OA
HETATM    4  N3  UNL     1      28.231   0.375  53.147  1.00  0.00    -0.357 N 
HETATM    5  C10 UNL     1      27.537  -0.888  53.027  1.00  0.00     0.142 C 
HETATM    6  C11 UNL     1      26.196  -0.553  52.371  1.00  0.00     0.144 C 
HETATM    7  N4  UNL     1      25.471   0.205  53.387  1.00  0.00    -0.357 N 
HETATM    8  H12 UNL     1      29.240   0.574  52.939  1.00  0.00     0.162 HD
ENDROOT
BRANCH   1   9
HETATM    9  C7  UNL     1      25.349   2.530  52.786  1.00  0.00     0.252 C 
HETATM   10  N2  UNL     1      25.121   3.255  51.628  1.00  0.00    -0.342 N 
HETATM   11  C6  UNL     1      25.929   2.981  50.415  1.00  0.00     0.153 C 
HETATM   12  C17 UNL     1      24.132   4.253  51.561  1.00  0.00     0.093 C 
HETATM   13  C5  UNL     1      25.329   3.562  49.167  1.00  0.00    -0.004 C 
HETATM   14  C4  UNL     1      24.611   4.663  49.386  1.00  0.00    -0.079 C 
HETATM   15  C3  UNL     1      23.570   5.213  48.489  1.00  0.00     0.053 C 
HETATM   16  C20 UNL     1      24.859   5.332  50.728  1.00  0.00     0.059 C 
HETATM   17  C2  UNL     1      22.237   5.420  49.225  1.00  0.00     0.120 C 
HETATM   18  N1  UNL     1      22.333   6.005  50.497  1.00  0.00    -0.416 N 
HETATM   19  C1  UNL     1      21.869   7.375  50.576  1.00  0.00     0.143 C 
HETATM   20  C19 UNL     1      22.046   5.330  51.689  1.00  0.00     0.118 C 
HETATM   21  C18 UNL     1      23.293   4.871  52.502  1.00  0.00     0.045 C 
HETATM   22  O1  UNL     1      24.672   2.749  53.822  1.00  0.00    -0.270 OA
ENDBRANCH   1   9
BRANCH   7  23
HETATM   23  C12 UNL     1      24.344  -0.393  54.001  1.00  0.00     0.053 C 
HETATM   24  C13 UNL     1      24.271  -0.943  55.209  1.00  0.00     0.026 C 
HETATM   25  C14 UNL     1      22.992  -1.538  55.719  1.00  0.00     0.179 C 
HETATM   26  N5  UNL     1      22.282  -2.054  54.566  1.00  0.00    -0.282 NA
HETATM   27  C15 UNL     1      22.221  -1.379  53.501  1.00  0.00     0.105 C 
HETATM   28  C16 UNL     1      23.085  -0.420  53.229  1.00  0.00     0.091 C 
HETATM   29 CL1  UNL     1      22.735   0.759  51.997  1.00  0.00    -0.079 Cl
ENDBRANCH   7  23
TORSDOF 2
ENDMDL
MODEL 2
REMARK VINA RESULT:      -8.4      3.060      5.123
REMARK  2 active torsions:
REMARK  status: ('A' for Active; 'I' for Inactive)
REMARK       I    between atoms: N2_8  and  C7_9 
REMARK    1  A    between atoms: C7_9  and  C8_11 
REMARK    2  A    between atoms: N4_17  and  C12_18 
ROOT
HETATM    1  C8  UNL     1      25.159   2.450  50.841  1.00  0.00     0.270 C 
HETATM    2  C9  UNL     1      23.680   2.367  50.694  1.00  0.00     0.250 C 
HETATM    3  O2  UNL     1      23.336   2.275  49.485  1.00  0.00    -0.271 OA
HETATM    4  N3  UNL     1      22.688   2.380  51.728  1.00  0.00    -0.357 N 
HETATM    5  C10 UNL     1      23.192   2.193  53.070  1.00  0.00     0.142 C 
HETATM    6  C11 UNL     1      24.445   3.068  53.157  1.00  0.00     0.144 C 
HETATM    7  N4  UNL     1      25.409   2.416  52.275  1.00  0.00    -0.357 N 
HETATM    8  H12 UNL     1      21.691   2.521  51.432  1.00  0.00     0.162 HD
ENDROOT
BRANCH   1   9
HETATM    9  C7  UNL     1      25.721   3.695  50.264  1.00  0.00     0.252 C 
HETATM   10  N2  UNL     1      25.865   5.038  49.957  1.00  0.00    -0.342 N 
HETATM   11  C6  UNL     1      24.886   6.022  50.479  1.00  0.00     0.153 C 
HETATM   12  C17 UNL     1      26.924   5.508  49.161  1.00  0.00     0.093 C 
HETATM   13  C5  UNL     1      25.371   7.441  50.384  1.00  0.00    -0.004 C 
HETATM   14  C4  UNL     1      26.210   7.647  49.368  1.00  0.00    -0.079 C 
HETATM   15  C3  UNL     1      27.174   8.765  49.253  1.00  0.00     0.053 C 
HETATM   16  C20 UNL     1      26.199   6.566  48.300  1.00  0.00     0.059 C 
HETATM   17  C2  UNL     1      28.603   8.259  49.004  1.00  0.00     0.120 C 
HETATM   18  N1  UNL     1      28.726   7.232  48.056  1.00  0.00    -0.416 N 
HETATM   19  C1  UNL     1      29.320   7.632  46.796  1.00  0.00     0.143 C 
HETATM   20  C19 UNL     1      29.099   5.921  48.370  1.00  0.00     0.118 C 
HETATM   21  C18 UNL     1      27.931   4.891  48.399  1.00  0.00     0.045 C 
HETATM   22  O1  UNL     1      26.543   2.849  49.830  1.00  0.00    -0.270 OA
ENDBRANCH   1   9
BRANCH   7  23
HETATM   23  C12 UNL     1      26.536   1.783  52.854  1.00  0.00     0.053 C 
HETATM   24  C13 UNL     1      27.639   2.355  53.325  1.00  0.00     0.026 C 
HETATM   25  C14 UNL     1      28.751   1.539  53.913  1.00  0.00     0.179 C 
HETATM   26  N5  UNL     1      28.749   0.268  53.217  1.00  0.00    -0.282 NA
HETATM   27  C15 UNL     1      27.661  -0.326  52.977  1.00  0.00     0.105 C 
HETATM   28  C16 UNL     1      26.506   0.309  52.960  1.00  0.00     0.091 C 
HETATM   29 CL1  UNL     1      25.010  -0.576  53.057  1.00  0.00    -0.079 Cl
ENDBRANCH   7  23
TORSDOF 2
ENDMDL
MODEL 3
REMARK VINA RESULT:      -8.0      2.102      4.325
REMARK  2 active torsions:
REMARK  status: ('A' for Active; 'I' for Inactive)
REMARK       I    between atoms: N2_8  and  C7_9 
REMARK    1  A    between atoms: C7_9  and  C8_11 
REMARK    2  A    between atoms: N4_17  and  C12_18 
ROOT
HETATM    1  C8  UNL     1      25.123  -0.065  52.724  1.00  0.00     0.270 C 
HETATM    2  C9  UNL     1      23.895  -0.550  53.413  1.00  0.00     0.250 C 
HETATM    3  O2  UNL     1      22.944  -0.717  52.603  1.00  0.00    -0.271 OA
HETATM    4  N3  UNL     1      23.714  -0.822  54.808  1.00  0.00    -0.357 N 
HETATM    5  C10 UNL     1      24.928  -0.879  55.589  1.00  0.00     0.142 C 
HETATM    6  C11 UNL     1      25.773   0.305  55.112  1.00  0.00     0.144 C 
HETATM    7  N4  UNL     1      26.159  -0.047  53.748  1.00  0.00    -0.357 N 
HETATM    8  H12 UNL     1      22.728  -0.957  55.144  1.00  0.00     0.162 HD
ENDROOT
BRANCH   1   9
HETATM    9  C7  UNL     1      24.960   1.293  52.153  1.00  0.00     0.252 C 
HETATM   10  N2  UNL     1      24.494   2.586  51.982  1.00  0.00    -0.342 N 
HETATM   11  C6  UNL     1      23.474   3.130  52.912  1.00  0.00     0.153 C 
HETATM   12  C17 UNL     1      24.963   3.414  50.948  1.00  0.00     0.093 C 
HETATM   13  C5  UNL     1      23.350   4.625  52.838  1.00  0.00    -0.004 C 
HETATM   14  C4  UNL     1      23.647   5.123  51.638  1.00  0.00    -0.079 C 
HETATM   15  C3  UNL     1      24.038   6.522  51.351  1.00  0.00     0.053 C 
HETATM   16  C20 UNL     1      23.655   4.107  50.507  1.00  0.00     0.059 C 
HETATM   17  C2  UNL     1      25.370   6.595  50.589  1.00  0.00     0.120 C 
HETATM   18  N1  UNL     1      25.515   5.680  49.535  1.00  0.00    -0.416 N 
HETATM   19  C1  UNL     1      25.446   6.262  48.209  1.00  0.00     0.143 C 
HETATM   20  C19 UNL     1      26.421   4.614  49.546  1.00  0.00     0.118 C 
HETATM   21  C18 UNL     1      25.790   3.218  49.830  1.00  0.00     0.045 C 
HETATM   22  O1  UNL     1      25.825   0.818  51.374  1.00  0.00    -0.270 OA
ENDBRANCH   1   9
BRANCH   7  23
HETATM   23  C12 UNL     1      27.517  -0.353  53.487  1.00  0.00     0.053 C 
HETATM   24  C13 UNL     1      28.034  -1.527  53.136  1.00  0.00     0.026 C 
HETATM   25  C14 UNL     1      29.505  -1.688  52.892  1.00  0.00     0.179 C 
HETATM   26  N5  UNL     1      30.179  -0.752  53.769  1.00  0.00    -0.282 NA
HETATM   27  C15 UNL     1      29.742   0.425  53.902  1.00  0.00     0.105 C 
HETATM   28  C16 UNL     1      28.496   0.746  53.612  1.00  0.00     0.091 C 
HETATM   29 CL1  UNL     1      28.043   2.412  53.391  1.00  0.00    -0.079 Cl
ENDBRANCH   7  23
TORSDOF 2
ENDMDL
MODEL 4
REMARK VINA RESULT:      -7.6      2.457      7.084
REMARK  2 active torsions:
REMARK  status: ('A' for Active; 'I' for Inactive)
REMARK       I    between atoms: N2_8  and  C7_9 
REMARK    1  A    between atoms: C7_9  and  C8_11 
REMARK    2  A    between atoms: N4_17  and  C12_18 
ROOT
HETATM    1  C8  UNL     1      25.783   4.715  49.058  1.00  0.00     0.270 C 
HETATM    2  C9  UNL     1      27.165   5.242  48.884  1.00  0.00     0.250 C 
HETATM    3  O2  UNL     1      27.956   4.348  48.480  1.00  0.00    -0.271 OA
HETATM    4  N3  UNL     1      27.637   6.574  49.118  1.00  0.00    -0.357 N 
HETATM    5  C10 UNL     1      26.607   7.573  49.293  1.00  0.00     0.142 C 
HETATM    6  C11 UNL     1      25.566   6.926  50.209  1.00  0.00     0.144 C 
HETATM    7  N4  UNL     1      24.966   5.873  49.393  1.00  0.00    -0.357 N 
HETATM    8  H12 UNL     1      28.677   6.715  49.143  1.00  0.00     0.162 HD
ENDROOT
BRANCH   1   9
HETATM    9  C7  UNL     1      25.688   3.705  50.139  1.00  0.00     0.252 C 
HETATM   10  N2  UNL     1      25.138   2.779  51.011  1.00  0.00    -0.342 N 
HETATM   11  C6  UNL     1      23.686   2.484  50.953  1.00  0.00     0.153 C 
HETATM   12  C17 UNL     1      25.921   2.097  51.959  1.00  0.00     0.093 C 
HETATM   13  C5  UNL     1      23.314   1.221  51.677  1.00  0.00    -0.004 C 
HETATM   14  C4  UNL     1      24.121   0.939  52.699  1.00  0.00    -0.079 C 
HETATM   15  C3  UNL     1      24.301  -0.392  53.320  1.00  0.00     0.053 C 
HETATM   16  C20 UNL     1      24.975   2.101  53.180  1.00  0.00     0.059 C 
HETATM   17  C2  UNL     1      25.779  -0.809  53.356  1.00  0.00     0.120 C 
HETATM   18  N1  UNL     1      26.680   0.191  53.756  1.00  0.00    -0.416 N 
HETATM   19  C1  UNL     1      27.247   0.009  55.077  1.00  0.00     0.143 C 
HETATM   20  C19 UNL     1      27.622   0.778  52.905  1.00  0.00     0.118 C 
HETATM   21  C18 UNL     1      27.252   2.203  52.395  1.00  0.00     0.045 C 
HETATM   22  O1  UNL     1      26.917   3.965  50.175  1.00  0.00    -0.270 OA
ENDBRANCH   1   9
BRANCH   7  23
HETATM   23  C12 UNL     1      23.624   6.028  48.968  1.00  0.00     0.053 C 
HETATM   24  C13 UNL     1      23.157   6.017  47.724  1.00  0.00     0.026 C 
HETATM   25  C14 UNL     1      21.696   6.195  47.438  1.00  0.00     0.179 C 
HETATM   26  N5  UNL     1      21.168   7.055  48.478  1.00  0.00    -0.282 NA
HETATM   27  C15 UNL     1      21.503   6.878  49.682  1.00  0.00     0.105 C 
HETATM   28  C16 UNL     1      22.600   6.225  50.015  1.00  0.00     0.091 C 
HETATM   29 CL1  UNL     1      22.814   5.628  51.636  1.00  0.00    -0.079 Cl
ENDBRANCH   7  23
TORSDOF 2
ENDMDL
MODEL 5
REMARK VINA RESULT:      -7.6      2.300      7.110
REMARK  2 active torsions:
REMARK  status: ('A' for Active; 'I' for Inactive)
REMARK       I    between atoms: N2_8  and  C7_9 
REMARK    1  A    between atoms: C7_9  and  C8_11 
REMARK    2  A    between atoms: N4_17  and  C12_18 
ROOT
HETATM    1  C8  UNL     1      23.678   5.350  50.010  1.00  0.00     0.270 C 
HETATM    2  C9  UNL     1      23.603   6.597  50.821  1.00  0.00     0.250 C 
HETATM    3  O2  UNL     1      24.742   6.968  51.211  1.00  0.00    -0.271 OA
HETATM    4  N3  UNL     1      22.437   7.353  51.170  1.00  0.00    -0.357 N 
HETATM    5  C10 UNL     1      21.238   7.012  50.440  1.00  0.00     0.142 C 
HETATM    6  C11 UNL     1      21.210   5.483  50.397  1.00  0.00     0.144 C 
HETATM    7  N4  UNL     1      22.325   5.121  49.525  1.00  0.00    -0.357 N 
HETATM    8  H12 UNL     1      22.547   8.084  51.916  1.00  0.00     0.162 HD
ENDROOT
BRANCH   1   9
HETATM    9  C7  UNL     1      24.132   4.181  50.801  1.00  0.00     0.252 C 
HETATM   10  N2  UNL     1      24.101   3.122  51.695  1.00  0.00    -0.342 N 
HETATM   11  C6  UNL     1      22.855   2.824  52.440  1.00  0.00     0.153 C 
HETATM   12  C17 UNL     1      25.225   2.308  51.919  1.00  0.00     0.093 C 
HETATM   13  C5  UNL     1      22.858   1.459  53.067  1.00  0.00    -0.004 C 
HETATM   14  C4  UNL     1      24.077   1.027  53.392  1.00  0.00    -0.079 C 
HETATM   15  C3  UNL     1      24.468  -0.383  53.610  1.00  0.00     0.053 C 
HETATM   16  C20 UNL     1      25.144   2.108  53.449  1.00  0.00     0.059 C 
HETATM   17  C2  UNL     1      25.665  -0.783  52.734  1.00  0.00     0.120 C 
HETATM   18  N1  UNL     1      26.712   0.151  52.677  1.00  0.00    -0.416 N 
HETATM   19  C1  UNL     1      27.911  -0.232  53.394  1.00  0.00     0.143 C 
HETATM   20  C19 UNL     1      27.048   0.876  51.528  1.00  0.00     0.118 C 
HETATM   21  C18 UNL     1      26.572   2.359  51.522  1.00  0.00     0.045 C 
HETATM   22  O1  UNL     1      25.180   4.446  50.161  1.00  0.00    -0.270 OA
ENDBRANCH   1   9
BRANCH   7  23
HETATM   23  C12 UNL     1      22.037   4.567  48.254  1.00  0.00     0.053 C 
HETATM   24  C13 UNL     1      22.353   5.060  47.060  1.00  0.00     0.026 C 
HETATM   25  C14 UNL     1      21.974   4.346  45.797  1.00  0.00     0.179 C 
HETATM   26  N5  UNL     1      20.732   3.651  46.067  1.00  0.00    -0.282 NA
HETATM   27  C15 UNL     1      20.573   3.026  47.152  1.00  0.00     0.105 C 
HETATM   28  C16 UNL     1      21.298   3.288  48.222  1.00  0.00     0.091 C 
HETATM   29 CL1  UNL     1      21.366   2.154  49.541  1.00  0.00    -0.079 Cl
ENDBRANCH   7  23
TORSDOF 2
ENDMDL
MODEL 6
REMARK VINA RESULT:      -7.4      3.221      7.271
REMARK  2 active torsions:
REMARK  status: ('A' for Active; 'I' for Inactive)
REMARK       I    between atoms: N2_8  and  C7_9 
REMARK    1  A    between atoms: C7_9  and  C8_11 
REMARK    2  A    between atoms: N4_17  and  C12_18 
ROOT
HETATM    1  C8  UNL     1      20.855   3.182  50.741  1.00  0.00     0.270 C 
HETATM    2  C9  UNL     1      19.659   2.880  51.576  1.00  0.00     0.250 C 
HETATM    3  O2  UNL     1      19.737   3.420  52.712  1.00  0.00    -0.271 OA
HETATM    4  N3  UNL     1      18.516   2.089  51.227  1.00  0.00    -0.357 N 
HETATM    5  C10 UNL     1      18.394   1.766  49.824  1.00  0.00     0.142 C 
HETATM    6  C11 UNL     1      19.802   1.370  49.375  1.00  0.00     0.144 C 
HETATM    7  N4  UNL     1      20.567   2.613  49.432  1.00  0.00    -0.357 N 
HETATM    8  H12 UNL     1      17.870   1.814  52.008  1.00  0.00     0.162 HD
ENDROOT
BRANCH   1   9
HETATM    9  C7  UNL     1      22.098   2.585  51.285  1.00  0.00     0.252 C 
HETATM   10  N2  UNL     1      22.937   1.705  51.949  1.00  0.00    -0.342 N 
HETATM   11  C6  UNL     1      22.370   0.505  52.612  1.00  0.00     0.153 C 
HETATM   12  C17 UNL     1      24.326   1.910  52.013  1.00  0.00     0.093 C 
HETATM   13  C5  UNL     1      23.410  -0.523  52.954  1.00  0.00    -0.004 C 
HETATM   14  C4  UNL     1      24.614  -0.001  53.194  1.00  0.00    -0.079 C 
HETATM   15  C3  UNL     1      25.902  -0.726  53.128  1.00  0.00     0.053 C 
HETATM   16  C20 UNL     1      24.619   1.493  53.471  1.00  0.00     0.059 C 
HETATM   17  C2  UNL     1      26.903  -0.024  52.197  1.00  0.00     0.120 C 
HETATM   18  N1  UNL     1      26.980   1.371  52.334  1.00  0.00    -0.416 N 
HETATM   19  C1  UNL     1      28.190   1.855  52.968  1.00  0.00     0.143 C 
HETATM   20  C19 UNL     1      26.554   2.275  51.355  1.00  0.00     0.118 C 
HETATM   21  C18 UNL     1      25.184   2.959  51.642  1.00  0.00     0.045 C 
HETATM   22  O1  UNL     1      22.563   3.605  50.717  1.00  0.00    -0.270 OA
ENDBRANCH   1   9
BRANCH   7  23
HETATM   23  C12 UNL     1      20.990   3.204  48.216  1.00  0.00     0.053 C 
HETATM   24  C13 UNL     1      21.805   2.689  47.301  1.00  0.00     0.026 C 
HETATM   25  C14 UNL     1      22.157   3.448  46.056  1.00  0.00     0.179 C 
HETATM   26  N5  UNL     1      22.138   4.854  46.404  1.00  0.00    -0.282 NA
HETATM   27  C15 UNL     1      21.211   5.321  47.121  1.00  0.00     0.105 C 
HETATM   28  C16 UNL     1      20.476   4.553  47.903  1.00  0.00     0.091 C 
HETATM   29 CL1  UNL     1      18.961   5.131  48.535  1.00  0.00    -0.079 Cl
ENDBRANCH   7  23
TORSDOF 2
ENDMDL
MODEL 7
REMARK VINA RESULT:      -7.1      3.401      5.443
REMARK  2 active torsions:
REMARK  status: ('A' for Active; 'I' for Inactive)
REMARK       I    between atoms: N2_8  and  C7_9 
REMARK    1  A    between atoms: C7_9  and  C8_11 
REMARK    2  A    between atoms: N4_17  and  C12_18 
ROOT
HETATM    1  C8  UNL     1      22.773   4.518  51.452  1.00  0.00     0.270 C 
HETATM    2  C9  UNL     1      23.469   3.838  52.579  1.00  0.00     0.250 C 
HETATM    3  O2  UNL     1      23.806   4.653  53.479  1.00  0.00    -0.271 OA
HETATM    4  N3  UNL     1      23.767   2.443  52.719  1.00  0.00    -0.357 N 
HETATM    5  C10 UNL     1      23.089   1.570  51.787  1.00  0.00     0.142 C 
HETATM    6  C11 UNL     1      23.185   2.272  50.431  1.00  0.00     0.144 C 
HETATM    7  N4  UNL     1      22.331   3.449  50.567  1.00  0.00    -0.357 N 
HETATM    8  H12 UNL     1      24.442   2.172  53.476  1.00  0.00     0.162 HD
ENDROOT
BRANCH   1   9
HETATM    9  C7  UNL     1      23.658   5.449  50.712  1.00  0.00     0.252 C 
HETATM   10  N2  UNL     1      24.760   5.923  50.018  1.00  0.00    -0.342 N 
HETATM   11  C6  UNL     1      25.907   5.021  49.752  1.00  0.00     0.153 C 
HETATM   12  C17 UNL     1      24.826   7.245  49.546  1.00  0.00     0.093 C 
HETATM   13  C5  UNL     1      26.833   5.546  48.693  1.00  0.00    -0.004 C 
HETATM   14  C4  UNL     1      26.863   6.877  48.626  1.00  0.00    -0.079 C 
HETATM   15  C3  UNL     1      27.307   7.678  47.464  1.00  0.00     0.053 C 
HETATM   16  C20 UNL     1      26.302   7.591  49.845  1.00  0.00     0.059 C 
HETATM   17  C2  UNL     1      26.237   8.692  47.030  1.00  0.00     0.120 C 
HETATM   18  N1  UNL     1      25.616   9.400  48.072  1.00  0.00    -0.416 N 
HETATM   19  C1  UNL     1      25.998  10.794  48.175  1.00  0.00     0.143 C 
HETATM   20  C19 UNL     1      24.274   9.240  48.431  1.00  0.00     0.118 C 
HETATM   21  C18 UNL     1      24.031   8.391  49.714  1.00  0.00     0.045 C 
HETATM   22  O1  UNL     1      22.677   6.200  50.943  1.00  0.00    -0.270 OA
ENDBRANCH   1   9
BRANCH   7  23
HETATM   23  C12 UNL     1      21.120   3.495  49.835  1.00  0.00     0.053 C 
HETATM   24  C13 UNL     1      19.880   3.408  50.307  1.00  0.00     0.026 C 
HETATM   25  C14 UNL     1      18.693   3.476  49.394  1.00  0.00     0.179 C 
HETATM   26  N5  UNL     1      19.105   2.901  48.129  1.00  0.00    -0.282 NA
HETATM   27  C15 UNL     1      20.230   3.188  47.635  1.00  0.00     0.105 C 
HETATM   28  C16 UNL     1      21.218   3.659  48.370  1.00  0.00     0.091 C 
HETATM   29 CL1  UNL     1      22.581   4.440  47.621  1.00  0.00    -0.079 Cl
ENDBRANCH   7  23
TORSDOF 2
ENDMDL
MODEL 8
REMARK VINA RESULT:      -7.1      8.483     11.954
REMARK  2 active torsions:
REMARK  status: ('A' for Active; 'I' for Inactive)
REMARK       I    between atoms: N2_8  and  C7_9 
REMARK    1  A    between atoms: C7_9  and  C8_11 
REMARK    2  A    between atoms: N4_17  and  C12_18 
ROOT
HETATM    1  C8  UNL     1      28.424  10.133  48.784  1.00  0.00     0.270 C 
HETATM    2  C9  UNL     1      27.228   9.730  49.574  1.00  0.00     0.250 C 
HETATM    3  O2  UNL     1      27.519   9.517  50.782  1.00  0.00    -0.271 OA
HETATM    4  N3  UNL     1      25.878   9.576  49.117  1.00  0.00    -0.357 N 
HETATM    5  C10 UNL     1      25.604  10.121  47.807  1.00  0.00     0.142 C 
HETATM    6  C11 UNL     1      26.791   9.702  46.937  1.00  0.00     0.144 C 
HETATM    7  N4  UNL     1      27.918  10.471  47.461  1.00  0.00    -0.357 N 
HETATM    8  H12 UNL     1      25.209   9.088  49.762  1.00  0.00     0.162 HD
ENDROOT
BRANCH   1   9
HETATM    9  C7  UNL     1      29.428   9.048  48.674  1.00  0.00     0.252 C 
HETATM   10  N2  UNL     1      29.962   7.778  48.523  1.00  0.00    -0.342 N 
HETATM   11  C6  UNL     1      29.058   6.618  48.331  1.00  0.00     0.153 C 
HETATM   12  C17 UNL     1      31.348   7.549  48.541  1.00  0.00     0.093 C 
HETATM   13  C5  UNL     1      29.770   5.399  47.817  1.00  0.00    -0.004 C 
HETATM   14  C4  UNL     1      31.047   5.332  48.191  1.00  0.00    -0.079 C 
HETATM   15  C3  UNL     1      32.105   4.536  47.530  1.00  0.00     0.053 C 
HETATM   16  C20 UNL     1      31.421   6.238  49.353  1.00  0.00     0.059 C 
HETATM   17  C2  UNL     1      33.316   5.402  47.151  1.00  0.00     0.120 C 
HETATM   18  N1  UNL     1      33.743   6.309  48.133  1.00  0.00    -0.416 N 
HETATM   19  C1  UNL     1      34.990   5.960  48.784  1.00  0.00     0.143 C 
HETATM   20  C19 UNL     1      33.635   7.698  48.012  1.00  0.00     0.118 C 
HETATM   21  C18 UNL     1      32.473   8.342  48.826  1.00  0.00     0.045 C 
HETATM   22  O1  UNL     1      30.180  10.042  48.835  1.00  0.00    -0.270 OA
ENDBRANCH   1   9
BRANCH   7  23
HETATM   23  C12 UNL     1      28.461  11.506  46.660  1.00  0.00     0.053 C 
HETATM   24  C13 UNL     1      29.023  11.397  45.461  1.00  0.00     0.026 C 
HETATM   25  C14 UNL     1      29.553  12.599  44.737  1.00  0.00     0.179 C 
HETATM   26  N5  UNL     1      30.013  13.527  45.750  1.00  0.00    -0.282 NA
HETATM   27  C15 UNL     1      29.322  13.736  46.785  1.00  0.00     0.105 C 
HETATM   28  C16 UNL     1      28.408  12.880  47.200  1.00  0.00     0.091 C 
HETATM   29 CL1  UNL     1      27.195  13.372  48.347  1.00  0.00    -0.079 Cl
ENDBRANCH   7  23
TORSDOF 2
ENDMDL
MODEL 9
REMARK VINA RESULT:      -7.0      9.147     10.948
REMARK  2 active torsions:
REMARK  status: ('A' for Active; 'I' for Inactive)
REMARK       I    between atoms: N2_8  and  C7_9 
REMARK    1  A    between atoms: C7_9  and  C8_11 
REMARK    2  A    between atoms: N4_17  and  C12_18 
ROOT
HETATM    1  C8  UNL     1      31.964   6.133  47.483  1.00  0.00     0.270 C 
HETATM    2  C9  UNL     1      32.530   5.576  48.742  1.00  0.00     0.250 C 
HETATM    3  O2  UNL     1      31.658   4.963  49.413  1.00  0.00    -0.271 OA
HETATM    4  N3  UNL     1      33.878   5.669  49.221  1.00  0.00    -0.357 N 
HETATM    5  C10 UNL     1      34.847   6.131  48.253  1.00  0.00     0.142 C 
HETATM    6  C11 UNL     1      34.175   7.303  47.534  1.00  0.00     0.144 C 
HETATM    7  N4  UNL     1      33.099   6.688  46.759  1.00  0.00    -0.357 N 
HETATM    8  H12 UNL     1      34.049   5.399  50.221  1.00  0.00     0.162 HD
ENDROOT
BRANCH   1   9
HETATM    9  C7  UNL     1      30.959   7.195  47.728  1.00  0.00     0.252 C 
HETATM   10  N2  UNL     1      30.395   8.372  48.195  1.00  0.00    -0.342 N 
HETATM   11  C6  UNL     1      31.211   9.308  49.006  1.00  0.00     0.153 C 
HETATM   12  C17 UNL     1      29.061   8.716  47.919  1.00  0.00     0.093 C 
HETATM   13  C5  UNL     1      30.600  10.675  49.115  1.00  0.00    -0.004 C 
HETATM   14  C4  UNL     1      29.269  10.669  49.046  1.00  0.00    -0.079 C 
HETATM   15  C3  UNL     1      28.413  11.824  48.692  1.00  0.00     0.053 C 
HETATM   16  C20 UNL     1      28.623   9.312  49.275  1.00  0.00     0.059 C 
HETATM   17  C2  UNL     1      27.463  11.493  47.531  1.00  0.00     0.120 C 
HETATM   18  N1  UNL     1      26.824  10.245  47.608  1.00  0.00    -0.416 N 
HETATM   19  C1  UNL     1      25.410  10.302  47.921  1.00  0.00     0.143 C 
HETATM   20  C19 UNL     1      27.082   9.181  46.737  1.00  0.00     0.118 C 
HETATM   21  C18 UNL     1      27.975   8.049  47.326  1.00  0.00     0.045 C 
HETATM   22  O1  UNL     1      30.281   6.392  47.039  1.00  0.00    -0.270 OA
ENDBRANCH   1   9
BRANCH   7  23
HETATM   23  C12 UNL     1      33.212   6.661  45.348  1.00  0.00     0.053 C 
HETATM   24  C13 UNL     1      33.125   7.685  44.505  1.00  0.00     0.026 C 
HETATM   25  C14 UNL     1      33.270   7.490  43.025  1.00  0.00     0.179 C 
HETATM   26  N5  UNL     1      32.758   6.167  42.726  1.00  0.00    -0.282 NA
HETATM   27  C15 UNL     1      33.049   5.189  43.468  1.00  0.00     0.105 C 
HETATM   28  C16 UNL     1      33.457   5.351  44.712  1.00  0.00     0.091 C 
HETATM   29 CL1  UNL     1      34.249   4.052  45.557  1.00  0.00    -0.079 Cl
ENDBRANCH   7  23
TORSDOF 2
ENDMDL
