MODEL 1
REMARK VINA RESULT:      -7.2      0.000      0.000
REMARK  1 active torsions:
REMARK  status: ('A' for Active; 'I' for Inactive)
REMARK    1  A    between atoms: C7_10  and  C8_11 
ROOT
HETATM    1  O1  UNL     1      20.066   3.626  52.358  1.00  0.00    -0.280 OA
HETATM    2  C1  UNL     1      21.281   3.676  51.941  1.00  0.00     0.219 A 
HETATM    3  C2  UNL     1      22.195   4.758  52.375  1.00  0.00     0.047 C 
HETATM    4  C3  UNL     1      23.465   4.945  52.058  1.00  0.00     0.090 C 
HETATM    5  N1  UNL     1      24.604   4.431  51.300  1.00  0.00    -0.342 N 
HETATM    6  C4  UNL     1      24.001   3.171  51.400  1.00  0.00     0.173 A 
HETATM    7  N2  UNL     1      23.345   3.116  50.190  1.00  0.00    -0.270 NA
HETATM    8  C5  UNL     1      22.499   2.102  49.950  1.00  0.00     0.274 A 
HETATM    9  C6  UNL     1      22.515   1.327  51.068  1.00  0.00    -0.015 A 
HETATM   10  C7  UNL     1      23.086   1.230  52.302  1.00  0.00     0.077 A 
HETATM   11  N4  UNL     1      23.931   2.303  52.455  1.00  0.00    -0.220 NA
HETATM   12  C13 UNL     1      21.342   0.436  50.730  1.00  0.00     0.139 C 
HETATM   13  N5  UNL     1      20.203   1.325  50.459  1.00  0.00    -0.248 NA
HETATM   14  S1  UNL     1      19.978   2.573  51.640  1.00  0.00     0.032 SA
HETATM   15  H3  UNL     1      25.408   4.928  50.932  1.00  0.00     0.167 HD
HETATM   16  H11 UNL     1      19.359   0.847  50.161  1.00  0.00     0.136 HD
ENDROOT
BRANCH  10  17
HETATM   17  C8  UNL     1      23.010   0.302  53.386  1.00  0.00     0.011 A 
HETATM   18  C9  UNL     1      21.957  -0.240  54.042  1.00  0.00     0.017 A 
HETATM   19  C10 UNL     1      22.075  -1.161  55.057  1.00  0.00     0.020 A 
HETATM   20  C11 UNL     1      23.369  -1.507  55.372  1.00  0.00     0.116 A 
HETATM   21  N3  UNL     1      24.466  -1.014  54.767  1.00  0.00    -0.272 NA
HETATM   22  C12 UNL     1      24.285  -0.101  53.767  1.00  0.00     0.130 A 
ENDBRANCH  10  17
TORSDOF 1
ENDMDL
MODEL 2
REMARK VINA RESULT:      -7.2      2.204      3.854
REMARK  1 active torsions:
REMARK  status: ('A' for Active; 'I' for Inactive)
REMARK    1  A    between atoms: C7_10  and  C8_11 
ROOT
HETATM    1  O1  UNL     1      23.881   3.277  49.043  1.00  0.00    -0.280 OA
HETATM    2  C1  UNL     1      22.933   2.710  49.699  1.00  0.00     0.219 A 
HETATM    3  C2  UNL     1      22.041   1.719  49.054  1.00  0.00     0.047 C 
HETATM    4  C3  UNL     1      21.040   1.037  49.583  1.00  0.00     0.090 C 
HETATM    5  N1  UNL     1      20.266   0.785  50.798  1.00  0.00    -0.342 N 
HETATM    6  C4  UNL     1      21.402   1.185  51.511  1.00  0.00     0.173 A 
HETATM    7  N2  UNL     1      21.090   2.506  51.749  1.00  0.00    -0.270 NA
HETATM    8  C5  UNL     1      22.017   3.311  52.293  1.00  0.00     0.274 A 
HETATM    9  C6  UNL     1      23.120   2.537  52.481  1.00  0.00    -0.015 A 
HETATM   10  C7  UNL     1      23.584   1.265  52.319  1.00  0.00     0.077 A 
HETATM   11  N4  UNL     1      22.572   0.521  51.761  1.00  0.00    -0.220 NA
HETATM   12  C13 UNL     1      24.099   3.638  52.822  1.00  0.00     0.139 C 
HETATM   13  N5  UNL     1      24.049   4.603  51.714  1.00  0.00    -0.248 NA
HETATM   14  S1  UNL     1      24.130   3.883  50.140  1.00  0.00     0.032 SA
HETATM   15  H3  UNL     1      19.311   0.458  50.893  1.00  0.00     0.167 HD
HETATM   16  H11 UNL     1      24.624   5.427  51.850  1.00  0.00     0.136 HD
ENDROOT
BRANCH  10  17
HETATM   17  C8  UNL     1      24.809   0.587  52.603  1.00  0.00     0.011 A 
HETATM   18  C9  UNL     1      26.016   0.602  51.991  1.00  0.00     0.017 A 
HETATM   19  C10 UNL     1      27.112  -0.101  52.435  1.00  0.00     0.020 A 
HETATM   20  C11 UNL     1      26.898  -0.841  53.574  1.00  0.00     0.116 A 
HETATM   21  N3  UNL     1      25.730  -0.908  54.240  1.00  0.00    -0.272 NA
HETATM   22  C12 UNL     1      24.676  -0.189  53.750  1.00  0.00     0.130 A 
ENDBRANCH  10  17
TORSDOF 1
ENDMDL
MODEL 3
REMARK VINA RESULT:      -6.8      4.130      6.455
REMARK  1 active torsions:
REMARK  status: ('A' for Active; 'I' for Inactive)
REMARK    1  A    between atoms: C7_10  and  C8_11 
ROOT
HETATM    1  O1  UNL     1      27.492  -1.789  52.256  1.00  0.00    -0.280 OA
HETATM    2  C1  UNL     1      27.852  -0.805  53.000  1.00  0.00     0.219 A 
HETATM    3  C2  UNL     1      29.253  -0.324  53.009  1.00  0.00     0.047 C 
HETATM    4  C3  UNL     1      29.781   0.675  53.695  1.00  0.00     0.090 C 
HETATM    5  N1  UNL     1      29.520   1.745  54.656  1.00  0.00    -0.342 N 
HETATM    6  C4  UNL     1      28.196   1.722  54.202  1.00  0.00     0.173 A 
HETATM    7  N2  UNL     1      27.623   0.910  55.157  1.00  0.00    -0.270 NA
HETATM    8  C5  UNL     1      26.354   0.503  54.994  1.00  0.00     0.274 A 
HETATM    9  C6  UNL     1      25.932   1.051  53.822  1.00  0.00    -0.015 A 
HETATM   10  C7  UNL     1      26.344   1.852  52.798  1.00  0.00     0.077 A 
HETATM   11  N4  UNL     1      27.644   2.216  53.052  1.00  0.00    -0.220 NA
HETATM   12  C13 UNL     1      24.638   0.282  53.679  1.00  0.00     0.139 C 
HETATM   13  N5  UNL     1      24.986  -1.144  53.748  1.00  0.00    -0.248 NA
HETATM   14  S1  UNL     1      26.330  -1.597  52.753  1.00  0.00     0.032 SA
HETATM   15  H3  UNL     1      30.157   2.193  55.306  1.00  0.00     0.167 HD
HETATM   16  H11 UNL     1      24.190  -1.772  53.721  1.00  0.00     0.136 HD
ENDROOT
BRANCH  10  17
HETATM   17  C8  UNL     1      25.743   2.370  51.610  1.00  0.00     0.011 A 
HETATM   18  C9  UNL     1      24.454   2.438  51.203  1.00  0.00     0.017 A 
HETATM   19  C10 UNL     1      24.051   3.015  50.020  1.00  0.00     0.020 A 
HETATM   20  C11 UNL     1      25.070   3.534  49.257  1.00  0.00     0.116 A 
HETATM   21  N3  UNL     1      26.373   3.505  49.592  1.00  0.00    -0.272 NA
HETATM   22  C12 UNL     1      26.713   2.918  50.778  1.00  0.00     0.130 A 
ENDBRANCH  10  17
TORSDOF 1
ENDMDL
MODEL 4
REMARK VINA RESULT:      -6.8      2.827      5.799
REMARK  1 active torsions:
REMARK  status: ('A' for Active; 'I' for Inactive)
REMARK    1  A    between atoms: C7_10  and  C8_11 
ROOT
HETATM    1  O1  UNL     1      22.450   5.123  52.297  1.00  0.00    -0.280 OA
HETATM    2  C1  UNL     1      22.346   4.161  51.452  1.00  0.00     0.219 A 
HETATM    3  C2  UNL     1      21.287   4.162  50.417  1.00  0.00     0.047 C 
HETATM    4  C3  UNL     1      21.053   3.269  49.471  1.00  0.00     0.090 C 
HETATM    5  N1  UNL     1      21.485   2.006  48.876  1.00  0.00    -0.342 N 
HETATM    6  C4  UNL     1      22.759   2.295  49.380  1.00  0.00     0.173 A 
HETATM    7  N2  UNL     1      22.728   1.575  50.554  1.00  0.00    -0.270 NA
HETATM    8  C5  UNL     1      23.734   1.711  51.433  1.00  0.00     0.274 A 
HETATM    9  C6  UNL     1      24.595   2.607  50.879  1.00  0.00    -0.015 A 
HETATM   10  C7  UNL     1      24.781   3.379  49.771  1.00  0.00     0.077 A 
HETATM   11  N4  UNL     1      23.710   3.172  48.935  1.00  0.00    -0.220 NA
HETATM   12  C13 UNL     1      25.476   2.832  52.087  1.00  0.00     0.139 C 
HETATM   13  N5  UNL     1      24.588   3.238  53.186  1.00  0.00    -0.248 NA
HETATM   14  S1  UNL     1      23.444   4.466  52.759  1.00  0.00     0.032 SA
HETATM   15  H3  UNL     1      20.945   1.326  48.351  1.00  0.00     0.167 HD
HETATM   16  H11 UNL     1      25.056   3.365  54.077  1.00  0.00     0.136 HD
ENDROOT
BRANCH  10  17
HETATM   17  C8  UNL     1      25.794   4.279  49.319  1.00  0.00     0.011 A 
HETATM   18  C9  UNL     1      27.104   4.097  49.030  1.00  0.00     0.017 A 
HETATM   19  C10 UNL     1      27.934   5.092  48.565  1.00  0.00     0.020 A 
HETATM   20  C11 UNL     1      27.331   6.317  48.407  1.00  0.00     0.116 A 
HETATM   21  N3  UNL     1      26.037   6.578  48.672  1.00  0.00    -0.272 NA
HETATM   22  C12 UNL     1      25.263   5.551  49.133  1.00  0.00     0.130 A 
ENDBRANCH  10  17
TORSDOF 1
ENDMDL
MODEL 5
REMARK VINA RESULT:      -6.7      8.438     10.636
REMARK  1 active torsions:
REMARK  status: ('A' for Active; 'I' for Inactive)
REMARK    1  A    between atoms: C7_10  and  C8_11 
ROOT
HETATM    1  O1  UNL     1      32.071   7.759  48.619  1.00  0.00    -0.280 OA
HETATM    2  C1  UNL     1      31.388   8.183  47.616  1.00  0.00     0.219 A 
HETATM    3  C2  UNL     1      31.706   7.751  46.235  1.00  0.00     0.047 C 
HETATM    4  C3  UNL     1      31.101   8.076  45.106  1.00  0.00     0.090 C 
HETATM    5  N1  UNL     1      30.013   8.843  44.502  1.00  0.00    -0.342 N 
HETATM    6  C4  UNL     1      29.362   8.744  45.738  1.00  0.00     0.173 A 
HETATM    7  N2  UNL     1      29.718   9.950  46.301  1.00  0.00    -0.270 NA
HETATM    8  C5  UNL     1      29.412  10.189  47.586  1.00  0.00     0.274 A 
HETATM    9  C6  UNL     1      28.773   9.074  48.032  1.00  0.00    -0.015 A 
HETATM   10  C7  UNL     1      28.346   7.844  47.628  1.00  0.00     0.077 A 
HETATM   11  N4  UNL     1      28.700   7.692  46.309  1.00  0.00    -0.220 NA
HETATM   12  C13 UNL     1      28.762   9.408  49.506  1.00  0.00     0.139 C 
HETATM   13  N5  UNL     1      30.157   9.667  49.889  1.00  0.00    -0.248 NA
HETATM   14  S1  UNL     1      31.283   8.480  49.321  1.00  0.00     0.032 SA
HETATM   15  H3  UNL     1      29.935   9.215  43.561  1.00  0.00     0.167 HD
HETATM   16  H11 UNL     1      30.280   9.961  50.852  1.00  0.00     0.136 HD
ENDROOT
BRANCH  10  17
HETATM   17  C8  UNL     1      27.639   6.763  48.240  1.00  0.00     0.011 A 
HETATM   18  C9  UNL     1      26.387   6.671  48.747  1.00  0.00     0.017 A 
HETATM   19  C10 UNL     1      25.855   5.518  49.275  1.00  0.00     0.020 A 
HETATM   20  C11 UNL     1      26.699   4.432  49.254  1.00  0.00     0.116 A 
HETATM   21  N3  UNL     1      27.954   4.444  48.769  1.00  0.00    -0.272 NA
HETATM   22  C12 UNL     1      28.429   5.619  48.259  1.00  0.00     0.130 A 
ENDBRANCH  10  17
TORSDOF 1
ENDMDL
MODEL 6
REMARK VINA RESULT:      -6.7     10.736     12.793
REMARK  1 active torsions:
REMARK  status: ('A' for Active; 'I' for Inactive)
REMARK    1  A    between atoms: C7_10  and  C8_11 
ROOT
HETATM    1  O1  UNL     1      34.695   8.608  47.263  1.00  0.00    -0.280 OA
HETATM    2  C1  UNL     1      34.703   7.344  47.492  1.00  0.00     0.219 A 
HETATM    3  C2  UNL     1      35.311   6.793  48.725  1.00  0.00     0.047 C 
HETATM    4  C3  UNL     1      35.388   5.533  49.118  1.00  0.00     0.090 C 
HETATM    5  N1  UNL     1      35.058   4.148  48.788  1.00  0.00    -0.342 N 
HETATM    6  C4  UNL     1      34.008   4.663  48.020  1.00  0.00     0.173 A 
HETATM    7  N2  UNL     1      34.598   4.676  46.774  1.00  0.00    -0.270 NA
HETATM    8  C5  UNL     1      33.955   5.261  45.751  1.00  0.00     0.274 A 
HETATM    9  C6  UNL     1      32.784   5.728  46.263  1.00  0.00    -0.015 A 
HETATM   10  C7  UNL     1      32.064   5.794  47.419  1.00  0.00     0.077 A 
HETATM   11  N4  UNL     1      32.797   5.173  48.401  1.00  0.00    -0.220 NA
HETATM   12  C13 UNL     1      32.350   6.562  45.079  1.00  0.00     0.139 C 
HETATM   13  N5  UNL     1      33.455   7.488  44.789  1.00  0.00    -0.248 NA
HETATM   14  S1  UNL     1      34.088   8.299  46.182  1.00  0.00     0.032 SA
HETATM   15  H3  UNL     1      35.515   3.291  49.084  1.00  0.00     0.167 HD
HETATM   16  H11 UNL     1      33.310   8.070  43.971  1.00  0.00     0.136 HD
ENDROOT
BRANCH  10  17
HETATM   17  C8  UNL     1      30.789   6.320  47.792  1.00  0.00     0.011 A 
HETATM   18  C9  UNL     1      29.555   5.765  47.825  1.00  0.00     0.017 A 
HETATM   19  C10 UNL     1      28.427   6.424  48.254  1.00  0.00     0.020 A 
HETATM   20  C11 UNL     1      28.638   7.721  48.661  1.00  0.00     0.116 A 
HETATM   21  N3  UNL     1      29.832   8.343  48.659  1.00  0.00    -0.272 NA
HETATM   22  C12 UNL     1      30.916   7.637  48.220  1.00  0.00     0.130 A 
ENDBRANCH  10  17
TORSDOF 1
ENDMDL
MODEL 7
REMARK VINA RESULT:      -6.5      3.630      6.181
REMARK  1 active torsions:
REMARK  status: ('A' for Active; 'I' for Inactive)
REMARK    1  A    between atoms: C7_10  and  C8_11 
ROOT
HETATM    1  O1  UNL     1      23.033   2.209  49.268  1.00  0.00    -0.280 OA
HETATM    2  C1  UNL     1      22.887   3.190  50.085  1.00  0.00     0.219 A 
HETATM    3  C2  UNL     1      23.048   3.001  51.545  1.00  0.00     0.047 C 
HETATM    4  C3  UNL     1      22.951   3.896  52.512  1.00  0.00     0.090 C 
HETATM    5  N1  UNL     1      22.698   5.301  52.829  1.00  0.00    -0.342 N 
HETATM    6  C4  UNL     1      23.149   5.593  51.536  1.00  0.00     0.173 A 
HETATM    7  N2  UNL     1      21.946   5.669  50.868  1.00  0.00    -0.270 NA
HETATM    8  C5  UNL     1      21.946   5.786  49.530  1.00  0.00     0.274 A 
HETATM    9  C6  UNL     1      23.254   5.799  49.156  1.00  0.00    -0.015 A 
HETATM   10  C7  UNL     1      24.520   5.745  49.661  1.00  0.00     0.077 A 
HETATM   11  N4  UNL     1      24.418   5.628  51.026  1.00  0.00    -0.220 NA
HETATM   12  C13 UNL     1      23.052   5.657  47.665  1.00  0.00     0.139 C 
HETATM   13  N5  UNL     1      22.235   4.451  47.464  1.00  0.00    -0.248 NA
HETATM   14  S1  UNL     1      22.773   3.070  48.359  1.00  0.00     0.032 SA
HETATM   15  H3  UNL     1      22.340   5.711  53.685  1.00  0.00     0.167 HD
HETATM   16  H11 UNL     1      21.978   4.275  46.498  1.00  0.00     0.136 HD
ENDROOT
BRANCH  10  17
HETATM   17  C8  UNL     1      25.836   5.799  49.109  1.00  0.00     0.011 A 
HETATM   18  C9  UNL     1      26.526   6.797  48.508  1.00  0.00     0.017 A 
HETATM   19  C10 UNL     1      27.822   6.676  48.062  1.00  0.00     0.020 A 
HETATM   20  C11 UNL     1      28.389   5.441  48.272  1.00  0.00     0.116 A 
HETATM   21  N3  UNL     1      27.770   4.400  48.860  1.00  0.00    -0.272 NA
HETATM   22  C12 UNL     1      26.483   4.580  49.281  1.00  0.00     0.130 A 
ENDBRANCH  10  17
TORSDOF 1
ENDMDL
MODEL 8
REMARK VINA RESULT:      -6.5      2.260      3.687
REMARK  1 active torsions:
REMARK  status: ('A' for Active; 'I' for Inactive)
REMARK    1  A    between atoms: C7_10  and  C8_11 
ROOT
HETATM    1  O1  UNL     1      24.827   3.201  49.306  1.00  0.00    -0.280 OA
HETATM    2  C1  UNL     1      23.543   3.217  49.350  1.00  0.00     0.219 A 
HETATM    3  C2  UNL     1      22.733   2.585  48.283  1.00  0.00     0.047 C 
HETATM    4  C3  UNL     1      21.418   2.497  48.185  1.00  0.00     0.090 C 
HETATM    5  N1  UNL     1      20.140   2.825  48.815  1.00  0.00    -0.342 N 
HETATM    6  C4  UNL     1      20.833   2.842  50.031  1.00  0.00     0.173 A 
HETATM    7  N2  UNL     1      21.084   4.192  50.152  1.00  0.00    -0.270 NA
HETATM    8  C5  UNL     1      21.885   4.624  51.139  1.00  0.00     0.274 A 
HETATM    9  C6  UNL     1      22.272   3.511  51.820  1.00  0.00    -0.015 A 
HETATM   10  C7  UNL     1      22.120   2.157  51.845  1.00  0.00     0.077 A 
HETATM   11  N4  UNL     1      21.289   1.812  50.806  1.00  0.00    -0.220 NA
HETATM   12  C13 UNL     1      23.343   4.146  52.677  1.00  0.00     0.139 C 
HETATM   13  N5  UNL     1      24.275   4.815  51.757  1.00  0.00    -0.248 NA
HETATM   14  S1  UNL     1      24.764   3.844  50.409  1.00  0.00     0.032 SA
HETATM   15  H3  UNL     1      19.228   2.951  48.389  1.00  0.00     0.167 HD
HETATM   16  H11 UNL     1      25.017   5.334  52.216  1.00  0.00     0.136 HD
ENDROOT
BRANCH  10  17
HETATM   17  C8  UNL     1      22.596   1.097  52.677  1.00  0.00     0.011 A 
HETATM   18  C9  UNL     1      23.814   0.522  52.803  1.00  0.00     0.017 A 
HETATM   19  C10 UNL     1      24.101  -0.482  53.700  1.00  0.00     0.020 A 
HETATM   20  C11 UNL     1      23.041  -0.875  54.482  1.00  0.00     0.116 A 
HETATM   21  N3  UNL     1      21.802  -0.353  54.417  1.00  0.00    -0.272 NA
HETATM   22  C12 UNL     1      21.577   0.640  53.507  1.00  0.00     0.130 A 
ENDBRANCH  10  17
TORSDOF 1
ENDMDL
MODEL 9
REMARK VINA RESULT:      -6.4     10.552     12.679
REMARK  1 active torsions:
REMARK  status: ('A' for Active; 'I' for Inactive)
REMARK    1  A    between atoms: C7_10  and  C8_11 
ROOT
HETATM    1  O1  UNL     1      31.397   8.816  45.548  1.00  0.00    -0.280 OA
HETATM    2  C1  UNL     1      30.990   8.181  46.587  1.00  0.00     0.219 A 
HETATM    3  C2  UNL     1      29.666   7.516  46.609  1.00  0.00     0.047 C 
HETATM    4  C3  UNL     1      29.108   6.815  47.580  1.00  0.00     0.090 C 
HETATM    5  N1  UNL     1      29.272   6.297  48.938  1.00  0.00    -0.342 N 
HETATM    6  C4  UNL     1      30.652   6.356  48.709  1.00  0.00     0.173 A 
HETATM    7  N2  UNL     1      30.945   7.573  49.284  1.00  0.00    -0.270 NA
HETATM    8  C5  UNL     1      32.177   8.086  49.139  1.00  0.00     0.274 A 
HETATM    9  C6  UNL     1      32.873   7.184  48.395  1.00  0.00    -0.015 A 
HETATM   10  C7  UNL     1      32.750   5.976  47.776  1.00  0.00     0.077 A 
HETATM   11  N4  UNL     1      31.465   5.533  47.979  1.00  0.00    -0.220 NA
HETATM   12  C13 UNL     1      34.091   8.033  48.113  1.00  0.00     0.139 C 
HETATM   13  N5  UNL     1      33.605   9.280  47.504  1.00  0.00    -0.248 NA
HETATM   14  S1  UNL     1      32.449   9.047  46.235  1.00  0.00     0.032 SA
HETATM   15  H3  UNL     1      28.563   6.055  49.622  1.00  0.00     0.167 HD
HETATM   16  H11 UNL     1      34.328   9.966  47.318  1.00  0.00     0.136 HD
ENDROOT
BRANCH  10  17
HETATM   17  C8  UNL     1      33.621   5.124  47.029  1.00  0.00     0.011 A 
HETATM   18  C9  UNL     1      34.418   4.095  47.400  1.00  0.00     0.017 A 
HETATM   19  C10 UNL     1      35.174   3.353  46.521  1.00  0.00     0.020 A 
HETATM   20  C11 UNL     1      35.065   3.735  45.205  1.00  0.00     0.116 A 
HETATM   21  N3  UNL     1      34.297   4.745  44.758  1.00  0.00    -0.272 NA
HETATM   22  C12 UNL     1      33.569   5.447  45.677  1.00  0.00     0.130 A 
ENDBRANCH  10  17
TORSDOF 1
ENDMDL
