MODEL 1
REMARK VINA RESULT:      -9.1      0.000      0.000
REMARK  2 active torsions:
REMARK  status: ('A' for Active; 'I' for Inactive)
REMARK    1  A    between atoms: C7_8  and  N1_9 
REMARK    2  A    between atoms: N1_9  and  C8_10 
ROOT
HETATM    1  C8  UNL     1      25.977   2.464  51.124  1.00  0.00     0.160 A 
HETATM    2  N2  UNL     1      27.149   2.681  51.744  1.00  0.00    -0.222 NA
HETATM    3  C9  UNL     1      27.403   1.998  52.895  1.00  0.00     0.238 A 
HETATM    4  N3  UNL     1      26.471   1.141  53.353  1.00  0.00    -0.215 NA
HETATM    5  C10 UNL     1      25.294   0.926  52.727  1.00  0.00     0.202 A 
HETATM    6  C11 UNL     1      25.028   1.606  51.573  1.00  0.00     0.129 A 
HETATM    7  N4  UNL     1      23.897   1.565  50.741  1.00  0.00    -0.379 N 
HETATM    8  C12 UNL     1      22.579   1.089  50.953  1.00  0.00     0.161 C 
HETATM    9  C13 UNL     1      22.343   0.361  52.183  1.00  0.00    -0.005 A 
HETATM   10  C14 UNL     1      20.960   0.138  52.226  1.00  0.00     0.030 A 
HETATM   11  C15 UNL     1      20.353  -0.547  53.285  1.00  0.00     0.011 A 
HETATM   12 BR2  UNL     1      18.476  -0.845  53.336  1.00  0.00    -0.051 Br
HETATM   13  C16 UNL     1      21.149  -1.011  54.311  1.00  0.00     0.022 A 
HETATM   14  C17 UNL     1      22.517  -0.810  54.302  1.00  0.00     0.039 A 
HETATM   15  C18 UNL     1      23.088  -0.121  53.226  1.00  0.00     0.086 A 
HETATM   16  O1  UNL     1      24.458   0.004  53.354  1.00  0.00    -0.289 OA
HETATM   17  H7  UNL     1      24.072   1.961  49.792  1.00  0.00     0.160 HD
ENDROOT
BRANCH   1  18
HETATM   18  N1  UNL     1      25.829   3.232  49.941  1.00  0.00    -0.348 N 
HETATM   19  H5  UNL     1      25.783   3.250  48.906  1.00  0.00     0.167 HD
BRANCH  18  20
HETATM   20  C7  UNL     1      25.652   4.643  49.965  1.00  0.00     0.102 C 
HETATM   21  C6  UNL     1      26.462   5.490  49.354  1.00  0.00    -0.003 C 
HETATM   22  C1  UNL     1      26.387   6.943  49.305  1.00  0.00     0.022 C 
HETATM   23  C5  UNL     1      27.600   4.898  48.619  1.00  0.00     0.026 C 
HETATM   24 BR1  UNL     1      24.914   7.716  50.254  1.00  0.00    -0.050 Br
HETATM   25  C2  UNL     1      27.291   7.641  48.640  1.00  0.00     0.021 C 
HETATM   26  C3  UNL     1      28.371   6.954  47.951  1.00  0.00     0.013 C 
HETATM   27  C4  UNL     1      28.559   5.694  48.246  1.00  0.00    -0.025 C 
ENDBRANCH  18  20
ENDBRANCH   1  18
TORSDOF 2
ENDMDL
MODEL 2
REMARK VINA RESULT:      -9.1      4.697      5.911
REMARK  2 active torsions:
REMARK  status: ('A' for Active; 'I' for Inactive)
REMARK    1  A    between atoms: C7_8  and  N1_9 
REMARK    2  A    between atoms: N1_9  and  C8_10 
ROOT
HETATM    1  C8  UNL     1      23.879  -0.371  53.664  1.00  0.00     0.160 A 
HETATM    2  N2  UNL     1      24.367  -0.781  54.846  1.00  0.00    -0.222 NA
HETATM    3  C9  UNL     1      23.524  -1.425  55.701  1.00  0.00     0.238 A 
HETATM    4  N3  UNL     1      22.247  -1.619  55.321  1.00  0.00    -0.215 NA
HETATM    5  C10 UNL     1      21.760  -1.204  54.131  1.00  0.00     0.202 A 
HETATM    6  C11 UNL     1      22.596  -0.558  53.267  1.00  0.00     0.129 A 
HETATM    7  N4  UNL     1      22.343  -0.033  51.988  1.00  0.00    -0.379 N 
HETATM    8  C12 UNL     1      21.138   0.287  51.314  1.00  0.00     0.161 C 
HETATM    9  C13 UNL     1      19.907  -0.128  51.957  1.00  0.00    -0.005 A 
HETATM   10  C14 UNL     1      18.878   0.430  51.186  1.00  0.00     0.030 A 
HETATM   11  C15 UNL     1      17.528   0.242  51.506  1.00  0.00     0.011 A 
HETATM   12 BR2  UNL     1      16.138   1.001  50.455  1.00  0.00    -0.051 Br
HETATM   13  C16 UNL     1      17.214  -0.516  52.615  1.00  0.00     0.022 A 
HETATM   14  C17 UNL     1      18.203  -1.082  53.397  1.00  0.00     0.039 A 
HETATM   15  C18 UNL     1      19.541  -0.872  53.045  1.00  0.00     0.086 A 
HETATM   16  O1  UNL     1      20.414  -1.495  53.917  1.00  0.00    -0.289 OA
HETATM   17  H7  UNL     1      23.212   0.150  51.442  1.00  0.00     0.160 HD
ENDROOT
BRANCH   1  18
HETATM   18  N1  UNL     1      24.849   0.285  52.865  1.00  0.00    -0.348 N 
HETATM   19  H5  UNL     1      25.086   0.728  51.959  1.00  0.00     0.167 HD
BRANCH  18  20
HETATM   20  C7  UNL     1      26.166   0.555  53.332  1.00  0.00     0.102 C 
HETATM   21  C6  UNL     1      27.161  -0.311  53.249  1.00  0.00    -0.003 C 
HETATM   22  C1  UNL     1      28.540  -0.153  53.687  1.00  0.00     0.022 C 
HETATM   23  C5  UNL     1      26.846  -1.617  52.633  1.00  0.00     0.026 C 
HETATM   24 BR1  UNL     1      28.954   1.538  54.486  1.00  0.00    -0.050 Br
HETATM   25  C2  UNL     1      29.413  -1.132  53.525  1.00  0.00     0.021 C 
HETATM   26  C3  UNL     1      28.994  -2.378  52.905  1.00  0.00     0.013 C 
HETATM   27  C4  UNL     1      27.708  -2.580  52.783  1.00  0.00    -0.025 C 
ENDBRANCH  18  20
ENDBRANCH   1  18
TORSDOF 2
ENDMDL
MODEL 3
REMARK VINA RESULT:      -8.8      2.574      8.415
REMARK  2 active torsions:
REMARK  status: ('A' for Active; 'I' for Inactive)
REMARK    1  A    between atoms: C7_8  and  N1_9 
REMARK    2  A    between atoms: N1_9  and  C8_10 
ROOT
HETATM    1  C8  UNL     1      23.565   3.146  51.383  1.00  0.00     0.160 A 
HETATM    2  N2  UNL     1      22.511   3.623  52.065  1.00  0.00    -0.222 NA
HETATM    3  C9  UNL     1      22.200   4.943  51.926  1.00  0.00     0.238 A 
HETATM    4  N3  UNL     1      22.962   5.701  51.115  1.00  0.00    -0.215 NA
HETATM    5  C10 UNL     1      24.022   5.217  50.432  1.00  0.00     0.202 A 
HETATM    6  C11 UNL     1      24.343   3.897  50.564  1.00  0.00     0.129 A 
HETATM    7  N4  UNL     1      25.380   3.156  49.972  1.00  0.00    -0.379 N 
HETATM    8  C12 UNL     1      26.580   3.549  49.330  1.00  0.00     0.161 C 
HETATM    9  C13 UNL     1      26.744   4.966  49.071  1.00  0.00    -0.005 A 
HETATM   10  C14 UNL     1      28.048   5.107  48.581  1.00  0.00     0.030 A 
HETATM   11  C15 UNL     1      28.571   6.354  48.218  1.00  0.00     0.011 A 
HETATM   12 BR2  UNL     1      30.343   6.539  47.553  1.00  0.00    -0.051 Br
HETATM   13  C16 UNL     1      27.769   7.469  48.350  1.00  0.00     0.022 A 
HETATM   14  C17 UNL     1      26.476   7.365  48.830  1.00  0.00     0.039 A 
HETATM   15  C18 UNL     1      25.989   6.102  49.183  1.00  0.00     0.086 A 
HETATM   16  O1  UNL     1      24.687   6.155  49.645  1.00  0.00    -0.289 OA
HETATM   17  H7  UNL     1      25.225   2.126  50.020  1.00  0.00     0.160 HD
ENDROOT
BRANCH   1  18
HETATM   18  N1  UNL     1      23.788   1.764  51.610  1.00  0.00    -0.348 N 
HETATM   19  H5  UNL     1      24.388   0.935  51.453  1.00  0.00     0.167 HD
BRANCH  18  20
HETATM   20  C7  UNL     1      22.898   0.964  52.379  1.00  0.00     0.102 C 
HETATM   21  C6  UNL     1      23.289   0.204  53.388  1.00  0.00    -0.003 C 
HETATM   22  C1  UNL     1      22.482  -0.652  54.244  1.00  0.00     0.022 C 
HETATM   23  C5  UNL     1      24.734   0.215  53.698  1.00  0.00     0.026 C 
HETATM   24 BR1  UNL     1      20.608  -0.669  53.848  1.00  0.00    -0.050 Br
HETATM   25  C2  UNL     1      23.042  -1.351  55.216  1.00  0.00     0.021 C 
HETATM   26  C3  UNL     1      24.477  -1.265  55.433  1.00  0.00     0.013 C 
HETATM   27  C4  UNL     1      25.190  -0.715  54.487  1.00  0.00    -0.025 C 
ENDBRANCH  18  20
ENDBRANCH   1  18
TORSDOF 2
ENDMDL
MODEL 4
REMARK VINA RESULT:      -8.8      3.492      7.736
REMARK  2 active torsions:
REMARK  status: ('A' for Active; 'I' for Inactive)
REMARK    1  A    between atoms: C7_8  and  N1_9 
REMARK    2  A    between atoms: N1_9  and  C8_10 
ROOT
HETATM    1  C8  UNL     1      24.277   2.160  51.835  1.00  0.00     0.160 A 
HETATM    2  N2  UNL     1      23.142   2.264  52.546  1.00  0.00    -0.222 NA
HETATM    3  C9  UNL     1      22.331   3.332  52.311  1.00  0.00     0.238 A 
HETATM    4  N3  UNL     1      22.704   4.230  51.378  1.00  0.00    -0.215 NA
HETATM    5  C10 UNL     1      23.845   4.122  50.665  1.00  0.00     0.202 A 
HETATM    6  C11 UNL     1      24.666   3.055  50.893  1.00  0.00     0.129 A 
HETATM    7  N4  UNL     1      25.892   2.715  50.296  1.00  0.00    -0.379 N 
HETATM    8  C12 UNL     1      26.818   3.468  49.532  1.00  0.00     0.161 C 
HETATM    9  C13 UNL     1      26.399   4.797  49.133  1.00  0.00    -0.005 A 
HETATM   10  C14 UNL     1      27.525   5.379  48.535  1.00  0.00     0.030 A 
HETATM   11  C15 UNL     1      27.499   6.681  48.020  1.00  0.00     0.011 A 
HETATM   12 BR2  UNL     1      29.031   7.464  47.210  1.00  0.00    -0.051 Br
HETATM   13  C16 UNL     1      26.327   7.401  48.109  1.00  0.00     0.022 A 
HETATM   14  C17 UNL     1      25.197   6.858  48.692  1.00  0.00     0.039 A 
HETATM   15  C18 UNL     1      25.261   5.554  49.195  1.00  0.00     0.086 A 
HETATM   16  O1  UNL     1      24.059   5.148  49.747  1.00  0.00    -0.289 OA
HETATM   17  H7  UNL     1      26.159   1.719  50.450  1.00  0.00     0.160 HD
ENDROOT
BRANCH   1  18
HETATM   18  N1  UNL     1      25.035   1.010  52.170  1.00  0.00    -0.348 N 
HETATM   19  H5  UNL     1      25.103  -0.023  52.183  1.00  0.00     0.167 HD
BRANCH  18  20
HETATM   20  C7  UNL     1      26.318   1.093  52.778  1.00  0.00     0.102 C 
HETATM   21  C6  UNL     1      27.140   0.064  52.890  1.00  0.00    -0.003 C 
HETATM   22  C1  UNL     1      28.467   0.023  53.485  1.00  0.00     0.022 C 
HETATM   23  C5  UNL     1      26.660  -1.223  52.343  1.00  0.00     0.026 C 
HETATM   24 BR1  UNL     1      29.095   1.687  54.195  1.00  0.00    -0.050 Br
HETATM   25  C2  UNL     1      29.157  -1.104  53.513  1.00  0.00     0.021 C 
HETATM   26  C3  UNL     1      28.587  -2.315  52.944  1.00  0.00     0.013 C 
HETATM   27  C4  UNL     1      27.308  -2.301  52.676  1.00  0.00    -0.025 C 
ENDBRANCH  18  20
ENDBRANCH   1  18
TORSDOF 2
ENDMDL
MODEL 5
REMARK VINA RESULT:      -8.7      2.934      3.915
REMARK  2 active torsions:
REMARK  status: ('A' for Active; 'I' for Inactive)
REMARK    1  A    between atoms: C7_8  and  N1_9 
REMARK    2  A    between atoms: N1_9  and  C8_10 
ROOT
HETATM    1  C8  UNL     1      24.108   5.067  50.358  1.00  0.00     0.160 A 
HETATM    2  N2  UNL     1      22.947   5.705  50.582  1.00  0.00    -0.222 NA
HETATM    3  C9  UNL     1      22.186   5.303  51.637  1.00  0.00     0.238 A 
HETATM    4  N3  UNL     1      22.632   4.288  52.403  1.00  0.00    -0.215 NA
HETATM    5  C10 UNL     1      23.799   3.649  52.174  1.00  0.00     0.202 A 
HETATM    6  C11 UNL     1      24.570   4.043  51.119  1.00  0.00     0.129 A 
HETATM    7  N4  UNL     1      25.807   3.551  50.670  1.00  0.00    -0.379 N 
HETATM    8  C12 UNL     1      26.498   2.341  50.929  1.00  0.00     0.161 C 
HETATM    9  C13 UNL     1      25.943   1.486  51.959  1.00  0.00    -0.005 A 
HETATM   10  C14 UNL     1      26.703   0.309  51.916  1.00  0.00     0.030 A 
HETATM   11  C15 UNL     1      26.454  -0.764  52.780  1.00  0.00     0.011 A 
HETATM   12 BR2  UNL     1      27.489  -2.358  52.715  1.00  0.00    -0.051 Br
HETATM   13  C16 UNL     1      25.429  -0.649  53.695  1.00  0.00     0.022 A 
HETATM   14  C17 UNL     1      24.660   0.498  53.766  1.00  0.00     0.039 A 
HETATM   15  C18 UNL     1      24.939   1.550  52.886  1.00  0.00     0.086 A 
HETATM   16  O1  UNL     1      24.091   2.626  53.073  1.00  0.00    -0.289 OA
HETATM   17  H7  UNL     1      26.301   4.208  50.028  1.00  0.00     0.160 HD
ENDROOT
BRANCH   1  18
HETATM   18  N1  UNL     1      24.808   5.573  49.234  1.00  0.00    -0.348 N 
HETATM   19  H5  UNL     1      25.058   5.466  48.234  1.00  0.00     0.167 HD
BRANCH  18  20
HETATM   20  C7  UNL     1      25.584   6.764  49.292  1.00  0.00     0.102 C 
HETATM   21  C6  UNL     1      26.851   6.827  48.918  1.00  0.00    -0.003 C 
HETATM   22  C1  UNL     1      27.744   7.976  48.930  1.00  0.00     0.022 C 
HETATM   23  C5  UNL     1      27.453   5.572  48.421  1.00  0.00     0.026 C 
HETATM   24 BR1  UNL     1      26.969   9.605  49.573  1.00  0.00    -0.050 Br
HETATM   25  C2  UNL     1      28.994   7.860  48.517  1.00  0.00     0.021 C 
HETATM   26  C3  UNL     1      29.483   6.574  48.047  1.00  0.00     0.013 C 
HETATM   27  C4  UNL     1      28.748   5.526  48.309  1.00  0.00    -0.025 C 
ENDBRANCH  18  20
ENDBRANCH   1  18
TORSDOF 2
ENDMDL
MODEL 6
REMARK VINA RESULT:      -8.4      3.689      5.183
REMARK  2 active torsions:
REMARK  status: ('A' for Active; 'I' for Inactive)
REMARK    1  A    between atoms: C7_8  and  N1_9 
REMARK    2  A    between atoms: N1_9  and  C8_10 
ROOT
HETATM    1  C8  UNL     1      22.838   3.715  52.269  1.00  0.00     0.160 A 
HETATM    2  N2  UNL     1      21.690   3.515  51.600  1.00  0.00    -0.222 NA
HETATM    3  C9  UNL     1      21.350   2.236  51.276  1.00  0.00     0.238 A 
HETATM    4  N3  UNL     1      22.178   1.238  51.641  1.00  0.00    -0.215 NA
HETATM    5  C10 UNL     1      23.331   1.444  52.313  1.00  0.00     0.202 A 
HETATM    6  C11 UNL     1      23.682   2.721  52.643  1.00  0.00     0.129 A 
HETATM    7  N4  UNL     1      24.811   3.199  53.329  1.00  0.00    -0.379 N 
HETATM    8  C12 UNL     1      26.067   2.609  53.619  1.00  0.00     0.161 C 
HETATM    9  C13 UNL     1      26.208   1.200  53.307  1.00  0.00    -0.005 A 
HETATM   10  C14 UNL     1      27.557   0.901  53.537  1.00  0.00     0.030 A 
HETATM   11  C15 UNL     1      28.073  -0.386  53.339  1.00  0.00     0.011 A 
HETATM   12 BR2  UNL     1      29.906  -0.784  53.653  1.00  0.00    -0.051 Br
HETATM   13  C16 UNL     1      27.220  -1.378  52.905  1.00  0.00     0.022 A 
HETATM   14  C17 UNL     1      25.883  -1.118  52.669  1.00  0.00     0.039 A 
HETATM   15  C18 UNL     1      25.403   0.179  52.879  1.00  0.00     0.086 A 
HETATM   16  O1  UNL     1      24.053   0.288  52.602  1.00  0.00    -0.289 OA
HETATM   17  H7  UNL     1      24.690   4.170  53.689  1.00  0.00     0.160 HD
ENDROOT
BRANCH   1  18
HETATM   18  N1  UNL     1      23.082   5.083  52.547  1.00  0.00    -0.348 N 
HETATM   19  H5  UNL     1      22.939   5.889  53.182  1.00  0.00     0.167 HD
BRANCH  18  20
HETATM   20  C7  UNL     1      23.855   5.911  51.686  1.00  0.00     0.102 C 
HETATM   21  C6  UNL     1      23.333   6.844  50.909  1.00  0.00    -0.003 C 
HETATM   22  C1  UNL     1      24.013   7.746  49.992  1.00  0.00     0.022 C 
HETATM   23  C5  UNL     1      21.864   7.002  50.968  1.00  0.00     0.026 C 
HETATM   24 BR1  UNL     1      25.916   7.546  49.911  1.00  0.00    -0.050 Br
HETATM   25  C2  UNL     1      23.328   8.627  49.284  1.00  0.00     0.021 C 
HETATM   26  C3  UNL     1      21.882   8.697  49.421  1.00  0.00     0.013 C 
HETATM   27  C4  UNL     1      21.294   7.703  50.032  1.00  0.00    -0.025 C 
ENDBRANCH  18  20
ENDBRANCH   1  18
TORSDOF 2
ENDMDL
MODEL 7
REMARK VINA RESULT:      -8.4      3.134      7.938
REMARK  2 active torsions:
REMARK  status: ('A' for Active; 'I' for Inactive)
REMARK    1  A    between atoms: C7_8  and  N1_9 
REMARK    2  A    between atoms: N1_9  and  C8_10 
ROOT
HETATM    1  C8  UNL     1      24.331   3.066  51.455  1.00  0.00     0.160 A 
HETATM    2  N2  UNL     1      23.386   3.362  52.363  1.00  0.00    -0.222 NA
HETATM    3  C9  UNL     1      22.990   4.660  52.478  1.00  0.00     0.238 A 
HETATM    4  N3  UNL     1      23.563   5.581  51.679  1.00  0.00    -0.215 NA
HETATM    5  C10 UNL     1      24.513   5.279  50.768  1.00  0.00     0.202 A 
HETATM    6  C11 UNL     1      24.918   3.981  50.644  1.00  0.00     0.129 A 
HETATM    7  N4  UNL     1      25.874   3.411  49.787  1.00  0.00    -0.379 N 
HETATM    8  C12 UNL     1      26.926   3.979  49.025  1.00  0.00     0.161 C 
HETATM    9  C13 UNL     1      26.971   5.426  48.962  1.00  0.00    -0.005 A 
HETATM   10  C14 UNL     1      28.164   5.733  48.295  1.00  0.00     0.030 A 
HETATM   11  C15 UNL     1      28.553   7.055  48.044  1.00  0.00     0.011 A 
HETATM   12 BR2  UNL     1      30.173   7.464  47.138  1.00  0.00    -0.051 Br
HETATM   13  C16 UNL     1      27.730   8.076  48.473  1.00  0.00     0.022 A 
HETATM   14  C17 UNL     1      26.546   7.809  49.134  1.00  0.00     0.039 A 
HETATM   15  C18 UNL     1      26.190   6.476  49.365  1.00  0.00     0.086 A 
HETATM   16  O1  UNL     1      24.986   6.365  50.034  1.00  0.00    -0.289 OA
HETATM   17  H7  UNL     1      25.782   2.375  49.702  1.00  0.00     0.160 HD
ENDROOT
BRANCH   1  18
HETATM   18  N1  UNL     1      24.659   1.687  51.430  1.00  0.00    -0.348 N 
HETATM   19  H5  UNL     1      24.855   0.841  50.865  1.00  0.00     0.167 HD
BRANCH  18  20
HETATM   20  C7  UNL     1      24.847   0.926  52.618  1.00  0.00     0.102 C 
HETATM   21  C6  UNL     1      26.003   0.840  53.252  1.00  0.00    -0.003 C 
HETATM   22  C1  UNL     1      26.319   0.100  54.465  1.00  0.00     0.022 C 
HETATM   23  C5  UNL     1      27.134   1.588  52.663  1.00  0.00     0.026 C 
HETATM   24 BR1  UNL     1      24.858  -0.870  55.233  1.00  0.00    -0.050 Br
HETATM   25  C2  UNL     1      27.541   0.124  54.968  1.00  0.00     0.021 C 
HETATM   26  C3  UNL     1      28.581   0.895  54.305  1.00  0.00     0.013 C 
HETATM   27  C4  UNL     1      28.331   1.310  53.091  1.00  0.00    -0.025 C 
ENDBRANCH  18  20
ENDBRANCH   1  18
TORSDOF 2
ENDMDL
MODEL 8
REMARK VINA RESULT:      -8.2      4.165      6.251
REMARK  2 active torsions:
REMARK  status: ('A' for Active; 'I' for Inactive)
REMARK    1  A    between atoms: C7_8  and  N1_9 
REMARK    2  A    between atoms: N1_9  and  C8_10 
ROOT
HETATM    1  C8  UNL     1      20.890   1.784  52.067  1.00  0.00     0.160 A 
HETATM    2  N2  UNL     1      20.885   2.727  51.110  1.00  0.00    -0.222 NA
HETATM    3  C9  UNL     1      19.741   2.906  50.391  1.00  0.00     0.238 A 
HETATM    4  N3  UNL     1      18.676   2.131  50.673  1.00  0.00    -0.215 NA
HETATM    5  C10 UNL     1      18.687   1.185  51.636  1.00  0.00     0.202 A 
HETATM    6  C11 UNL     1      19.827   0.996  52.363  1.00  0.00     0.129 A 
HETATM    7  N4  UNL     1      20.096   0.092  53.404  1.00  0.00    -0.379 N 
HETATM    8  C12 UNL     1      19.440  -1.091  53.827  1.00  0.00     0.161 C 
HETATM    9  C13 UNL     1      18.165  -1.384  53.204  1.00  0.00    -0.005 A 
HETATM   10  C14 UNL     1      17.806  -2.655  53.669  1.00  0.00     0.030 A 
HETATM   11  C15 UNL     1      16.615  -3.278  53.276  1.00  0.00     0.011 A 
HETATM   12 BR2  UNL     1      16.133  -5.003  53.912  1.00  0.00    -0.051 Br
HETATM   13  C16 UNL     1      15.780  -2.611  52.404  1.00  0.00     0.022 A 
HETATM   14  C17 UNL     1      16.103  -1.355  51.925  1.00  0.00     0.039 A 
HETATM   15  C18 UNL     1      17.302  -0.765  52.341  1.00  0.00     0.086 A 
HETATM   16  O1  UNL     1      17.490   0.485  51.781  1.00  0.00    -0.289 OA
HETATM   17  H7  UNL     1      20.937   0.351  53.964  1.00  0.00     0.160 HD
ENDROOT
BRANCH   1  18
HETATM   18  N1  UNL     1      22.133   1.693  52.742  1.00  0.00    -0.348 N 
HETATM   19  H5  UNL     1      22.643   1.473  53.617  1.00  0.00     0.167 HD
BRANCH  18  20
HETATM   20  C7  UNL     1      23.370   2.002  52.110  1.00  0.00     0.102 C 
HETATM   21  C6  UNL     1      24.456   1.258  52.231  1.00  0.00    -0.003 C 
HETATM   22  C1  UNL     1      25.769   1.468  51.639  1.00  0.00     0.022 C 
HETATM   23  C5  UNL     1      24.336   0.052  53.077  1.00  0.00     0.026 C 
HETATM   24 BR1  UNL     1      25.930   3.029  50.542  1.00  0.00    -0.050 Br
HETATM   25  C2  UNL     1      26.753   0.615  51.868  1.00  0.00     0.021 C 
HETATM   26  C3  UNL     1      26.524  -0.542  52.718  1.00  0.00     0.013 C 
HETATM   27  C4  UNL     1      25.435  -0.543  53.441  1.00  0.00    -0.025 C 
ENDBRANCH  18  20
ENDBRANCH   1  18
TORSDOF 2
ENDMDL
MODEL 9
REMARK VINA RESULT:      -8.1      1.934      8.044
REMARK  2 active torsions:
REMARK  status: ('A' for Active; 'I' for Inactive)
REMARK    1  A    between atoms: C7_8  and  N1_9 
REMARK    2  A    between atoms: N1_9  and  C8_10 
ROOT
HETATM    1  C8  UNL     1      24.378   2.075  52.220  1.00  0.00     0.160 A 
HETATM    2  N2  UNL     1      24.835   0.824  52.399  1.00  0.00    -0.222 NA
HETATM    3  C9  UNL     1      26.057   0.508  51.886  1.00  0.00     0.238 A 
HETATM    4  N3  UNL     1      26.745   1.460  51.227  1.00  0.00    -0.215 NA
HETATM    5  C10 UNL     1      26.280   2.716  51.050  1.00  0.00     0.202 A 
HETATM    6  C11 UNL     1      25.057   3.044  51.559  1.00  0.00     0.129 A 
HETATM    7  N4  UNL     1      24.357   4.261  51.513  1.00  0.00    -0.379 N 
HETATM    8  C12 UNL     1      24.504   5.412  50.698  1.00  0.00     0.161 C 
HETATM    9  C13 UNL     1      25.674   5.455  49.845  1.00  0.00    -0.005 A 
HETATM   10  C14 UNL     1      25.511   6.595  49.046  1.00  0.00     0.030 A 
HETATM   11  C15 UNL     1      26.459   6.967  48.085  1.00  0.00     0.011 A 
HETATM   12 BR2  UNL     1      26.230   8.515  47.005  1.00  0.00    -0.051 Br
HETATM   13  C16 UNL     1      27.581   6.181  47.928  1.00  0.00     0.022 A 
HETATM   14  C17 UNL     1      27.775   5.050  48.700  1.00  0.00     0.039 A 
HETATM   15  C18 UNL     1      26.806   4.711  49.650  1.00  0.00     0.086 A 
HETATM   16  O1  UNL     1      27.134   3.560  50.342  1.00  0.00    -0.289 OA
HETATM   17  H7  UNL     1      23.587   4.317  52.214  1.00  0.00     0.160 HD
ENDROOT
BRANCH   1  18
HETATM   18  N1  UNL     1      23.099   2.281  52.797  1.00  0.00    -0.348 N 
HETATM   19  H5  UNL     1      22.539   2.686  53.568  1.00  0.00     0.167 HD
BRANCH  18  20
HETATM   20  C7  UNL     1      21.905   1.785  52.203  1.00  0.00     0.102 C 
HETATM   21  C6  UNL     1      21.194   0.794  52.713  1.00  0.00    -0.003 C 
HETATM   22  C1  UNL     1      19.966   0.202  52.203  1.00  0.00     0.022 C 
HETATM   23  C5  UNL     1      21.701   0.199  53.968  1.00  0.00     0.026 C 
HETATM   24 BR1  UNL     1      19.304   0.970  50.579  1.00  0.00    -0.050 Br
HETATM   25  C2  UNL     1      19.381  -0.793  52.848  1.00  0.00     0.021 C 
HETATM   26  C3  UNL     1      19.969  -1.302  54.076  1.00  0.00     0.013 C 
HETATM   27  C4  UNL     1      21.195  -0.939  54.345  1.00  0.00    -0.025 C 
ENDBRANCH  18  20
ENDBRANCH   1  18
TORSDOF 2
ENDMDL
