MODEL 1
REMARK VINA RESULT:     -10.2      0.000      0.000
REMARK  0 active torsions:
REMARK  status: ('A' for Active; 'I' for Inactive)
ROOT
HETATM    1  C1  UNL     1      22.693  -1.163  52.908  1.00  0.00     0.049 C 
HETATM    2  C2  UNL     1      22.660   0.268  53.136  1.00  0.00    -0.055 C 
HETATM    3  C3  UNL     1      21.572   0.974  52.935  1.00  0.00    -0.017 C 
HETATM    4  C4  UNL     1      20.672  -0.039  52.449  1.00  0.00     0.025 C 
HETATM    5  C5  UNL     1      19.470  -0.045  51.999  1.00  0.00     0.178 A 
HETATM    6  C6  UNL     1      18.061   0.103  51.491  1.00  0.00     0.169 A 
HETATM    7  N1  UNL     1      18.671   1.248  51.775  1.00  0.00    -0.247 N 
HETATM    8  N2  UNL     1      18.163   2.383  51.609  1.00  0.00    -0.340 NA
HETATM    9  C7  UNL     1      17.587   3.476  51.511  1.00  0.00     0.210 C 
HETATM   10  P1  UNL     1      18.442   4.604  50.345  1.00  0.00    -0.071 P 
HETATM   11  C8  UNL     1      20.270   4.631  50.554  1.00  0.00     0.046 C 
HETATM   12  C9  UNL     1      20.966   4.282  49.242  1.00  0.00     0.018 C 
HETATM   13  C10 UNL     1      21.669   5.487  48.756  1.00  0.00    -0.021 C 
HETATM   14  C11 UNL     1      22.887   5.437  48.244  1.00  0.00    -0.001 C 
HETATM   15  C12 UNL     1      23.800   4.325  48.539  1.00  0.00     0.032 C 
HETATM   16  C13 UNL     1      23.312   3.396  49.342  1.00  0.00     0.047 C 
HETATM   17  C14 UNL     1      21.863   3.089  49.331  1.00  0.00     0.073 C 
HETATM   18  O1  UNL     1      24.225   2.707  50.205  1.00  0.00    -0.351 OA
HETATM   19  C15 UNL     1      23.584   2.147  51.342  1.00  0.00     0.214 C 
HETATM   20  C16 UNL     1      24.460   1.563  52.328  1.00  0.00    -0.021 A 
HETATM   21  C17 UNL     1      25.768   1.968  52.238  1.00  0.00     0.049 A 
HETATM   22  C18 UNL     1      26.701   1.441  53.135  1.00  0.00     0.102 A 
HETATM   23  C19 UNL     1      26.325   0.532  54.102  1.00  0.00     0.102 A 
HETATM   24  C20 UNL     1      25.015   0.111  54.209  1.00  0.00     0.052 A 
HETATM   25  C21 UNL     1      24.095   0.615  53.340  1.00  0.00    -0.019 A 
HETATM   26  O2  UNL     1      27.148  -0.054  55.043  1.00  0.00    -0.346 OA
HETATM   27  C22 UNL     1      28.581   0.049  54.903  1.00  0.00     0.202 C 
HETATM   28  C23 UNL     1      28.855   0.456  53.455  1.00  0.00     0.202 C 
HETATM   29  O3  UNL     1      28.084   1.656  53.275  1.00  0.00    -0.346 OA
HETATM   30  H9  UNL     1      17.846   5.906  50.242  1.00  0.00     0.064 HD
ENDROOT
TORSDOF 0
ENDMDL
MODEL 2
REMARK VINA RESULT:     -10.0      2.506      3.428
REMARK  0 active torsions:
REMARK  status: ('A' for Active; 'I' for Inactive)
ROOT
HETATM    1  C1  UNL     1      23.367   0.986  52.207  1.00  0.00     0.049 C 
HETATM    2  C2  UNL     1      23.951   2.271  52.538  1.00  0.00    -0.055 C 
HETATM    3  C3  UNL     1      23.343   3.400  52.257  1.00  0.00    -0.017 C 
HETATM    4  C4  UNL     1      22.163   2.917  51.585  1.00  0.00     0.025 C 
HETATM    5  C5  UNL     1      21.170   3.468  50.989  1.00  0.00     0.178 A 
HETATM    6  C6  UNL     1      20.072   4.250  50.321  1.00  0.00     0.169 A 
HETATM    7  N1  UNL     1      21.084   4.986  50.767  1.00  0.00    -0.247 N 
HETATM    8  N2  UNL     1      21.175   6.229  50.626  1.00  0.00    -0.340 NA
HETATM    9  C7  UNL     1      21.176   7.465  50.541  1.00  0.00     0.210 C 
HETATM   10  P1  UNL     1      22.609   8.089  49.581  1.00  0.00    -0.071 P 
HETATM   11  C8  UNL     1      24.199   7.272  50.020  1.00  0.00     0.046 C 
HETATM   12  C9  UNL     1      24.846   6.657  48.782  1.00  0.00     0.018 C 
HETATM   13  C10 UNL     1      26.081   7.411  48.483  1.00  0.00    -0.021 C 
HETATM   14  C11 UNL     1      27.205   6.815  48.126  1.00  0.00    -0.001 C 
HETATM   15  C12 UNL     1      27.462   5.405  48.446  1.00  0.00     0.032 C 
HETATM   16  C13 UNL     1      26.495   4.794  49.108  1.00  0.00     0.047 C 
HETATM   17  C14 UNL     1      25.084   5.186  48.891  1.00  0.00     0.073 C 
HETATM   18  O1  UNL     1      26.860   3.753  50.023  1.00  0.00    -0.351 OA
HETATM   19  C15 UNL     1      25.876   3.538  51.024  1.00  0.00     0.214 C 
HETATM   20  C16 UNL     1      26.239   2.606  52.064  1.00  0.00    -0.021 A 
HETATM   21  C17 UNL     1      27.586   2.367  52.171  1.00  0.00     0.049 A 
HETATM   22  C18 UNL     1      28.037   1.461  53.134  1.00  0.00     0.102 A 
HETATM   23  C19 UNL     1      27.154   0.816  53.974  1.00  0.00     0.102 A 
HETATM   24  C20 UNL     1      25.795   1.040  53.883  1.00  0.00     0.052 A 
HETATM   25  C21 UNL     1      25.340   1.920  52.947  1.00  0.00    -0.019 A 
HETATM   26  O2  UNL     1      27.475  -0.093  54.963  1.00  0.00    -0.346 OA
HETATM   27  C22 UNL     1      28.802  -0.656  55.012  1.00  0.00     0.202 C 
HETATM   28  C23 UNL     1      29.439  -0.404  53.646  1.00  0.00     0.202 C 
HETATM   29  O3  UNL     1      29.330   1.018  53.463  1.00  0.00    -0.346 OA
HETATM   30  H9  UNL     1      22.688   9.520  49.505  1.00  0.00     0.064 HD
ENDROOT
TORSDOF 0
ENDMDL
MODEL 3
REMARK VINA RESULT:      -9.8      3.544      6.831
REMARK  0 active torsions:
REMARK  status: ('A' for Active; 'I' for Inactive)
ROOT
HETATM    1  C1  UNL     1      26.765   2.860  49.700  1.00  0.00     0.049 C 
HETATM    2  C2  UNL     1      25.687   3.244  50.590  1.00  0.00    -0.055 C 
HETATM    3  C3  UNL     1      25.318   2.486  51.596  1.00  0.00    -0.017 C 
HETATM    4  C4  UNL     1      26.197   1.357  51.427  1.00  0.00     0.025 C 
HETATM    5  C5  UNL     1      26.339   0.222  52.009  1.00  0.00     0.178 A 
HETATM    6  C6  UNL     1      26.384  -1.068  52.782  1.00  0.00     0.169 A 
HETATM    7  N1  UNL     1      25.385  -0.258  53.114  1.00  0.00    -0.247 N 
HETATM    8  N2  UNL     1      24.508  -0.527  53.969  1.00  0.00    -0.340 NA
HETATM    9  C7  UNL     1      23.717  -0.801  54.883  1.00  0.00     0.210 C 
HETATM   10  P1  UNL     1      21.981  -0.870  54.295  1.00  0.00    -0.071 P 
HETATM   11  C8  UNL     1      21.528   0.518  53.174  1.00  0.00     0.046 C 
HETATM   12  C9  UNL     1      21.002  -0.015  51.845  1.00  0.00     0.018 C 
HETATM   13  C10 UNL     1      19.565   0.315  51.749  1.00  0.00    -0.021 C 
HETATM   14  C11 UNL     1      19.014   0.760  50.634  1.00  0.00    -0.001 C 
HETATM   15  C12 UNL     1      19.816   1.399  49.582  1.00  0.00     0.032 C 
HETATM   16  C13 UNL     1      21.109   1.489  49.839  1.00  0.00     0.047 C 
HETATM   17  C14 UNL     1      21.779   0.452  50.656  1.00  0.00     0.073 C 
HETATM   18  O1  UNL     1      21.825   2.608  49.301  1.00  0.00    -0.351 OA
HETATM   19  C15 UNL     1      23.010   2.897  50.027  1.00  0.00     0.214 C 
HETATM   20  C16 UNL     1      23.706   4.098  49.632  1.00  0.00    -0.021 A 
HETATM   21  C17 UNL     1      22.948   4.984  48.909  1.00  0.00     0.049 A 
HETATM   22  C18 UNL     1      23.538   6.169  48.460  1.00  0.00     0.102 A 
HETATM   23  C19 UNL     1      24.859   6.455  48.736  1.00  0.00     0.102 A 
HETATM   24  C20 UNL     1      25.640   5.577  49.460  1.00  0.00     0.052 A 
HETATM   25  C21 UNL     1      25.078   4.417  49.903  1.00  0.00    -0.019 A 
HETATM   26  O2  UNL     1      25.551   7.587  48.353  1.00  0.00    -0.346 OA
HETATM   27  C22 UNL     1      24.985   8.470  47.363  1.00  0.00     0.202 C 
HETATM   28  C23 UNL     1      23.887   7.684  46.646  1.00  0.00     0.202 C 
HETATM   29  O3  UNL     1      23.024   7.238  47.706  1.00  0.00    -0.346 OA
HETATM   30  H9  UNL     1      21.018  -1.125  55.329  1.00  0.00     0.064 HD
ENDROOT
TORSDOF 0
ENDMDL
MODEL 4
REMARK VINA RESULT:      -9.7      3.765      7.243
REMARK  0 active torsions:
REMARK  status: ('A' for Active; 'I' for Inactive)
ROOT
HETATM    1  C1  UNL     1      20.317  -0.782  54.154  1.00  0.00     0.049 C 
HETATM    2  C2  UNL     1      20.696  -0.346  52.825  1.00  0.00    -0.055 C 
HETATM    3  C3  UNL     1      21.954  -0.221  52.471  1.00  0.00    -0.017 C 
HETATM    4  C4  UNL     1      22.621  -0.562  53.702  1.00  0.00     0.025 C 
HETATM    5  C5  UNL     1      23.841  -0.583  54.096  1.00  0.00     0.178 A 
HETATM    6  C6  UNL     1      25.311  -0.556  54.417  1.00  0.00     0.169 A 
HETATM    7  N1  UNL     1      24.998  -0.083  53.216  1.00  0.00    -0.247 N 
HETATM    8  N2  UNL     1      25.825   0.394  52.403  1.00  0.00    -0.340 NA
HETATM    9  C7  UNL     1      26.689   0.773  51.600  1.00  0.00     0.210 C 
HETATM   10  P1  UNL     1      26.459   2.527  51.115  1.00  0.00    -0.071 P 
HETATM   11  C8  UNL     1      24.711   2.964  50.741  1.00  0.00     0.046 C 
HETATM   12  C9  UNL     1      24.251   4.130  51.611  1.00  0.00     0.018 C 
HETATM   13  C10 UNL     1      24.035   5.302  50.737  1.00  0.00    -0.021 C 
HETATM   14  C11 UNL     1      22.995   6.105  50.875  1.00  0.00    -0.001 C 
HETATM   15  C12 UNL     1      21.767   5.664  51.549  1.00  0.00     0.032 C 
HETATM   16  C13 UNL     1      21.789   4.421  51.998  1.00  0.00     0.047 C 
HETATM   17  C14 UNL     1      23.061   3.820  52.460  1.00  0.00     0.073 C 
HETATM   18  O1  UNL     1      20.554   3.694  52.025  1.00  0.00    -0.351 OA
HETATM   19  C15 UNL     1      20.749   2.288  52.011  1.00  0.00     0.214 C 
HETATM   20  C16 UNL     1      19.550   1.494  51.890  1.00  0.00    -0.021 A 
HETATM   21  C17 UNL     1      18.459   2.178  51.415  1.00  0.00     0.049 A 
HETATM   22  C18 UNL     1      17.243   1.501  51.284  1.00  0.00     0.102 A 
HETATM   23  C19 UNL     1      17.131   0.168  51.617  1.00  0.00     0.102 A 
HETATM   24  C20 UNL     1      18.215  -0.538  52.098  1.00  0.00     0.052 A 
HETATM   25  C21 UNL     1      19.406   0.109  52.233  1.00  0.00    -0.019 A 
HETATM   26  O2  UNL     1      15.992  -0.607  51.528  1.00  0.00    -0.346 OA
HETATM   27  C22 UNL     1      14.711   0.025  51.319  1.00  0.00     0.202 C 
HETATM   28  C23 UNL     1      14.886   1.502  51.670  1.00  0.00     0.202 C 
HETATM   29  O3  UNL     1      15.980   1.934  50.843  1.00  0.00    -0.346 OA
HETATM   30  H9  UNL     1      27.402   2.997  50.140  1.00  0.00     0.064 HD
ENDROOT
TORSDOF 0
ENDMDL
MODEL 5
REMARK VINA RESULT:      -9.5      1.913      4.502
REMARK  0 active torsions:
REMARK  status: ('A' for Active; 'I' for Inactive)
ROOT
HETATM    1  C1  UNL     1      24.543   4.600  51.921  1.00  0.00     0.049 C 
HETATM    2  C2  UNL     1      24.133   3.358  51.298  1.00  0.00    -0.055 C 
HETATM    3  C3  UNL     1      23.042   3.275  50.572  1.00  0.00    -0.017 C 
HETATM    4  C4  UNL     1      22.529   4.616  50.694  1.00  0.00     0.025 C 
HETATM    5  C5  UNL     1      21.468   5.220  50.300  1.00  0.00     0.178 A 
HETATM    6  C6  UNL     1      20.179   5.793  49.777  1.00  0.00     0.169 A 
HETATM    7  N1  UNL     1      20.322   4.486  49.587  1.00  0.00    -0.247 N 
HETATM    8  N2  UNL     1      19.458   3.747  49.056  1.00  0.00    -0.340 NA
HETATM    9  C7  UNL     1      18.614   3.075  48.447  1.00  0.00     0.210 C 
HETATM   10  P1  UNL     1      17.937   1.717  49.478  1.00  0.00    -0.071 P 
HETATM   11  C8  UNL     1      19.224   0.800  50.422  1.00  0.00     0.046 C 
HETATM   12  C9  UNL     1      18.908   0.815  51.914  1.00  0.00     0.018 C 
HETATM   13  C10 UNL     1      18.567  -0.561  52.330  1.00  0.00    -0.021 C 
HETATM   14  C11 UNL     1      19.008  -1.089  53.457  1.00  0.00    -0.001 C 
HETATM   15  C12 UNL     1      20.206  -0.571  54.132  1.00  0.00     0.032 C 
HETATM   16  C13 UNL     1      20.793   0.448  53.529  1.00  0.00     0.047 C 
HETATM   17  C14 UNL     1      19.987   1.419  52.755  1.00  0.00     0.073 C 
HETATM   18  O1  UNL     1      22.215   0.576  53.657  1.00  0.00    -0.351 OA
HETATM   19  C15 UNL     1      22.790   1.334  52.603  1.00  0.00     0.214 C 
HETATM   20  C16 UNL     1      24.232   1.382  52.586  1.00  0.00    -0.021 A 
HETATM   21  C17 UNL     1      24.844   0.397  53.320  1.00  0.00     0.049 A 
HETATM   22  C18 UNL     1      26.240   0.373  53.385  1.00  0.00     0.102 A 
HETATM   23  C19 UNL     1      27.001   1.313  52.723  1.00  0.00     0.102 A 
HETATM   24  C20 UNL     1      26.406   2.313  51.981  1.00  0.00     0.052 A 
HETATM   25  C21 UNL     1      25.046   2.351  51.909  1.00  0.00    -0.019 A 
HETATM   26  O2  UNL     1      28.379   1.392  52.708  1.00  0.00    -0.346 OA
HETATM   27  C22 UNL     1      29.151   0.612  53.645  1.00  0.00     0.202 C 
HETATM   28  C23 UNL     1      28.190   0.177  54.752  1.00  0.00     0.202 C 
HETATM   29  O3  UNL     1      27.126  -0.491  54.053  1.00  0.00    -0.346 OA
HETATM   30  H9  UNL     1      16.998   0.872  48.796  1.00  0.00     0.064 HD
ENDROOT
TORSDOF 0
ENDMDL
MODEL 6
REMARK VINA RESULT:      -9.5      4.054      5.800
REMARK  0 active torsions:
REMARK  status: ('A' for Active; 'I' for Inactive)
ROOT
HETATM    1  C1  UNL     1      22.804   2.684  49.066  1.00  0.00     0.049 C 
HETATM    2  C2  UNL     1      23.495   3.653  49.893  1.00  0.00    -0.055 C 
HETATM    3  C3  UNL     1      23.411   4.943  49.662  1.00  0.00    -0.017 C 
HETATM    4  C4  UNL     1      22.588   4.958  48.480  1.00  0.00     0.025 C 
HETATM    5  C5  UNL     1      22.166   5.868  47.680  1.00  0.00     0.178 A 
HETATM    6  C6  UNL     1      21.751   7.037  46.829  1.00  0.00     0.169 A 
HETATM    7  N1  UNL     1      22.604   7.336  47.802  1.00  0.00    -0.247 N 
HETATM    8  N2  UNL     1      23.080   8.479  48.003  1.00  0.00    -0.340 NA
HETATM    9  C7  UNL     1      23.453   9.641  48.215  1.00  0.00     0.210 C 
HETATM   10  P1  UNL     1      25.275   9.815  48.088  1.00  0.00    -0.071 P 
HETATM   11  C8  UNL     1      26.203   8.465  48.926  1.00  0.00     0.046 C 
HETATM   12  C9  UNL     1      27.150   7.777  47.948  1.00  0.00     0.018 C 
HETATM   13  C10 UNL     1      28.537   8.082  48.355  1.00  0.00    -0.021 C 
HETATM   14  C11 UNL     1      29.492   7.169  48.353  1.00  0.00    -0.001 C 
HETATM   15  C12 UNL     1      29.184   5.734  48.413  1.00  0.00     0.032 C 
HETATM   16  C13 UNL     1      27.897   5.438  48.467  1.00  0.00     0.047 C 
HETATM   17  C14 UNL     1      26.905   6.310  47.798  1.00  0.00     0.073 C 
HETATM   18  O1  UNL     1      27.509   4.258  49.182  1.00  0.00    -0.351 OA
HETATM   19  C15 UNL     1      26.160   4.307  49.622  1.00  0.00     0.214 C 
HETATM   20  C16 UNL     1      25.741   3.220  50.473  1.00  0.00    -0.021 A 
HETATM   21  C17 UNL     1      26.771   2.522  51.053  1.00  0.00     0.049 A 
HETATM   22  C18 UNL     1      26.469   1.435  51.877  1.00  0.00     0.102 A 
HETATM   23  C19 UNL     1      25.163   1.062  52.115  1.00  0.00     0.102 A 
HETATM   24  C20 UNL     1      24.112   1.748  51.539  1.00  0.00     0.052 A 
HETATM   25  C21 UNL     1      24.391   2.810  50.732  1.00  0.00    -0.019 A 
HETATM   26  O2  UNL     1      24.739   0.015  52.908  1.00  0.00    -0.346 OA
HETATM   27  C22 UNL     1      25.690  -0.974  53.355  1.00  0.00     0.202 C 
HETATM   28  C23 UNL     1      26.922  -0.837  52.461  1.00  0.00     0.202 C 
HETATM   29  O3  UNL     1      27.296   0.545  52.585  1.00  0.00    -0.346 OA
HETATM   30  H9  UNL     1      25.763  11.132  48.385  1.00  0.00     0.064 HD
ENDROOT
TORSDOF 0
ENDMDL
MODEL 7
REMARK VINA RESULT:      -9.0      2.269      4.588
REMARK  0 active torsions:
REMARK  status: ('A' for Active; 'I' for Inactive)
ROOT
HETATM    1  C1  UNL     1      23.597   4.953  52.797  1.00  0.00     0.049 C 
HETATM    2  C2  UNL     1      23.366   3.947  51.780  1.00  0.00    -0.055 C 
HETATM    3  C3  UNL     1      22.551   4.157  50.772  1.00  0.00    -0.017 C 
HETATM    4  C4  UNL     1      22.063   5.476  51.083  1.00  0.00     0.025 C 
HETATM    5  C5  UNL     1      21.194   6.266  50.568  1.00  0.00     0.178 A 
HETATM    6  C6  UNL     1      20.146   7.081  49.858  1.00  0.00     0.169 A 
HETATM    7  N1  UNL     1      20.304   5.849  49.386  1.00  0.00    -0.247 N 
HETATM    8  N2  UNL     1      19.627   5.355  48.453  1.00  0.00    -0.340 NA
HETATM    9  C7  UNL     1      18.995   4.942  47.470  1.00  0.00     0.210 C 
HETATM   10  P1  UNL     1      17.995   3.457  47.868  1.00  0.00    -0.071 P 
HETATM   11  C8  UNL     1      18.899   2.209  48.874  1.00  0.00     0.046 C 
HETATM   12  C9  UNL     1      18.137   1.901  50.160  1.00  0.00     0.018 C 
HETATM   13  C10 UNL     1      17.646   0.510  50.084  1.00  0.00    -0.021 C 
HETATM   14  C11 UNL     1      17.702  -0.317  51.114  1.00  0.00    -0.001 C 
HETATM   15  C12 UNL     1      18.646  -0.106  52.219  1.00  0.00     0.032 C 
HETATM   16  C13 UNL     1      19.419   0.960  52.100  1.00  0.00     0.047 C 
HETATM   17  C14 UNL     1      18.919   2.168  51.405  1.00  0.00     0.073 C 
HETATM   18  O1  UNL     1      20.735   0.901  52.667  1.00  0.00    -0.351 OA
HETATM   19  C15 UNL     1      21.629   1.824  52.063  1.00  0.00     0.214 C 
HETATM   20  C16 UNL     1      23.006   1.721  52.480  1.00  0.00    -0.021 A 
HETATM   21  C17 UNL     1      23.333   0.530  53.079  1.00  0.00     0.049 A 
HETATM   22  C18 UNL     1      24.639   0.343  53.540  1.00  0.00     0.102 A 
HETATM   23  C19 UNL     1      25.593   1.328  53.397  1.00  0.00     0.102 A 
HETATM   24  C20 UNL     1      25.285   2.534  52.800  1.00  0.00     0.052 A 
HETATM   25  C21 UNL     1      24.016   2.732  52.347  1.00  0.00    -0.019 A 
HETATM   26  O2  UNL     1      26.910   1.261  53.806  1.00  0.00    -0.346 OA
HETATM   27  C22 UNL     1      27.331   0.202  54.692  1.00  0.00     0.202 C 
HETATM   28  C23 UNL     1      26.063  -0.380  55.317  1.00  0.00     0.202 C 
HETATM   29  O3  UNL     1      25.250  -0.745  54.188  1.00  0.00    -0.346 OA
HETATM   30  H9  UNL     1      17.289   2.904  46.747  1.00  0.00     0.064 HD
ENDROOT
TORSDOF 0
ENDMDL
MODEL 8
REMARK VINA RESULT:      -8.9      8.552     11.742
REMARK  0 active torsions:
REMARK  status: ('A' for Active; 'I' for Inactive)
ROOT
HETATM    1  C1  UNL     1      27.427   8.327  46.317  1.00  0.00     0.049 C 
HETATM    2  C2  UNL     1      28.270   8.069  47.467  1.00  0.00    -0.055 C 
HETATM    3  C3  UNL     1      29.470   8.590  47.575  1.00  0.00    -0.017 C 
HETATM    4  C4  UNL     1      29.575   9.301  46.327  1.00  0.00     0.025 C 
HETATM    5  C5  UNL     1      30.497   9.974  45.741  1.00  0.00     0.178 A 
HETATM    6  C6  UNL     1      31.670  10.728  45.176  1.00  0.00     0.169 A 
HETATM    7  N1  UNL     1      31.919  10.089  46.313  1.00  0.00    -0.247 N 
HETATM    8  N2  UNL     1      33.037  10.059  46.880  1.00  0.00    -0.340 NA
HETATM    9  C7  UNL     1      34.136  10.133  47.448  1.00  0.00     0.210 C 
HETATM   10  P1  UNL     1      34.917   8.486  47.655  1.00  0.00    -0.071 P 
HETATM   11  C8  UNL     1      33.751   7.187  48.239  1.00  0.00     0.046 C 
HETATM   12  C9  UNL     1      33.734   6.007  47.273  1.00  0.00     0.018 C 
HETATM   13  C10 UNL     1      34.332   4.841  47.956  1.00  0.00    -0.021 C 
HETATM   14  C11 UNL     1      33.821   3.626  47.860  1.00  0.00    -0.001 C 
HETATM   15  C12 UNL     1      32.416   3.410  47.490  1.00  0.00     0.032 C 
HETATM   16  C13 UNL     1      31.720   4.511  47.264  1.00  0.00     0.047 C 
HETATM   17  C14 UNL     1      32.384   5.709  46.704  1.00  0.00     0.073 C 
HETATM   18  O1  UNL     1      30.320   4.495  47.573  1.00  0.00    -0.351 OA
HETATM   19  C15 UNL     1      29.797   5.796  47.795  1.00  0.00     0.214 C 
HETATM   20  C16 UNL     1      28.430   5.849  48.252  1.00  0.00    -0.021 A 
HETATM   21  C17 UNL     1      27.960   4.672  48.780  1.00  0.00     0.049 A 
HETATM   22  C18 UNL     1      26.638   4.614  49.230  1.00  0.00     0.102 A 
HETATM   23  C19 UNL     1      25.811   5.715  49.155  1.00  0.00     0.102 A 
HETATM   24  C20 UNL     1      26.263   6.908  48.626  1.00  0.00     0.052 A 
HETATM   25  C21 UNL     1      27.549   6.979  48.182  1.00  0.00    -0.019 A 
HETATM   26  O2  UNL     1      24.496   5.784  49.568  1.00  0.00    -0.346 OA
HETATM   27  C22 UNL     1      23.779   4.571  49.879  1.00  0.00     0.202 C 
HETATM   28  C23 UNL     1      24.569   3.420  49.254  1.00  0.00     0.202 C 
HETATM   29  O3  UNL     1      25.893   3.565  49.797  1.00  0.00    -0.346 OA
HETATM   30  H9  UNL     1      36.167   8.511  48.361  1.00  0.00     0.064 HD
ENDROOT
TORSDOF 0
ENDMDL
MODEL 9
REMARK VINA RESULT:      -8.9      4.401      7.224
REMARK  0 active torsions:
REMARK  status: ('A' for Active; 'I' for Inactive)
ROOT
HETATM    1  C1  UNL     1      25.898   9.020  48.894  1.00  0.00     0.049 C 
HETATM    2  C2  UNL     1      25.524   7.798  48.210  1.00  0.00    -0.055 C 
HETATM    3  C3  UNL     1      24.270   7.430  48.088  1.00  0.00    -0.017 C 
HETATM    4  C4  UNL     1      23.603   8.483  48.809  1.00  0.00     0.025 C 
HETATM    5  C5  UNL     1      22.388   8.724  49.145  1.00  0.00     0.178 A 
HETATM    6  C6  UNL     1      20.926   8.872  49.470  1.00  0.00     0.169 A 
HETATM    7  N1  UNL     1      21.249   7.729  48.875  1.00  0.00    -0.247 N 
HETATM    8  N2  UNL     1      20.437   6.806  48.624  1.00  0.00    -0.340 NA
HETATM    9  C7  UNL     1      19.583   5.962  48.317  1.00  0.00     0.210 C 
HETATM   10  P1  UNL     1      19.901   4.340  49.112  1.00  0.00    -0.071 P 
HETATM   11  C8  UNL     1      21.664   3.820  49.043  1.00  0.00     0.046 C 
HETATM   12  C9  UNL     1      22.198   3.544  50.445  1.00  0.00     0.018 C 
HETATM   13  C10 UNL     1      22.465   2.096  50.563  1.00  0.00    -0.021 C 
HETATM   14  C11 UNL     1      23.548   1.622  51.152  1.00  0.00    -0.001 C 
HETATM   15  C12 UNL     1      24.760   2.438  51.305  1.00  0.00     0.032 C 
HETATM   16  C13 UNL     1      24.677   3.662  50.815  1.00  0.00     0.047 C 
HETATM   17  C14 UNL     1      23.382   4.378  50.817  1.00  0.00     0.073 C 
HETATM   18  O1  UNL     1      25.872   4.259  50.294  1.00  0.00    -0.351 OA
HETATM   19  C15 UNL     1      25.602   5.291  49.358  1.00  0.00     0.214 C 
HETATM   20  C16 UNL     1      26.754   5.839  48.684  1.00  0.00    -0.021 A 
HETATM   21  C17 UNL     1      27.873   5.047  48.735  1.00  0.00     0.049 A 
HETATM   22  C18 UNL     1      29.049   5.501  48.131  1.00  0.00     0.102 A 
HETATM   23  C19 UNL     1      29.095   6.720  47.488  1.00  0.00     0.102 A 
HETATM   24  C20 UNL     1      27.981   7.533  47.426  1.00  0.00     0.052 A 
HETATM   25  C21 UNL     1      26.828   7.105  48.012  1.00  0.00    -0.019 A 
HETATM   26  O2  UNL     1      30.190   7.273  46.854  1.00  0.00    -0.346 OA
HETATM   27  C22 UNL     1      31.499   6.703  47.059  1.00  0.00     0.202 C 
HETATM   28  C23 UNL     1      31.409   5.831  48.312  1.00  0.00     0.202 C 
HETATM   29  O3  UNL     1      30.328   4.925  48.033  1.00  0.00    -0.346 OA
HETATM   30  H9  UNL     1      18.972   3.311  48.740  1.00  0.00     0.064 HD
ENDROOT
TORSDOF 0
ENDMDL
