MODEL 1
REMARK VINA RESULT:      -8.8      0.000      0.000
REMARK  7 active torsions:
REMARK  status: ('A' for Active; 'I' for Inactive)
REMARK    1  A    between atoms: N1_2  and  C3_4 
REMARK    2  A    between atoms: C3_4  and  C4_5 
REMARK    3  A    between atoms: C5_6  and  C6_7 
REMARK       I    between atoms: C6_7  and  N2_9 
REMARK    4  A    between atoms: N2_9  and  C7_10 
REMARK    5  A    between atoms: C14_19  and  N5_20 
REMARK    6  A    between atoms: N5_20  and  C15_21 
REMARK    7  A    between atoms: C23_31  and  O2_32 
ROOT
HETATM    1  C7  UNL     1      21.601  -0.433  52.780  1.00  0.00     0.045 C 
HETATM    2  C8  UNL     1      21.539  -0.021  51.528  1.00  0.00     0.044 C 
HETATM    3  C9  UNL     1      20.382   0.639  50.884  1.00  0.00     0.023 A 
HETATM    4  C10 UNL     1      19.041   0.450  51.247  1.00  0.00     0.069 A 
HETATM    5  N3  UNL     1      18.074   1.105  50.576  1.00  0.00    -0.259 NA
HETATM    6  C11 UNL     1      18.379   1.947  49.555  1.00  0.00     0.142 A 
HETATM    7  C12 UNL     1      19.696   2.135  49.197  1.00  0.00     0.089 A 
HETATM    8  C13 UNL     1      20.062   3.016  48.121  1.00  0.00     0.103 C 
HETATM    9  N4  UNL     1      20.358   3.736  47.264  1.00  0.00    -0.191 NA
HETATM   10  C14 UNL     1      20.729   1.494  49.842  1.00  0.00     0.067 A 
HETATM   11  C21 UNL     1      18.495  -0.396  52.301  1.00  0.00     0.031 C 
HETATM   12  C22 UNL     1      19.209  -0.695  53.391  1.00  0.00     0.013 C 
HETATM   13  C23 UNL     1      20.570  -0.338  53.847  1.00  0.00     0.191 C 
ENDROOT
BRANCH  10  14
HETATM   14  N5  UNL     1      22.118   1.618  49.557  1.00  0.00    -0.354 N 
HETATM   15  H14 UNL     1      22.719   0.905  49.069  1.00  0.00     0.166 HD
BRANCH  14  16
HETATM   16  C15 UNL     1      22.724   2.841  49.989  1.00  0.00     0.034 A 
HETATM   17  C16 UNL     1      22.292   3.441  51.159  1.00  0.00     0.032 A 
HETATM   18  C17 UNL     1      22.839   4.628  51.634  1.00  0.00     0.046 A 
HETATM   19  C18 UNL     1      23.852   5.249  50.927  1.00  0.00     0.138 A 
HETATM   20  F1  UNL     1      24.409   6.408  51.362  1.00  0.00    -0.204 F 
HETATM   21  C19 UNL     1      24.297   4.661  49.752  1.00  0.00     0.074 A 
HETATM   22 CL1  UNL     1      25.578   5.469  48.884  1.00  0.00    -0.081 Cl
HETATM   23  C20 UNL     1      23.726   3.464  49.299  1.00  0.00     0.056 A 
ENDBRANCH  14  16
ENDBRANCH  10  14
BRANCH   1  24
HETATM   24  N2  UNL     1      22.911  -1.012  52.964  1.00  0.00    -0.325 N 
HETATM   25  C6  UNL     1      24.034  -0.153  53.235  1.00  0.00     0.245 C 
HETATM   26  O1  UNL     1      23.677   1.075  53.279  1.00  0.00    -0.268 OA
HETATM   27  H11 UNL     1      23.105  -2.041  52.911  1.00  0.00     0.169 HD
BRANCH  25  28
HETATM   28  C5  UNL     1      25.417  -0.629  53.436  1.00  0.00     0.072 C 
HETATM   29  C4  UNL     1      26.520  -0.659  52.703  1.00  0.00     0.008 C 
BRANCH  29  30
HETATM   30  C3  UNL     1      27.809  -1.222  53.200  1.00  0.00     0.299 C 
BRANCH  30  31
HETATM   31  N1  UNL     1      28.740  -0.170  53.562  1.00  0.00     0.083 N 
HETATM   32  C1  UNL     1      28.507   0.322  54.908  1.00  0.00     0.309 C 
HETATM   33  C2  UNL     1      30.078  -0.736  53.496  1.00  0.00     0.309 C 
ENDBRANCH  30  31
ENDBRANCH  29  30
ENDBRANCH  25  28
ENDBRANCH   1  24
BRANCH  13  34
HETATM   34  O2  UNL     1      20.915  -1.064  54.963  1.00  0.00    -0.386 OA
HETATM   35  H21 UNL     1      21.732  -0.745  55.434  1.00  0.00     0.210 HD
ENDBRANCH  13  34
TORSDOF 7
ENDMDL
MODEL 2
REMARK VINA RESULT:      -8.6      3.216      5.807
REMARK  7 active torsions:
REMARK  status: ('A' for Active; 'I' for Inactive)
REMARK    1  A    between atoms: N1_2  and  C3_4 
REMARK    2  A    between atoms: C3_4  and  C4_5 
REMARK    3  A    between atoms: C5_6  and  C6_7 
REMARK       I    between atoms: C6_7  and  N2_9 
REMARK    4  A    between atoms: N2_9  and  C7_10 
REMARK    5  A    between atoms: C14_19  and  N5_20 
REMARK    6  A    between atoms: N5_20  and  C15_21 
REMARK    7  A    between atoms: C23_31  and  O2_32 
ROOT
HETATM    1  C7  UNL     1      24.986   2.520  52.748  1.00  0.00     0.045 C 
HETATM    2  C8  UNL     1      23.854   1.967  52.356  1.00  0.00     0.044 C 
HETATM    3  C9  UNL     1      23.224   0.762  52.941  1.00  0.00     0.023 A 
HETATM    4  C10 UNL     1      23.914  -0.284  53.570  1.00  0.00     0.069 A 
HETATM    5  N3  UNL     1      23.225  -1.334  54.058  1.00  0.00    -0.259 NA
HETATM    6  C11 UNL     1      21.872  -1.393  53.951  1.00  0.00     0.142 A 
HETATM    7  C12 UNL     1      21.192  -0.366  53.333  1.00  0.00     0.089 A 
HETATM    8  C13 UNL     1      19.761  -0.390  53.198  1.00  0.00     0.103 C 
HETATM    9  N4  UNL     1      18.607  -0.402  53.101  1.00  0.00    -0.191 NA
HETATM   10  C14 UNL     1      21.838   0.732  52.814  1.00  0.00     0.067 A 
HETATM   11  C21 UNL     1      25.348  -0.422  53.793  1.00  0.00     0.031 C 
HETATM   12  C22 UNL     1      26.140   0.648  53.902  1.00  0.00     0.013 C 
HETATM   13  C23 UNL     1      25.896   2.107  53.848  1.00  0.00     0.191 C 
ENDROOT
BRANCH  10  14
HETATM   14  N5  UNL     1      21.236   1.846  52.163  1.00  0.00    -0.354 N 
HETATM   15  H14 UNL     1      20.595   2.554  52.606  1.00  0.00     0.166 HD
BRANCH  14  16
HETATM   16  C15 UNL     1      21.556   1.988  50.774  1.00  0.00     0.034 A 
HETATM   17  C16 UNL     1      21.347   0.924  49.914  1.00  0.00     0.032 A 
HETATM   18  C17 UNL     1      21.634   0.997  48.556  1.00  0.00     0.046 A 
HETATM   19  C18 UNL     1      22.150   2.164  48.024  1.00  0.00     0.138 A 
HETATM   20  F1  UNL     1      22.441   2.271  46.703  1.00  0.00    -0.204 F 
HETATM   21  C19 UNL     1      22.364   3.241  48.873  1.00  0.00     0.074 A 
HETATM   22 CL1  UNL     1      23.014   4.701  48.170  1.00  0.00    -0.081 Cl
HETATM   23  C20 UNL     1      22.064   3.137  50.237  1.00  0.00     0.056 A 
ENDBRANCH  14  16
ENDBRANCH  10  14
BRANCH   1  24
HETATM   24  N2  UNL     1      25.207   3.663  51.895  1.00  0.00    -0.325 N 
HETATM   25  C6  UNL     1      26.017   3.521  50.714  1.00  0.00     0.245 C 
HETATM   26  O1  UNL     1      26.445   2.321  50.588  1.00  0.00    -0.268 OA
HETATM   27  H11 UNL     1      24.809   4.615  52.082  1.00  0.00     0.169 HD
BRANCH  25  28
HETATM   28  C5  UNL     1      26.317   4.617  49.772  1.00  0.00     0.072 C 
HETATM   29  C4  UNL     1      27.343   4.945  49.001  1.00  0.00     0.008 C 
BRANCH  29  30
HETATM   30  C3  UNL     1      27.348   6.156  48.128  1.00  0.00     0.299 C 
BRANCH  30  31
HETATM   31  N1  UNL     1      28.700   6.535  47.762  1.00  0.00     0.083 N 
HETATM   32  C1  UNL     1      29.129   7.741  48.447  1.00  0.00     0.309 C 
HETATM   33  C2  UNL     1      29.575   5.440  48.151  1.00  0.00     0.309 C 
ENDBRANCH  30  31
ENDBRANCH  29  30
ENDBRANCH  25  28
ENDBRANCH   1  24
BRANCH  13  34
HETATM   34  O2  UNL     1      27.084   2.798  53.822  1.00  0.00    -0.386 OA
HETATM   35  H21 UNL     1      27.181   3.491  54.530  1.00  0.00     0.210 HD
ENDBRANCH  13  34
TORSDOF 7
ENDMDL
MODEL 3
REMARK VINA RESULT:      -8.0      8.713     12.441
REMARK  7 active torsions:
REMARK  status: ('A' for Active; 'I' for Inactive)
REMARK    1  A    between atoms: N1_2  and  C3_4 
REMARK    2  A    between atoms: C3_4  and  C4_5 
REMARK    3  A    between atoms: C5_6  and  C6_7 
REMARK       I    between atoms: C6_7  and  N2_9 
REMARK    4  A    between atoms: N2_9  and  C7_10 
REMARK    5  A    between atoms: C14_19  and  N5_20 
REMARK    6  A    between atoms: N5_20  and  C15_21 
REMARK    7  A    between atoms: C23_31  and  O2_32 
ROOT
HETATM    1  C7  UNL     1      29.059   8.641  48.700  1.00  0.00     0.045 C 
HETATM    2  C8  UNL     1      30.264   8.258  48.325  1.00  0.00     0.044 C 
HETATM    3  C9  UNL     1      31.318   9.127  47.755  1.00  0.00     0.023 A 
HETATM    4  C10 UNL     1      31.086  10.295  47.015  1.00  0.00     0.069 A 
HETATM    5  N3  UNL     1      32.134  10.998  46.542  1.00  0.00    -0.259 NA
HETATM    6  C11 UNL     1      33.410  10.593  46.774  1.00  0.00     0.142 A 
HETATM    7  C12 UNL     1      33.639   9.446  47.501  1.00  0.00     0.089 A 
HETATM    8  C13 UNL     1      34.973   8.982  47.768  1.00  0.00     0.103 C 
HETATM    9  N4  UNL     1      36.048   8.615  47.995  1.00  0.00    -0.191 NA
HETATM   10  C14 UNL     1      32.613   8.684  48.010  1.00  0.00     0.067 A 
HETATM   11  C21 UNL     1      29.813  10.905  46.655  1.00  0.00     0.031 C 
HETATM   12  C22 UNL     1      28.724  10.736  47.410  1.00  0.00     0.013 C 
HETATM   13  C23 UNL     1      28.458  10.001  48.666  1.00  0.00     0.191 C 
ENDROOT
BRANCH  10  14
HETATM   14  N5  UNL     1      32.736   7.489  48.775  1.00  0.00    -0.354 N 
HETATM   15  H14 UNL     1      32.470   7.367  49.786  1.00  0.00     0.166 HD
BRANCH  14  16
HETATM   16  C15 UNL     1      33.277   6.366  48.070  1.00  0.00     0.034 A 
HETATM   17  C16 UNL     1      34.208   5.554  48.691  1.00  0.00     0.032 A 
HETATM   18  C17 UNL     1      34.770   4.448  48.064  1.00  0.00     0.046 A 
HETATM   19  C18 UNL     1      34.399   4.129  46.771  1.00  0.00     0.138 A 
HETATM   20  F1  UNL     1      34.926   3.056  46.128  1.00  0.00    -0.204 F 
HETATM   21  C19 UNL     1      33.465   4.933  46.133  1.00  0.00     0.074 A 
HETATM   22 CL1  UNL     1      33.016   4.503  44.501  1.00  0.00    -0.081 Cl
HETATM   23  C20 UNL     1      32.917   6.041  46.792  1.00  0.00     0.056 A 
ENDBRANCH  14  16
ENDBRANCH  10  14
BRANCH   1  24
HETATM   24  N2  UNL     1      28.380   7.465  49.189  1.00  0.00    -0.325 N 
HETATM   25  C6  UNL     1      27.412   6.806  48.353  1.00  0.00     0.245 C 
HETATM   26  O1  UNL     1      27.293   7.401  47.226  1.00  0.00    -0.268 OA
HETATM   27  H11 UNL     1      28.548   7.047  50.136  1.00  0.00     0.169 HD
BRANCH  25  28
HETATM   28  C5  UNL     1      26.654   5.602  48.745  1.00  0.00     0.072 C 
HETATM   29  C4  UNL     1      26.967   4.382  49.157  1.00  0.00     0.008 C 
BRANCH  29  30
HETATM   30  C3  UNL     1      25.942   3.350  49.489  1.00  0.00     0.299 C 
BRANCH  30  31
HETATM   31  N1  UNL     1      25.714   3.274  50.920  1.00  0.00     0.083 N 
HETATM   32  C1  UNL     1      24.409   2.720  51.233  1.00  0.00     0.309 C 
HETATM   33  C2  UNL     1      26.737   2.402  51.475  1.00  0.00     0.309 C 
ENDBRANCH  30  31
ENDBRANCH  29  30
ENDBRANCH  25  28
ENDBRANCH   1  24
BRANCH  13  34
HETATM   34  O2  UNL     1      27.111   9.977  48.940  1.00  0.00    -0.386 OA
HETATM   35  H21 UNL     1      26.649  10.853  48.844  1.00  0.00     0.210 HD
ENDBRANCH  13  34
TORSDOF 7
ENDMDL
MODEL 4
REMARK VINA RESULT:      -7.9      3.225      7.165
REMARK  7 active torsions:
REMARK  status: ('A' for Active; 'I' for Inactive)
REMARK    1  A    between atoms: N1_2  and  C3_4 
REMARK    2  A    between atoms: C3_4  and  C4_5 
REMARK    3  A    between atoms: C5_6  and  C6_7 
REMARK       I    between atoms: C6_7  and  N2_9 
REMARK    4  A    between atoms: N2_9  and  C7_10 
REMARK    5  A    between atoms: C14_19  and  N5_20 
REMARK    6  A    between atoms: N5_20  and  C15_21 
REMARK    7  A    between atoms: C23_31  and  O2_32 
ROOT
HETATM    1  C7  UNL     1      21.365   1.402  52.626  1.00  0.00     0.045 C 
HETATM    2  C8  UNL     1      22.370   2.217  52.369  1.00  0.00     0.044 C 
HETATM    3  C9  UNL     1      23.773   1.818  52.116  1.00  0.00     0.023 A 
HETATM    4  C10 UNL     1      24.389   0.667  52.629  1.00  0.00     0.069 A 
HETATM    5  N3  UNL     1      25.679   0.417  52.330  1.00  0.00    -0.259 NA
HETATM    6  C11 UNL     1      26.390   1.262  51.539  1.00  0.00     0.142 A 
HETATM    7  C12 UNL     1      25.786   2.392  51.034  1.00  0.00     0.089 A 
HETATM    8  C13 UNL     1      26.503   3.313  50.194  1.00  0.00     0.103 C 
HETATM    9  N4  UNL     1      27.076   4.048  49.506  1.00  0.00    -0.191 NA
HETATM   10  C14 UNL     1      24.473   2.704  51.303  1.00  0.00     0.067 A 
HETATM   11  C21 UNL     1      23.818  -0.364  53.487  1.00  0.00     0.031 C 
HETATM   12  C22 UNL     1      22.510  -0.633  53.472  1.00  0.00     0.013 C 
HETATM   13  C23 UNL     1      21.364  -0.082  52.715  1.00  0.00     0.191 C 
ENDROOT
BRANCH  10  14
HETATM   14  N5  UNL     1      23.753   3.838  50.832  1.00  0.00    -0.354 N 
HETATM   15  H14 UNL     1      23.579   4.730  51.363  1.00  0.00     0.166 HD
BRANCH  14  16
HETATM   16  C15 UNL     1      23.230   3.722  49.504  1.00  0.00     0.034 A 
HETATM   17  C16 UNL     1      22.889   2.475  49.012  1.00  0.00     0.032 A 
HETATM   18  C17 UNL     1      22.374   2.293  47.733  1.00  0.00     0.046 A 
HETATM   19  C18 UNL     1      22.190   3.385  46.904  1.00  0.00     0.138 A 
HETATM   20  F1  UNL     1      21.690   3.245  45.651  1.00  0.00    -0.204 F 
HETATM   21  C19 UNL     1      22.528   4.644  47.383  1.00  0.00     0.074 A 
HETATM   22 CL1  UNL     1      22.282   6.001  46.314  1.00  0.00    -0.081 Cl
HETATM   23  C20 UNL     1      23.043   4.794  48.677  1.00  0.00     0.056 A 
ENDBRANCH  14  16
ENDBRANCH  10  14
BRANCH   1  24
HETATM   24  N2  UNL     1      20.195   2.228  52.805  1.00  0.00    -0.325 N 
HETATM   25  C6  UNL     1      19.313   2.459  51.690  1.00  0.00     0.245 C 
HETATM   26  O1  UNL     1      19.726   1.853  50.641  1.00  0.00    -0.268 OA
HETATM   27  H11 UNL     1      19.936   2.684  53.713  1.00  0.00     0.169 HD
BRANCH  25  28
HETATM   28  C5  UNL     1      18.093   3.287  51.751  1.00  0.00     0.072 C 
HETATM   29  C4  UNL     1      16.803   3.085  51.527  1.00  0.00     0.008 C 
BRANCH  29  30
HETATM   30  C3  UNL     1      15.775   4.155  51.678  1.00  0.00     0.299 C 
BRANCH  30  31
HETATM   31  N1  UNL     1      14.577   3.650  52.322  1.00  0.00     0.083 N 
HETATM   32  C1  UNL     1      14.677   2.231  52.615  1.00  0.00     0.309 C 
HETATM   33  C2  UNL     1      14.421   4.375  53.574  1.00  0.00     0.309 C 
ENDBRANCH  30  31
ENDBRANCH  29  30
ENDBRANCH  25  28
ENDBRANCH   1  24
BRANCH  13  34
HETATM   34  O2  UNL     1      20.176  -0.569  53.208  1.00  0.00    -0.386 OA
HETATM   35  H21 UNL     1      19.645  -1.109  52.563  1.00  0.00     0.210 HD
ENDBRANCH  13  34
TORSDOF 7
ENDMDL
MODEL 5
REMARK VINA RESULT:      -7.9      8.894     12.300
REMARK  7 active torsions:
REMARK  status: ('A' for Active; 'I' for Inactive)
REMARK    1  A    between atoms: N1_2  and  C3_4 
REMARK    2  A    between atoms: C3_4  and  C4_5 
REMARK    3  A    between atoms: C5_6  and  C6_7 
REMARK       I    between atoms: C6_7  and  N2_9 
REMARK    4  A    between atoms: N2_9  and  C7_10 
REMARK    5  A    between atoms: C14_19  and  N5_20 
REMARK    6  A    between atoms: N5_20  and  C15_21 
REMARK    7  A    between atoms: C23_31  and  O2_32 
ROOT
HETATM    1  C7  UNL     1      29.423   8.308  48.548  1.00  0.00     0.045 C 
HETATM    2  C8  UNL     1      30.056   8.118  47.406  1.00  0.00     0.044 C 
HETATM    3  C9  UNL     1      30.823   9.137  46.655  1.00  0.00     0.023 A 
HETATM    4  C10 UNL     1      30.571  10.516  46.680  1.00  0.00     0.069 A 
HETATM    5  N3  UNL     1      31.339  11.343  45.943  1.00  0.00    -0.259 NA
HETATM    6  C11 UNL     1      32.352  10.861  45.179  1.00  0.00     0.142 A 
HETATM    7  C12 UNL     1      32.601   9.506  45.154  1.00  0.00     0.089 A 
HETATM    8  C13 UNL     1      33.664   8.954  44.357  1.00  0.00     0.103 C 
HETATM    9  N4  UNL     1      34.528   8.510  43.727  1.00  0.00    -0.191 NA
HETATM   10  C14 UNL     1      31.854   8.610  45.882  1.00  0.00     0.067 A 
HETATM   11  C21 UNL     1      29.547  11.240  47.423  1.00  0.00     0.031 C 
HETATM   12  C22 UNL     1      29.055  10.764  48.570  1.00  0.00     0.013 C 
HETATM   13  C23 UNL     1      29.321   9.545  49.366  1.00  0.00     0.191 C 
ENDROOT
BRANCH  10  14
HETATM   14  N5  UNL     1      32.026   7.198  45.932  1.00  0.00    -0.354 N 
HETATM   15  H14 UNL     1      31.485   6.484  45.378  1.00  0.00     0.166 HD
BRANCH  14  16
HETATM   16  C15 UNL     1      33.043   6.737  46.829  1.00  0.00     0.034 A 
HETATM   17  C16 UNL     1      33.707   7.647  47.632  1.00  0.00     0.032 A 
HETATM   18  C17 UNL     1      34.703   7.266  48.525  1.00  0.00     0.046 A 
HETATM   19  C18 UNL     1      35.060   5.934  48.629  1.00  0.00     0.138 A 
HETATM   20  F1  UNL     1      36.026   5.526  49.490  1.00  0.00    -0.204 F 
HETATM   21  C19 UNL     1      34.403   5.008  47.830  1.00  0.00     0.074 A 
HETATM   22 CL1  UNL     1      34.875   3.335  47.986  1.00  0.00    -0.081 Cl
HETATM   23  C20 UNL     1      33.403   5.424  46.941  1.00  0.00     0.056 A 
ENDBRANCH  14  16
ENDBRANCH  10  14
BRANCH   1  24
HETATM   24  N2  UNL     1      28.819   7.046  48.905  1.00  0.00    -0.325 N 
HETATM   25  C6  UNL     1      27.438   6.804  48.579  1.00  0.00     0.245 C 
HETATM   26  O1  UNL     1      26.921   7.811  47.980  1.00  0.00    -0.268 OA
HETATM   27  H11 UNL     1      29.330   6.275  49.397  1.00  0.00     0.169 HD
BRANCH  25  28
HETATM   28  C5  UNL     1      26.713   5.558  48.896  1.00  0.00     0.072 C 
HETATM   29  C4  UNL     1      27.059   4.312  49.181  1.00  0.00     0.008 C 
BRANCH  29  30
HETATM   30  C3  UNL     1      26.062   3.238  49.465  1.00  0.00     0.299 C 
BRANCH  30  31
HETATM   31  N1  UNL     1      25.739   3.180  50.878  1.00  0.00     0.083 N 
HETATM   32  C1  UNL     1      24.450   2.555  51.115  1.00  0.00     0.309 C 
HETATM   33  C2  UNL     1      26.770   2.383  51.525  1.00  0.00     0.309 C 
ENDBRANCH  30  31
ENDBRANCH  29  30
ENDBRANCH  25  28
ENDBRANCH   1  24
BRANCH  13  34
HETATM   34  O2  UNL     1      28.405   9.419  50.383  1.00  0.00    -0.386 OA
HETATM   35  H21 UNL     1      28.745   9.661  51.286  1.00  0.00     0.210 HD
ENDBRANCH  13  34
TORSDOF 7
ENDMDL
MODEL 6
REMARK VINA RESULT:      -7.8      3.103      5.547
REMARK  7 active torsions:
REMARK  status: ('A' for Active; 'I' for Inactive)
REMARK    1  A    between atoms: N1_2  and  C3_4 
REMARK    2  A    between atoms: C3_4  and  C4_5 
REMARK    3  A    between atoms: C5_6  and  C6_7 
REMARK       I    between atoms: C6_7  and  N2_9 
REMARK    4  A    between atoms: N2_9  and  C7_10 
REMARK    5  A    between atoms: C14_19  and  N5_20 
REMARK    6  A    between atoms: N5_20  and  C15_21 
REMARK    7  A    between atoms: C23_31  and  O2_32 
ROOT
HETATM    1  C7  UNL     1      25.871   3.770  49.306  1.00  0.00     0.045 C 
HETATM    2  C8  UNL     1      24.578   3.532  49.185  1.00  0.00     0.044 C 
HETATM    3  C9  UNL     1      23.569   4.461  48.630  1.00  0.00     0.023 A 
HETATM    4  C10 UNL     1      23.656   5.859  48.664  1.00  0.00     0.069 A 
HETATM    5  N3  UNL     1      22.665   6.599  48.129  1.00  0.00    -0.259 NA
HETATM    6  C11 UNL     1      21.584   6.008  47.556  1.00  0.00     0.142 A 
HETATM    7  C12 UNL     1      21.497   4.633  47.521  1.00  0.00     0.089 A 
HETATM    8  C13 UNL     1      20.370   3.969  46.925  1.00  0.00     0.103 C 
HETATM    9  N4  UNL     1      19.469   3.433  46.432  1.00  0.00    -0.191 NA
HETATM   10  C14 UNL     1      22.475   3.824  48.051  1.00  0.00     0.067 A 
HETATM   11  C21 UNL     1      24.715   6.691  49.222  1.00  0.00     0.031 C 
HETATM   12  C22 UNL     1      25.974   6.251  49.302  1.00  0.00     0.013 C 
HETATM   13  C23 UNL     1      26.637   4.984  48.922  1.00  0.00     0.191 C 
ENDROOT
BRANCH  10  14
HETATM   14  N5  UNL     1      22.488   2.401  48.065  1.00  0.00    -0.354 N 
HETATM   15  H14 UNL     1      22.891   1.774  47.321  1.00  0.00     0.166 HD
BRANCH  14  16
HETATM   16  C15 UNL     1      21.888   1.796  49.216  1.00  0.00     0.034 A 
HETATM   17  C16 UNL     1      20.546   1.463  49.191  1.00  0.00     0.032 A 
HETATM   18  C17 UNL     1      19.903   0.872  50.273  1.00  0.00     0.046 A 
HETATM   19  C18 UNL     1      20.612   0.600  51.428  1.00  0.00     0.138 A 
HETATM   20  F1  UNL     1      20.018   0.024  52.504  1.00  0.00    -0.204 F 
HETATM   21  C19 UNL     1      21.961   0.928  51.471  1.00  0.00     0.074 A 
HETATM   22 CL1  UNL     1      22.828   0.570  52.943  1.00  0.00    -0.081 Cl
HETATM   23  C20 UNL     1      22.579   1.521  50.363  1.00  0.00     0.056 A 
ENDBRANCH  14  16
ENDBRANCH  10  14
BRANCH   1  24
HETATM   24  N2  UNL     1      26.458   2.590  49.895  1.00  0.00    -0.325 N 
HETATM   25  C6  UNL     1      26.159   2.256  51.263  1.00  0.00     0.245 C 
HETATM   26  O1  UNL     1      25.362   3.112  51.784  1.00  0.00    -0.268 OA
HETATM   27  H11 UNL     1      27.104   1.943  49.382  1.00  0.00     0.169 HD
BRANCH  25  28
HETATM   28  C5  UNL     1      26.702   1.081  51.972  1.00  0.00     0.072 C 
HETATM   29  C4  UNL     1      27.236   0.861  53.164  1.00  0.00     0.008 C 
BRANCH  29  30
HETATM   30  C3  UNL     1      27.706  -0.483  53.608  1.00  0.00     0.299 C 
BRANCH  30  31
HETATM   31  N1  UNL     1      28.928  -0.384  54.385  1.00  0.00     0.083 N 
HETATM   32  C1  UNL     1      30.058  -0.984  53.698  1.00  0.00     0.309 C 
HETATM   33  C2  UNL     1      29.199   1.031  54.583  1.00  0.00     0.309 C 
ENDBRANCH  30  31
ENDBRANCH  29  30
ENDBRANCH  25  28
ENDBRANCH   1  24
BRANCH  13  34
HETATM   34  O2  UNL     1      27.928   4.950  49.393  1.00  0.00    -0.386 OA
HETATM   35  H21 UNL     1      28.389   5.831  49.414  1.00  0.00     0.210 HD
ENDBRANCH  13  34
TORSDOF 7
ENDMDL
MODEL 7
REMARK VINA RESULT:      -7.7      3.987      6.898
REMARK  7 active torsions:
REMARK  status: ('A' for Active; 'I' for Inactive)
REMARK    1  A    between atoms: N1_2  and  C3_4 
REMARK    2  A    between atoms: C3_4  and  C4_5 
REMARK    3  A    between atoms: C5_6  and  C6_7 
REMARK       I    between atoms: C6_7  and  N2_9 
REMARK    4  A    between atoms: N2_9  and  C7_10 
REMARK    5  A    between atoms: C14_19  and  N5_20 
REMARK    6  A    between atoms: N5_20  and  C15_21 
REMARK    7  A    between atoms: C23_31  and  O2_32 
ROOT
HETATM    1  C7  UNL     1      26.038   5.472  49.459  1.00  0.00     0.045 C 
HETATM    2  C8  UNL     1      24.931   6.165  49.270  1.00  0.00     0.044 C 
HETATM    3  C9  UNL     1      24.644   7.053  48.122  1.00  0.00     0.023 A 
HETATM    4  C10 UNL     1      25.609   7.743  47.375  1.00  0.00     0.069 A 
HETATM    5  N3  UNL     1      25.219   8.530  46.353  1.00  0.00    -0.259 NA
HETATM    6  C11 UNL     1      23.905   8.662  46.035  1.00  0.00     0.142 A 
HETATM    7  C12 UNL     1      22.955   7.984  46.768  1.00  0.00     0.089 A 
HETATM    8  C13 UNL     1      21.554   8.099  46.466  1.00  0.00     0.103 C 
HETATM    9  N4  UNL     1      20.426   8.179  46.214  1.00  0.00    -0.191 NA
HETATM   10  C14 UNL     1      23.289   7.167  47.823  1.00  0.00     0.067 A 
HETATM   11  C21 UNL     1      27.057   7.743  47.540  1.00  0.00     0.031 C 
HETATM   12  C22 UNL     1      27.695   6.697  48.074  1.00  0.00     0.013 C 
HETATM   13  C23 UNL     1      27.246   5.388  48.597  1.00  0.00     0.191 C 
ENDROOT
BRANCH  10  14
HETATM   14  N5  UNL     1      22.393   6.422  48.640  1.00  0.00    -0.354 N 
HETATM   15  H14 UNL     1      21.769   6.809  49.394  1.00  0.00     0.166 HD
BRANCH  14  16
HETATM   16  C15 UNL     1      22.361   5.013  48.385  1.00  0.00     0.034 A 
HETATM   17  C16 UNL     1      22.293   4.558  47.080  1.00  0.00     0.032 A 
HETATM   18  C17 UNL     1      22.260   3.204  46.763  1.00  0.00     0.046 A 
HETATM   19  C18 UNL     1      22.295   2.261  47.773  1.00  0.00     0.138 A 
HETATM   20  F1  UNL     1      22.266   0.932  47.501  1.00  0.00    -0.204 F 
HETATM   21  C19 UNL     1      22.364   2.701  49.088  1.00  0.00     0.074 A 
HETATM   22 CL1  UNL     1      22.408   1.485  50.341  1.00  0.00    -0.081 Cl
HETATM   23  C20 UNL     1      22.396   4.072  49.375  1.00  0.00     0.056 A 
ENDBRANCH  14  16
ENDBRANCH  10  14
BRANCH   1  24
HETATM   24  N2  UNL     1      25.875   4.757  50.703  1.00  0.00    -0.325 N 
HETATM   25  C6  UNL     1      25.748   3.324  50.684  1.00  0.00     0.245 C 
HETATM   26  O1  UNL     1      25.806   2.869  49.489  1.00  0.00    -0.268 OA
HETATM   27  H11 UNL     1      25.841   5.222  51.642  1.00  0.00     0.169 HD
BRANCH  25  28
HETATM   28  C5  UNL     1      25.572   2.487  51.887  1.00  0.00     0.072 C 
HETATM   29  C4  UNL     1      25.775   1.213  52.189  1.00  0.00     0.008 C 
BRANCH  29  30
HETATM   30  C3  UNL     1      25.493   0.644  53.539  1.00  0.00     0.299 C 
BRANCH  30  31
HETATM   31  N1  UNL     1      26.435  -0.407  53.876  1.00  0.00     0.083 N 
HETATM   32  C1  UNL     1      26.850  -1.159  52.706  1.00  0.00     0.309 C 
HETATM   33  C2  UNL     1      27.605   0.233  54.459  1.00  0.00     0.309 C 
ENDBRANCH  30  31
ENDBRANCH  29  30
ENDBRANCH  25  28
ENDBRANCH   1  24
BRANCH  13  34
HETATM   34  O2  UNL     1      28.281   4.733  49.222  1.00  0.00    -0.386 OA
HETATM   35  H21 UNL     1      28.406   4.967  50.181  1.00  0.00     0.210 HD
ENDBRANCH  13  34
TORSDOF 7
ENDMDL
MODEL 8
REMARK VINA RESULT:      -7.6      2.412      6.756
REMARK  7 active torsions:
REMARK  status: ('A' for Active; 'I' for Inactive)
REMARK    1  A    between atoms: N1_2  and  C3_4 
REMARK    2  A    between atoms: C3_4  and  C4_5 
REMARK    3  A    between atoms: C5_6  and  C6_7 
REMARK       I    between atoms: C6_7  and  N2_9 
REMARK    4  A    between atoms: N2_9  and  C7_10 
REMARK    5  A    between atoms: C14_19  and  N5_20 
REMARK    6  A    between atoms: N5_20  and  C15_21 
REMARK    7  A    between atoms: C23_31  and  O2_32 
ROOT
HETATM    1  C7  UNL     1      21.584  -0.299  53.603  1.00  0.00     0.045 C 
HETATM    2  C8  UNL     1      22.380   0.628  53.105  1.00  0.00     0.044 C 
HETATM    3  C9  UNL     1      23.859   0.596  53.103  1.00  0.00     0.023 A 
HETATM    4  C10 UNL     1      24.653  -0.059  54.055  1.00  0.00     0.069 A 
HETATM    5  N3  UNL     1      25.995  -0.008  53.948  1.00  0.00    -0.259 NA
HETATM    6  C11 UNL     1      26.590   0.668  52.931  1.00  0.00     0.142 A 
HETATM    7  C12 UNL     1      25.811   1.313  51.994  1.00  0.00     0.089 A 
HETATM    8  C13 UNL     1      26.401   2.041  50.904  1.00  0.00     0.103 C 
HETATM    9  N4  UNL     1      26.875   2.615  50.016  1.00  0.00    -0.191 NA
HETATM   10  C14 UNL     1      24.437   1.298  52.049  1.00  0.00     0.067 A 
HETATM   11  C21 UNL     1      24.229  -0.836  55.213  1.00  0.00     0.031 C 
HETATM   12  C22 UNL     1      23.050  -1.464  55.234  1.00  0.00     0.013 C 
HETATM   13  C23 UNL     1      21.941  -1.583  54.261  1.00  0.00     0.191 C 
ENDROOT
BRANCH  10  14
HETATM   14  N5  UNL     1      23.541   1.924  51.137  1.00  0.00    -0.354 N 
HETATM   15  H14 UNL     1      22.874   1.436  50.485  1.00  0.00     0.166 HD
BRANCH  14  16
HETATM   16  C15 UNL     1      23.576   3.356  51.131  1.00  0.00     0.034 A 
HETATM   17  C16 UNL     1      23.528   4.044  52.330  1.00  0.00     0.032 A 
HETATM   18  C17 UNL     1      23.560   5.433  52.395  1.00  0.00     0.046 A 
HETATM   19  C18 UNL     1      23.641   6.173  51.230  1.00  0.00     0.138 A 
HETATM   20  F1  UNL     1      23.674   7.530  51.255  1.00  0.00    -0.204 F 
HETATM   21  C19 UNL     1      23.690   5.498  50.018  1.00  0.00     0.074 A 
HETATM   22 CL1  UNL     1      23.794   6.461  48.566  1.00  0.00    -0.081 Cl
HETATM   23  C20 UNL     1      23.657   4.098  49.987  1.00  0.00     0.056 A 
ENDBRANCH  14  16
ENDBRANCH  10  14
BRANCH   1  24
HETATM   24  N2  UNL     1      20.230   0.153  53.383  1.00  0.00    -0.325 N 
HETATM   25  C6  UNL     1      19.768   0.377  52.038  1.00  0.00     0.245 C 
HETATM   26  O1  UNL     1      20.687   0.121  51.184  1.00  0.00    -0.268 OA
HETATM   27  H11 UNL     1      19.544   0.335  54.154  1.00  0.00     0.169 HD
BRANCH  25  28
HETATM   28  C5  UNL     1      18.411   0.841  51.691  1.00  0.00     0.072 C 
HETATM   29  C4  UNL     1      17.188   0.344  51.792  1.00  0.00     0.008 C 
BRANCH  29  30
HETATM   30  C3  UNL     1      15.971   1.079  51.337  1.00  0.00     0.299 C 
BRANCH  30  31
HETATM   31  N1  UNL     1      15.059   1.322  52.439  1.00  0.00     0.083 N 
HETATM   32  C1  UNL     1      14.815   2.739  52.639  1.00  0.00     0.309 C 
HETATM   33  C2  UNL     1      13.800   0.673  52.107  1.00  0.00     0.309 C 
ENDBRANCH  30  31
ENDBRANCH  29  30
ENDBRANCH  25  28
ENDBRANCH   1  24
BRANCH  13  34
HETATM   34  O2  UNL     1      20.850  -2.189  54.838  1.00  0.00    -0.386 OA
HETATM   35  H21 UNL     1      20.231  -2.634  54.199  1.00  0.00     0.210 HD
ENDBRANCH  13  34
TORSDOF 7
ENDMDL
MODEL 9
REMARK VINA RESULT:      -7.4      4.921      7.185
REMARK  7 active torsions:
REMARK  status: ('A' for Active; 'I' for Inactive)
REMARK    1  A    between atoms: N1_2  and  C3_4 
REMARK    2  A    between atoms: C3_4  and  C4_5 
REMARK    3  A    between atoms: C5_6  and  C6_7 
REMARK       I    between atoms: C6_7  and  N2_9 
REMARK    4  A    between atoms: N2_9  and  C7_10 
REMARK    5  A    between atoms: C14_19  and  N5_20 
REMARK    6  A    between atoms: N5_20  and  C15_21 
REMARK    7  A    between atoms: C23_31  and  O2_32 
ROOT
HETATM    1  C7  UNL     1      25.010   5.647  50.434  1.00  0.00     0.045 C 
HETATM    2  C8  UNL     1      25.385   5.990  49.216  1.00  0.00     0.044 C 
HETATM    3  C9  UNL     1      24.820   7.093  48.408  1.00  0.00     0.023 A 
HETATM    4  C10 UNL     1      23.508   7.577  48.509  1.00  0.00     0.069 A 
HETATM    5  N3  UNL     1      23.110   8.586  47.710  1.00  0.00    -0.259 NA
HETATM    6  C11 UNL     1      23.962   9.142  46.809  1.00  0.00     0.142 A 
HETATM    7  C12 UNL     1      25.252   8.668  46.709  1.00  0.00     0.089 A 
HETATM    8  C13 UNL     1      26.184   9.227  45.768  1.00  0.00     0.103 C 
HETATM    9  N4  UNL     1      26.940   9.687  45.020  1.00  0.00    -0.191 NA
HETATM   10  C14 UNL     1      25.718   7.640  47.496  1.00  0.00     0.067 A 
HETATM   11  C21 UNL     1      22.441   7.133  49.398  1.00  0.00     0.031 C 
HETATM   12  C22 UNL     1      22.711   6.575  50.581  1.00  0.00     0.013 C 
HETATM   13  C23 UNL     1      23.967   6.261  51.298  1.00  0.00     0.191 C 
ENDROOT
BRANCH  10  14
HETATM   14  N5  UNL     1      27.026   7.079  47.477  1.00  0.00    -0.354 N 
HETATM   15  H14 UNL     1      27.298   6.146  47.072  1.00  0.00     0.166 HD
BRANCH  14  16
HETATM   16  C15 UNL     1      28.047   7.888  48.073  1.00  0.00     0.034 A 
HETATM   17  C16 UNL     1      27.727   8.719  49.132  1.00  0.00     0.032 A 
HETATM   18  C17 UNL     1      28.670   9.528  49.756  1.00  0.00     0.046 A 
HETATM   19  C18 UNL     1      29.982   9.518  49.318  1.00  0.00     0.138 A 
HETATM   20  F1  UNL     1      30.929  10.294  49.903  1.00  0.00    -0.204 F 
HETATM   21  C19 UNL     1      30.319   8.690  48.256  1.00  0.00     0.074 A 
HETATM   22 CL1  UNL     1      31.983   8.699  47.727  1.00  0.00    -0.081 Cl
HETATM   23  C20 UNL     1      29.346   7.886  47.649  1.00  0.00     0.056 A 
ENDBRANCH  14  16
ENDBRANCH  10  14
BRANCH   1  24
HETATM   24  N2  UNL     1      25.829   4.524  50.822  1.00  0.00    -0.325 N 
HETATM   25  C6  UNL     1      25.269   3.198  50.805  1.00  0.00     0.245 C 
HETATM   26  O1  UNL     1      24.048   3.217  50.420  1.00  0.00    -0.268 OA
HETATM   27  H11 UNL     1      26.830   4.609  51.123  1.00  0.00     0.169 HD
BRANCH  25  28
HETATM   28  C5  UNL     1      26.006   1.977  51.184  1.00  0.00     0.072 C 
HETATM   29  C4  UNL     1      26.242   1.330  52.315  1.00  0.00     0.008 C 
BRANCH  29  30
HETATM   30  C3  UNL     1      27.051   0.077  52.380  1.00  0.00     0.299 C 
BRANCH  30  31
HETATM   31  N1  UNL     1      27.653  -0.094  53.689  1.00  0.00     0.083 N 
HETATM   32  C1  UNL     1      28.861   0.698  53.838  1.00  0.00     0.309 C 
HETATM   33  C2  UNL     1      26.679   0.351  54.674  1.00  0.00     0.309 C 
ENDBRANCH  30  31
ENDBRANCH  29  30
ENDBRANCH  25  28
ENDBRANCH   1  24
BRANCH  13  34
HETATM   34  O2  UNL     1      23.712   5.504  52.417  1.00  0.00    -0.386 OA
HETATM   35  H21 UNL     1      22.755   5.271  52.556  1.00  0.00     0.210 HD
ENDBRANCH  13  34
TORSDOF 7
ENDMDL
