MODEL 1
REMARK VINA RESULT:      -8.9      0.000      0.000
REMARK  2 active torsions:
REMARK  status: ('A' for Active; 'I' for Inactive)
REMARK    1  A    between atoms: C9_11  and  N2_12 
REMARK    2  A    between atoms: N2_12  and  C10_13 
ROOT
HETATM    1  F1  UNL     1      17.369  -2.297  52.998  1.00  0.00    -0.206 F 
HETATM    2  C1  UNL     1      18.170  -1.241  52.706  1.00  0.00     0.117 A 
HETATM    3  C2  UNL     1      17.871  -0.472  51.613  1.00  0.00     0.045 A 
HETATM    4  C3  UNL     1      18.704   0.593  51.344  1.00  0.00     0.041 A 
HETATM    5  C4  UNL     1      19.809   0.935  52.096  1.00  0.00     0.085 A 
HETATM    6  C5  UNL     1      20.102   0.154  53.195  1.00  0.00    -0.002 A 
HETATM    7  C6  UNL     1      19.273  -0.915  53.472  1.00  0.00     0.054 A 
HETATM    8  C7  UNL     1      21.263   0.426  54.076  1.00  0.00     0.191 C 
HETATM    9  N1  UNL     1      22.159  -0.670  54.280  1.00  0.00    -0.279 NA
HETATM   10  C8  UNL     1      23.217  -0.820  53.561  1.00  0.00     0.129 C 
HETATM   11  C9  UNL     1      23.660   0.325  53.087  1.00  0.00     0.160 C 
HETATM   12  N3  UNL     1      22.614   0.654  52.151  1.00  0.00    -0.222 NA
HETATM   13  C16 UNL     1      22.982   1.358  51.128  1.00  0.00     0.237 C 
HETATM   14  N4  UNL     1      22.067   1.772  50.099  1.00  0.00    -0.230 NA
HETATM   15  C17 UNL     1      20.862   2.105  50.346  1.00  0.00     0.260 C 
HETATM   16  O1  UNL     1      20.539   2.023  51.701  1.00  0.00    -0.303 OA
ENDROOT
BRANCH  11  17
HETATM   17  N2  UNL     1      24.892   0.894  53.540  1.00  0.00    -0.339 N 
HETATM   18  H6  UNL     1      24.581   1.779  54.013  1.00  0.00     0.167 HD
BRANCH  17  19
HETATM   19  C10 UNL     1      26.292   0.586  53.509  1.00  0.00     0.035 A 
HETATM   20  C11 UNL     1      27.142   1.681  53.672  1.00  0.00     0.032 A 
HETATM   21  C12 UNL     1      28.511   1.434  53.649  1.00  0.00     0.046 A 
HETATM   22  C13 UNL     1      28.985   0.161  53.473  1.00  0.00     0.138 A 
HETATM   23  F2  UNL     1      30.301  -0.066  53.453  1.00  0.00    -0.204 F 
HETATM   24  C14 UNL     1      28.137  -0.933  53.311  1.00  0.00     0.074 A 
HETATM   25 CL1  UNL     1      28.701  -2.580  53.082  1.00  0.00    -0.081 Cl
HETATM   26  C15 UNL     1      26.771  -0.689  53.332  1.00  0.00     0.056 A 
ENDBRANCH  17  19
ENDBRANCH  11  17
TORSDOF 2
ENDMDL
MODEL 2
REMARK VINA RESULT:      -8.9      4.294      5.651
REMARK  2 active torsions:
REMARK  status: ('A' for Active; 'I' for Inactive)
REMARK    1  A    between atoms: C9_11  and  N2_12 
REMARK    2  A    between atoms: N2_12  and  C10_13 
ROOT
HETATM    1  F1  UNL     1      20.350  -1.724  54.613  1.00  0.00    -0.206 F 
HETATM    2  C1  UNL     1      21.525  -1.182  54.204  1.00  0.00     0.117 A 
HETATM    3  C2  UNL     1      22.674  -1.530  54.865  1.00  0.00     0.045 A 
HETATM    4  C3  UNL     1      23.851  -0.962  54.425  1.00  0.00     0.041 A 
HETATM    5  C4  UNL     1      23.951  -0.076  53.373  1.00  0.00     0.085 A 
HETATM    6  C5  UNL     1      22.788   0.268  52.714  1.00  0.00    -0.002 A 
HETATM    7  C6  UNL     1      21.604  -0.295  53.148  1.00  0.00     0.054 A 
HETATM    8  C7  UNL     1      22.773   1.211  51.569  1.00  0.00     0.191 C 
HETATM    9  N1  UNL     1      21.878   2.320  51.689  1.00  0.00    -0.279 NA
HETATM   10  C8  UNL     1      22.274   3.460  52.139  1.00  0.00     0.129 C 
HETATM   11  C9  UNL     1      23.558   3.658  51.928  1.00  0.00     0.160 C 
HETATM   12  N3  UNL     1      24.132   2.683  52.821  1.00  0.00    -0.222 NA
HETATM   13  C16 UNL     1      25.297   2.984  53.301  1.00  0.00     0.237 C 
HETATM   14  N4  UNL     1      26.011   2.125  54.205  1.00  0.00    -0.230 NA
HETATM   15  C17 UNL     1      25.981   0.855  54.113  1.00  0.00     0.260 C 
HETATM   16  O1  UNL     1      25.192   0.402  53.055  1.00  0.00    -0.303 OA
ENDROOT
BRANCH  11  17
HETATM   17  N2  UNL     1      24.019   4.646  51.001  1.00  0.00    -0.339 N 
HETATM   18  H6  UNL     1      23.219   5.326  50.968  1.00  0.00     0.167 HD
BRANCH  17  19
HETATM   19  C10 UNL     1      25.176   4.905  50.196  1.00  0.00     0.035 A 
HETATM   20  C11 UNL     1      25.936   3.779  49.875  1.00  0.00     0.032 A 
HETATM   21  C12 UNL     1      27.071   3.977  49.095  1.00  0.00     0.046 A 
HETATM   22  C13 UNL     1      27.411   5.234  48.669  1.00  0.00     0.138 A 
HETATM   23  F2  UNL     1      28.502   5.414  47.921  1.00  0.00    -0.204 F 
HETATM   24  C14 UNL     1      26.653   6.358  48.990  1.00  0.00     0.074 A 
HETATM   25 CL1  UNL     1      27.051   7.986  48.466  1.00  0.00    -0.081 Cl
HETATM   26  C15 UNL     1      25.521   6.163  49.768  1.00  0.00     0.056 A 
ENDBRANCH  17  19
ENDBRANCH  11  17
TORSDOF 2
ENDMDL
MODEL 3
REMARK VINA RESULT:      -8.6      4.173      7.415
REMARK  2 active torsions:
REMARK  status: ('A' for Active; 'I' for Inactive)
REMARK    1  A    between atoms: C9_11  and  N2_12 
REMARK    2  A    between atoms: N2_12  and  C10_13 
ROOT
HETATM    1  F1  UNL     1      28.653   5.516  48.045  1.00  0.00    -0.206 F 
HETATM    2  C1  UNL     1      27.443   5.214  48.580  1.00  0.00     0.117 A 
HETATM    3  C2  UNL     1      26.468   6.176  48.583  1.00  0.00     0.045 A 
HETATM    4  C3  UNL     1      25.250   5.836  49.134  1.00  0.00     0.041 A 
HETATM    5  C4  UNL     1      24.948   4.605  49.676  1.00  0.00     0.085 A 
HETATM    6  C5  UNL     1      25.938   3.643  49.668  1.00  0.00    -0.002 A 
HETATM    7  C6  UNL     1      27.161   3.973  49.119  1.00  0.00     0.054 A 
HETATM    8  C7  UNL     1      25.729   2.283  50.222  1.00  0.00     0.191 C 
HETATM    9  N1  UNL     1      26.681   1.858  51.201  1.00  0.00    -0.279 NA
HETATM   10  C8  UNL     1      26.461   1.998  52.462  1.00  0.00     0.129 C 
HETATM   11  C9  UNL     1      25.175   2.010  52.742  1.00  0.00     0.160 C 
HETATM   12  N3  UNL     1      24.780   3.263  52.151  1.00  0.00    -0.222 NA
HETATM   13  C16 UNL     1      23.778   3.857  52.718  1.00  0.00     0.237 C 
HETATM   14  N4  UNL     1      23.256   5.114  52.257  1.00  0.00    -0.230 NA
HETATM   15  C17 UNL     1      23.199   5.422  51.021  1.00  0.00     0.260 C 
HETATM   16  O1  UNL     1      23.692   4.420  50.185  1.00  0.00    -0.303 OA
ENDROOT
BRANCH  11  17
HETATM   17  N2  UNL     1      24.558   0.938  53.461  1.00  0.00    -0.339 N 
HETATM   18  H6  UNL     1      25.327   0.609  54.096  1.00  0.00     0.167 HD
BRANCH  17  19
HETATM   19  C10 UNL     1      23.287   0.277  53.520  1.00  0.00     0.035 A 
HETATM   20  C11 UNL     1      23.244  -0.849  54.344  1.00  0.00     0.032 A 
HETATM   21  C12 UNL     1      22.032  -1.527  54.436  1.00  0.00     0.046 A 
HETATM   22  C13 UNL     1      20.938  -1.090  53.737  1.00  0.00     0.138 A 
HETATM   23  F2  UNL     1      19.779  -1.747  53.831  1.00  0.00    -0.204 F 
HETATM   24  C14 UNL     1      20.980   0.034  52.914  1.00  0.00     0.074 A 
HETATM   25 CL1  UNL     1      19.602   0.628  52.002  1.00  0.00    -0.081 Cl
HETATM   26  C15 UNL     1      22.187   0.710  52.821  1.00  0.00     0.056 A 
ENDBRANCH  17  19
ENDBRANCH  11  17
TORSDOF 2
ENDMDL
MODEL 4
REMARK VINA RESULT:      -8.4      2.378      3.619
REMARK  2 active torsions:
REMARK  status: ('A' for Active; 'I' for Inactive)
REMARK    1  A    between atoms: C9_11  and  N2_12 
REMARK    2  A    between atoms: N2_12  and  C10_13 
ROOT
HETATM    1  F1  UNL     1      20.236   5.590  50.827  1.00  0.00    -0.206 F 
HETATM    2  C1  UNL     1      20.341   4.268  51.118  1.00  0.00     0.117 A 
HETATM    3  C2  UNL     1      19.236   3.609  51.590  1.00  0.00     0.045 A 
HETATM    4  C3  UNL     1      19.377   2.268  51.875  1.00  0.00     0.041 A 
HETATM    5  C4  UNL     1      20.544   1.549  51.720  1.00  0.00     0.085 A 
HETATM    6  C5  UNL     1      21.651   2.223  51.245  1.00  0.00    -0.002 A 
HETATM    7  C6  UNL     1      21.520   3.566  50.956  1.00  0.00     0.054 A 
HETATM    8  C7  UNL     1      22.959   1.554  51.037  1.00  0.00     0.191 C 
HETATM    9  N1  UNL     1      24.079   2.164  51.684  1.00  0.00    -0.279 NA
HETATM   10  C8  UNL     1      24.486   1.772  52.841  1.00  0.00     0.129 C 
HETATM   11  C9  UNL     1      24.189   0.509  53.069  1.00  0.00     0.160 C 
HETATM   12  N3  UNL     1      22.754   0.585  53.181  1.00  0.00    -0.222 NA
HETATM   13  C16 UNL     1      22.208  -0.300  53.955  1.00  0.00     0.237 C 
HETATM   14  N4  UNL     1      20.790  -0.368  54.179  1.00  0.00    -0.230 NA
HETATM   15  C17 UNL     1      19.938  -0.118  53.265  1.00  0.00     0.260 C 
HETATM   16  O1  UNL     1      20.526   0.221  52.047  1.00  0.00    -0.303 OA
ENDROOT
BRANCH  11  17
HETATM   17  N2  UNL     1      25.205  -0.495  53.141  1.00  0.00    -0.339 N 
HETATM   18  H6  UNL     1      24.663  -1.386  53.015  1.00  0.00     0.167 HD
BRANCH  17  19
HETATM   19  C10 UNL     1      26.625  -0.573  53.324  1.00  0.00     0.035 A 
HETATM   20  C11 UNL     1      27.211  -1.765  52.897  1.00  0.00     0.032 A 
HETATM   21  C12 UNL     1      28.588  -1.891  53.052  1.00  0.00     0.046 A 
HETATM   22  C13 UNL     1      29.321  -0.874  53.604  1.00  0.00     0.138 A 
HETATM   23  F2  UNL     1      30.642  -1.003  53.750  1.00  0.00    -0.204 F 
HETATM   24  C14 UNL     1      28.736   0.317  54.031  1.00  0.00     0.074 A 
HETATM   25 CL1  UNL     1      29.636   1.646  54.744  1.00  0.00    -0.081 Cl
HETATM   26  C15 UNL     1      27.364   0.444  53.878  1.00  0.00     0.056 A 
ENDBRANCH  17  19
ENDBRANCH  11  17
TORSDOF 2
ENDMDL
MODEL 5
REMARK VINA RESULT:      -8.3      4.895      6.666
REMARK  2 active torsions:
REMARK  status: ('A' for Active; 'I' for Inactive)
REMARK    1  A    between atoms: C9_11  and  N2_12 
REMARK    2  A    between atoms: N2_12  and  C10_13 
ROOT
HETATM    1  F1  UNL     1      20.707  -1.721  54.902  1.00  0.00    -0.206 F 
HETATM    2  C1  UNL     1      21.916  -1.248  54.507  1.00  0.00     0.117 A 
HETATM    3  C2  UNL     1      23.033  -1.644  55.193  1.00  0.00     0.045 A 
HETATM    4  C3  UNL     1      24.245  -1.146  54.766  1.00  0.00     0.041 A 
HETATM    5  C4  UNL     1      24.409  -0.282  53.703  1.00  0.00     0.085 A 
HETATM    6  C5  UNL     1      23.277   0.112  53.018  1.00  0.00    -0.002 A 
HETATM    7  C6  UNL     1      22.059  -0.382  53.439  1.00  0.00     0.054 A 
HETATM    8  C7  UNL     1      23.331   1.036  51.860  1.00  0.00     0.191 C 
HETATM    9  N1  UNL     1      22.494   2.192  51.947  1.00  0.00    -0.279 NA
HETATM   10  C8  UNL     1      22.940   3.317  52.387  1.00  0.00     0.129 C 
HETATM   11  C9  UNL     1      24.236   3.444  52.196  1.00  0.00     0.160 C 
HETATM   12  N3  UNL     1      24.743   2.455  53.114  1.00  0.00    -0.222 NA
HETATM   13  C16 UNL     1      25.914   2.703  53.610  1.00  0.00     0.237 C 
HETATM   14  N4  UNL     1      26.567   1.822  54.539  1.00  0.00    -0.230 NA
HETATM   15  C17 UNL     1      26.473   0.553  54.465  1.00  0.00     0.260 C 
HETATM   16  O1  UNL     1      25.679   0.126  53.400  1.00  0.00    -0.303 OA
ENDROOT
BRANCH  11  17
HETATM   17  N2  UNL     1      24.764   4.392  51.264  1.00  0.00    -0.339 N 
HETATM   18  H6  UNL     1      25.750   4.059  51.124  1.00  0.00     0.167 HD
BRANCH  17  19
HETATM   19  C10 UNL     1      24.324   5.557  50.553  1.00  0.00     0.035 A 
HETATM   20  C11 UNL     1      24.269   6.727  51.313  1.00  0.00     0.032 A 
HETATM   21  C12 UNL     1      23.848   7.887  50.669  1.00  0.00     0.046 A 
HETATM   22  C13 UNL     1      23.506   7.860  49.342  1.00  0.00     0.138 A 
HETATM   23  F2  UNL     1      23.103   8.977  48.733  1.00  0.00    -0.204 F 
HETATM   24  C14 UNL     1      23.561   6.692  48.583  1.00  0.00     0.074 A 
HETATM   25 CL1  UNL     1      23.133   6.612  46.883  1.00  0.00    -0.081 Cl
HETATM   26  C15 UNL     1      23.980   5.535  49.224  1.00  0.00     0.056 A 
ENDBRANCH  17  19
ENDBRANCH  11  17
TORSDOF 2
ENDMDL
MODEL 6
REMARK VINA RESULT:      -8.3      4.563      6.030
REMARK  2 active torsions:
REMARK  status: ('A' for Active; 'I' for Inactive)
REMARK    1  A    between atoms: C9_11  and  N2_12 
REMARK    2  A    between atoms: N2_12  and  C10_13 
ROOT
HETATM    1  F1  UNL     1      20.829   6.415  47.299  1.00  0.00    -0.206 F 
HETATM    2  C1  UNL     1      22.071   6.386  47.845  1.00  0.00     0.117 A 
HETATM    3  C2  UNL     1      23.116   6.909  47.130  1.00  0.00     0.045 A 
HETATM    4  C3  UNL     1      24.364   6.864  47.714  1.00  0.00     0.041 A 
HETATM    5  C4  UNL     1      24.631   6.334  48.959  1.00  0.00     0.085 A 
HETATM    6  C5  UNL     1      23.572   5.810  49.671  1.00  0.00    -0.002 A 
HETATM    7  C6  UNL     1      22.318   5.850  49.095  1.00  0.00     0.054 A 
HETATM    8  C7  UNL     1      23.738   5.215  51.020  1.00  0.00     0.191 C 
HETATM    9  N1  UNL     1      23.235   3.886  51.179  1.00  0.00    -0.279 NA
HETATM   10  C8  UNL     1      23.995   2.855  51.041  1.00  0.00     0.129 C 
HETATM   11  C9  UNL     1      25.254   3.129  51.310  1.00  0.00     0.160 C 
HETATM   12  N3  UNL     1      25.586   3.990  50.203  1.00  0.00    -0.222 NA
HETATM   13  C16 UNL     1      26.826   3.966  49.829  1.00  0.00     0.237 C 
HETATM   14  N4  UNL     1      27.327   4.762  48.742  1.00  0.00    -0.230 NA
HETATM   15  C17 UNL     1      26.907   5.942  48.505  1.00  0.00     0.260 C 
HETATM   16  O1  UNL     1      25.925   6.363  49.403  1.00  0.00    -0.303 OA
ENDROOT
BRANCH  11  17
HETATM   17  N2  UNL     1      25.905   2.590  52.463  1.00  0.00    -0.339 N 
HETATM   18  H6  UNL     1      25.517   3.173  53.246  1.00  0.00     0.167 HD
BRANCH  17  19
HETATM   19  C10 UNL     1      26.854   1.562  52.778  1.00  0.00     0.035 A 
HETATM   20  C11 UNL     1      28.046   2.012  53.346  1.00  0.00     0.032 A 
HETATM   21  C12 UNL     1      29.001   1.052  53.671  1.00  0.00     0.046 A 
HETATM   22  C13 UNL     1      28.760  -0.275  53.433  1.00  0.00     0.138 A 
HETATM   23  F2  UNL     1      29.682  -1.188  53.747  1.00  0.00    -0.204 F 
HETATM   24  C14 UNL     1      27.569  -0.725  52.865  1.00  0.00     0.074 A 
HETATM   25 CL1  UNL     1      27.219  -2.415  52.544  1.00  0.00    -0.081 Cl
HETATM   26  C15 UNL     1      26.617   0.230  52.541  1.00  0.00     0.056 A 
ENDBRANCH  17  19
ENDBRANCH  11  17
TORSDOF 2
ENDMDL
MODEL 7
REMARK VINA RESULT:      -8.2      5.300      7.057
REMARK  2 active torsions:
REMARK  status: ('A' for Active; 'I' for Inactive)
REMARK    1  A    between atoms: C9_11  and  N2_12 
REMARK    2  A    between atoms: N2_12  and  C10_13 
ROOT
HETATM    1  F1  UNL     1      26.857  -1.873  52.870  1.00  0.00    -0.206 F 
HETATM    2  C1  UNL     1      26.060  -0.774  52.848  1.00  0.00     0.117 A 
HETATM    3  C2  UNL     1      24.770  -0.889  53.295  1.00  0.00     0.045 A 
HETATM    4  C3  UNL     1      23.988   0.245  53.260  1.00  0.00     0.041 A 
HETATM    5  C4  UNL     1      24.411   1.478  52.810  1.00  0.00     0.085 A 
HETATM    6  C5  UNL     1      25.712   1.583  52.361  1.00  0.00    -0.002 A 
HETATM    7  C6  UNL     1      26.503   0.452  52.392  1.00  0.00     0.054 A 
HETATM    8  C7  UNL     1      26.277   2.857  51.854  1.00  0.00     0.191 C 
HETATM    9  N1  UNL     1      26.865   2.803  50.552  1.00  0.00    -0.279 NA
HETATM   10  C8  UNL     1      26.196   3.115  49.496  1.00  0.00     0.129 C 
HETATM   11  C9  UNL     1      25.228   3.968  49.757  1.00  0.00     0.160 C 
HETATM   12  N3  UNL     1      24.340   3.141  50.533  1.00  0.00    -0.222 NA
HETATM   13  C16 UNL     1      23.082   3.444  50.453  1.00  0.00     0.237 C 
HETATM   14  N4  UNL     1      22.061   2.723  51.162  1.00  0.00    -0.230 NA
HETATM   15  C17 UNL     1      22.240   2.252  52.333  1.00  0.00     0.260 C 
HETATM   16  O1  UNL     1      23.515   2.511  52.837  1.00  0.00    -0.303 OA
ENDROOT
BRANCH  11  17
HETATM   17  N2  UNL     1      25.274   5.317  49.282  1.00  0.00    -0.339 N 
HETATM   18  H6  UNL     1      24.316   5.454  48.873  1.00  0.00     0.167 HD
BRANCH  17  19
HETATM   19  C10 UNL     1      26.206   6.406  49.232  1.00  0.00     0.035 A 
HETATM   20  C11 UNL     1      25.918   7.469  50.088  1.00  0.00     0.032 A 
HETATM   21  C12 UNL     1      26.792   8.552  50.078  1.00  0.00     0.046 A 
HETATM   22  C13 UNL     1      27.886   8.553  49.252  1.00  0.00     0.138 A 
HETATM   23  F2  UNL     1      28.719   9.596  49.249  1.00  0.00    -0.204 F 
HETATM   24  C14 UNL     1      28.174   7.491  48.397  1.00  0.00     0.074 A 
HETATM   25 CL1  UNL     1      29.563   7.452  47.323  1.00  0.00    -0.081 Cl
HETATM   26  C15 UNL     1      27.303   6.412  48.405  1.00  0.00     0.056 A 
ENDBRANCH  17  19
ENDBRANCH  11  17
TORSDOF 2
ENDMDL
MODEL 8
REMARK VINA RESULT:      -8.2      2.166      3.334
REMARK  2 active torsions:
REMARK  status: ('A' for Active; 'I' for Inactive)
REMARK    1  A    between atoms: C9_11  and  N2_12 
REMARK    2  A    between atoms: N2_12  and  C10_13 
ROOT
HETATM    1  F1  UNL     1      18.231   4.644  50.904  1.00  0.00    -0.206 F 
HETATM    2  C1  UNL     1      19.110   3.622  51.061  1.00  0.00     0.117 A 
HETATM    3  C2  UNL     1      18.647   2.425  51.540  1.00  0.00     0.045 A 
HETATM    4  C3  UNL     1      19.565   1.407  51.687  1.00  0.00     0.041 A 
HETATM    5  C4  UNL     1      20.907   1.510  51.387  1.00  0.00     0.085 A 
HETATM    6  C5  UNL     1      21.364   2.720  50.905  1.00  0.00    -0.002 A 
HETATM    7  C6  UNL     1      20.451   3.746  50.754  1.00  0.00     0.054 A 
HETATM    8  C7  UNL     1      22.785   2.948  50.548  1.00  0.00     0.191 C 
HETATM    9  N1  UNL     1      23.411   4.071  51.174  1.00  0.00    -0.279 NA
HETATM   10  C8  UNL     1      24.094   3.945  52.259  1.00  0.00     0.129 C 
HETATM   11  C9  UNL     1      24.606   2.739  52.385  1.00  0.00     0.160 C 
HETATM   12  N3  UNL     1      23.413   1.960  52.600  1.00  0.00    -0.222 NA
HETATM   13  C16 UNL     1      23.565   0.893  53.320  1.00  0.00     0.237 C 
HETATM   14  N4  UNL     1      22.480   0.003  53.631  1.00  0.00    -0.230 NA
HETATM   15  C17 UNL     1      21.546  -0.256  52.804  1.00  0.00     0.260 C 
HETATM   16  O1  UNL     1      21.694   0.409  51.586  1.00  0.00    -0.303 OA
ENDROOT
BRANCH  11  17
HETATM   17  N2  UNL     1      26.016   2.513  52.294  1.00  0.00    -0.339 N 
HETATM   18  H6  UNL     1      26.350   3.341  51.740  1.00  0.00     0.167 HD
BRANCH  17  19
HETATM   19  C10 UNL     1      26.977   1.541  52.725  1.00  0.00     0.035 A 
HETATM   20  C11 UNL     1      28.096   2.064  53.374  1.00  0.00     0.032 A 
HETATM   21  C12 UNL     1      29.059   1.161  53.814  1.00  0.00     0.046 A 
HETATM   22  C13 UNL     1      28.896  -0.183  53.608  1.00  0.00     0.138 A 
HETATM   23  F2  UNL     1      29.826  -1.042  54.033  1.00  0.00    -0.204 F 
HETATM   24  C14 UNL     1      27.779  -0.707  52.960  1.00  0.00     0.074 A 
HETATM   25 CL1  UNL     1      27.529  -2.421  52.675  1.00  0.00    -0.081 Cl
HETATM   26  C15 UNL     1      26.818   0.192  52.521  1.00  0.00     0.056 A 
ENDBRANCH  17  19
ENDBRANCH  11  17
TORSDOF 2
ENDMDL
MODEL 9
REMARK VINA RESULT:      -8.1      3.482      7.888
REMARK  2 active torsions:
REMARK  status: ('A' for Active; 'I' for Inactive)
REMARK    1  A    between atoms: C9_11  and  N2_12 
REMARK    2  A    between atoms: N2_12  and  C10_13 
ROOT
HETATM    1  F1  UNL     1      27.273   0.002  55.203  1.00  0.00    -0.206 F 
HETATM    2  C1  UNL     1      26.274   0.326  54.343  1.00  0.00     0.117 A 
HETATM    3  C2  UNL     1      26.401   1.461  53.586  1.00  0.00     0.045 A 
HETATM    4  C3  UNL     1      25.369   1.762  52.722  1.00  0.00     0.041 A 
HETATM    5  C4  UNL     1      24.226   1.004  52.569  1.00  0.00     0.085 A 
HETATM    6  C5  UNL     1      24.108  -0.137  53.336  1.00  0.00    -0.002 A 
HETATM    7  C6  UNL     1      25.136  -0.446  54.204  1.00  0.00     0.054 A 
HETATM    8  C7  UNL     1      22.926  -1.029  53.257  1.00  0.00     0.191 C 
HETATM    9  N1  UNL     1      22.269  -1.303  54.497  1.00  0.00    -0.279 NA
HETATM   10  C8  UNL     1      21.254  -0.614  54.890  1.00  0.00     0.129 C 
HETATM   11  C9  UNL     1      20.586  -0.096  53.881  1.00  0.00     0.160 C 
HETATM   12  N3  UNL     1      21.535   0.876  53.399  1.00  0.00    -0.222 NA
HETATM   13  C16 UNL     1      21.022   1.923  52.835  1.00  0.00     0.237 C 
HETATM   14  N4  UNL     1      21.824   2.989  52.299  1.00  0.00    -0.230 NA
HETATM   15  C17 UNL     1      22.942   2.784  51.721  1.00  0.00     0.260 C 
HETATM   16  O1  UNL     1      23.290   1.434  51.669  1.00  0.00    -0.303 OA
ENDROOT
BRANCH  11  17
HETATM   17  N2  UNL     1      19.271  -0.548  53.547  1.00  0.00    -0.339 N 
HETATM   18  H6  UNL     1      18.974  -1.066  54.411  1.00  0.00     0.167 HD
BRANCH  17  19
HETATM   19  C10 UNL     1      18.360  -0.475  52.442  1.00  0.00     0.035 A 
HETATM   20  C11 UNL     1      18.862   0.157  51.304  1.00  0.00     0.032 A 
HETATM   21  C12 UNL     1      18.016   0.254  50.202  1.00  0.00     0.046 A 
HETATM   22  C13 UNL     1      16.747  -0.259  50.254  1.00  0.00     0.138 A 
HETATM   23  F2  UNL     1      15.943  -0.162  49.192  1.00  0.00    -0.204 F 
HETATM   24  C14 UNL     1      16.245  -0.891  51.391  1.00  0.00     0.074 A 
HETATM   25 CL1  UNL     1      14.626  -1.562  51.501  1.00  0.00    -0.081 Cl
HETATM   26  C15 UNL     1      17.086  -0.987  52.489  1.00  0.00     0.056 A 
ENDBRANCH  17  19
ENDBRANCH  11  17
TORSDOF 2
ENDMDL
