MODEL 1
REMARK VINA RESULT:      -8.5      0.000      0.000
REMARK  11 active torsions:
REMARK  status: ('A' for Active; 'I' for Inactive)
REMARK    1  A    between atoms: C2_2  and  O1_3 
REMARK    2  A    between atoms: O1_3  and  C3_4 
REMARK    3  A    between atoms: N2_8  and  C6_9 
REMARK    4  A    between atoms: C11_14  and  C12_15 
REMARK    5  A    between atoms: C18_22  and  C19_23 
REMARK    6  A    between atoms: C19_23  and  C20_24 
REMARK    7  A    between atoms: C20_24  and  C21_25 
REMARK    8  A    between atoms: C21_25  and  N3_26 
REMARK    9  A    between atoms: N3_26  and  C22_27 
REMARK   10  A    between atoms: C22_27  and  C23_28 
REMARK   11  A    between atoms: C23_28  and  N4_29 
ROOT
HETATM    1  C6  UNL     1      22.879   0.691  52.144  1.00  0.00     0.037 A 
HETATM    2  C7  UNL     1      23.913   1.587  51.833  1.00  0.00     0.038 A 
HETATM    3  C8  UNL     1      25.179   1.553  52.383  1.00  0.00    -0.033 A 
HETATM    4  C9  UNL     1      25.403   0.550  53.300  1.00  0.00     0.022 A 
HETATM    5  C10 UNL     1      24.421  -0.353  53.637  1.00  0.00     0.025 A 
HETATM    6  C11 UNL     1      23.175  -0.283  53.067  1.00  0.00    -0.031 A 
HETATM    7  C14 UNL     1      26.681   0.366  53.980  1.00  0.00     0.188 A 
HETATM    8  O2  UNL     1      26.912  -0.544  54.822  1.00  0.00    -0.287 OA
HETATM    9  C15 UNL     1      27.760   1.282  53.673  1.00  0.00    -0.014 A 
HETATM   10  C16 UNL     1      29.070   1.153  54.322  1.00  0.00     0.052 C 
HETATM   11  C17 UNL     1      27.490   2.222  52.788  1.00  0.00    -0.005 A 
HETATM   12  C18 UNL     1      26.245   2.505  52.041  1.00  0.00     0.060 A 
ENDROOT
BRANCH   1  13
HETATM   13  N2  UNL     1      21.698   0.990  51.413  1.00  0.00    -0.370 N 
HETATM   14  C5  UNL     1      21.208   0.817  50.062  1.00  0.00     0.154 C 
HETATM   15  C4  UNL     1      20.246   1.858  49.625  1.00  0.00     0.292 C 
HETATM   16  N1  UNL     1      19.125   2.027  50.526  1.00  0.00     0.116 N 
HETATM   17  C3  UNL     1      19.361   1.356  51.792  1.00  0.00     0.378 C 
HETATM   18  H7  UNL     1      18.920   3.038  50.641  1.00  0.00     0.319 HD
HETATM   19  C24 UNL     1      20.755   1.646  52.307  1.00  0.00     0.139 C 
HETATM   20  C25 UNL     1      20.892   3.141  52.346  1.00  0.00     0.037 C 
BRANCH  17  21
HETATM   21  O1  UNL     1      19.191  -0.009  51.697  1.00  0.00    -0.356 OA
BRANCH  21  22
HETATM   22  C2  UNL     1      17.943  -0.475  52.029  1.00  0.00     0.166 C 
HETATM   23  C1  UNL     1      18.067  -1.379  53.242  1.00  0.00     0.033 C 
ENDBRANCH  21  22
ENDBRANCH  17  21
ENDBRANCH   1  13
BRANCH   6  24
HETATM   24  C12 UNL     1      22.118  -1.237  53.441  1.00  0.00     0.036 C 
HETATM   25  C13 UNL     1      21.501  -0.990  54.783  1.00  0.00     0.010 C 
ENDBRANCH   6  24
BRANCH  12  26
HETATM   26  C19 UNL     1      26.570   2.430  50.585  1.00  0.00     0.095 C 
BRANCH  26  27
HETATM   27  C20 UNL     1      26.447   3.481  49.795  1.00  0.00    -0.075 C 
BRANCH  27  28
HETATM   28  C21 UNL     1      26.194   4.634  49.249  1.00  0.00     0.030 C 
BRANCH  28  29
HETATM   29  N3  UNL     1      25.950   5.845  48.965  1.00  0.00    -0.238 NA
BRANCH  29  30
HETATM   30  C22 UNL     1      25.775   6.858  50.002  1.00  0.00     0.190 C 
BRANCH  30  31
HETATM   31  C23 UNL     1      24.383   6.803  50.577  1.00  0.00     0.289 C 
BRANCH  31  32
HETATM   32  N4  UNL     1      24.450   6.930  52.005  1.00  0.00     0.079 N 
HETATM   33  H29 UNL     1      23.510   7.204  52.379  1.00  0.00     0.312 HD
HETATM   34  H30 UNL     1      25.089   7.730  52.257  1.00  0.00     0.312 HD
ENDBRANCH  31  32
ENDBRANCH  30  31
ENDBRANCH  29  30
ENDBRANCH  28  29
ENDBRANCH  27  28
ENDBRANCH  26  27
ENDBRANCH  12  26
TORSDOF 11
ENDMDL
MODEL 2
REMARK VINA RESULT:      -8.4      1.656      2.752
REMARK  11 active torsions:
REMARK  status: ('A' for Active; 'I' for Inactive)
REMARK    1  A    between atoms: C2_2  and  O1_3 
REMARK    2  A    between atoms: O1_3  and  C3_4 
REMARK    3  A    between atoms: N2_8  and  C6_9 
REMARK    4  A    between atoms: C11_14  and  C12_15 
REMARK    5  A    between atoms: C18_22  and  C19_23 
REMARK    6  A    between atoms: C19_23  and  C20_24 
REMARK    7  A    between atoms: C20_24  and  C21_25 
REMARK    8  A    between atoms: C21_25  and  N3_26 
REMARK    9  A    between atoms: N3_26  and  C22_27 
REMARK   10  A    between atoms: C22_27  and  C23_28 
REMARK   11  A    between atoms: C23_28  and  N4_29 
ROOT
HETATM    1  C6  UNL     1      22.570   1.365  52.366  1.00  0.00     0.037 A 
HETATM    2  C7  UNL     1      23.768   2.003  52.008  1.00  0.00     0.038 A 
HETATM    3  C8  UNL     1      25.031   1.544  52.325  1.00  0.00    -0.033 A 
HETATM    4  C9  UNL     1      25.075   0.371  53.046  1.00  0.00     0.022 A 
HETATM    5  C10 UNL     1      23.927  -0.291  53.420  1.00  0.00     0.025 A 
HETATM    6  C11 UNL     1      22.691   0.201  53.084  1.00  0.00    -0.031 A 
HETATM    7  C14 UNL     1      26.323  -0.256  53.468  1.00  0.00     0.188 A 
HETATM    8  O2  UNL     1      26.390  -1.329  54.128  1.00  0.00    -0.287 OA
HETATM    9  C15 UNL     1      27.570   0.387  53.110  1.00  0.00    -0.014 A 
HETATM   10  C16 UNL     1      28.860  -0.191  53.504  1.00  0.00     0.052 C 
HETATM   11  C17 UNL     1      27.468   1.507  52.420  1.00  0.00    -0.005 A 
HETATM   12  C18 UNL     1      26.272   2.231  51.940  1.00  0.00     0.060 A 
ENDROOT
BRANCH   1  13
HETATM   13  N2  UNL     1      21.441   2.086  51.893  1.00  0.00    -0.370 N 
HETATM   14  C5  UNL     1      20.242   2.676  52.452  1.00  0.00     0.154 C 
HETATM   15  C4  UNL     1      19.088   2.709  51.520  1.00  0.00     0.292 C 
HETATM   16  N1  UNL     1      19.386   3.337  50.249  1.00  0.00     0.116 N 
HETATM   17  C3  UNL     1      20.816   3.512  50.072  1.00  0.00     0.378 C 
HETATM   18  H7  UNL     1      18.952   2.791  49.481  1.00  0.00     0.319 HD
HETATM   19  C24 UNL     1      21.568   2.255  50.453  1.00  0.00     0.139 C 
HETATM   20  C25 UNL     1      20.962   1.137  49.654  1.00  0.00     0.037 C 
BRANCH  17  21
HETATM   21  O1  UNL     1      21.307   4.570  50.808  1.00  0.00    -0.356 OA
BRANCH  21  22
HETATM   22  C2  UNL     1      22.439   5.164  50.309  1.00  0.00     0.166 C 
HETATM   23  C1  UNL     1      23.376   5.472  51.463  1.00  0.00     0.033 C 
ENDBRANCH  21  22
ENDBRANCH  17  21
ENDBRANCH   1  13
BRANCH   6  24
HETATM   24  C12 UNL     1      21.462  -0.496  53.499  1.00  0.00     0.036 C 
HETATM   25  C13 UNL     1      21.673  -1.588  54.503  1.00  0.00     0.010 C 
ENDBRANCH   6  24
BRANCH  12  26
HETATM   26  C19 UNL     1      26.376   2.334  50.453  1.00  0.00     0.095 C 
BRANCH  26  27
HETATM   27  C20 UNL     1      26.544   3.496  49.851  1.00  0.00    -0.075 C 
BRANCH  27  28
HETATM   28  C21 UNL     1      26.979   4.539  49.207  1.00  0.00     0.030 C 
BRANCH  28  29
HETATM   29  N3  UNL     1      27.584   5.389  48.487  1.00  0.00    -0.238 NA
BRANCH  29  30
HETATM   30  C22 UNL     1      27.206   6.799  48.480  1.00  0.00     0.190 C 
BRANCH  30  31
HETATM   31  C23 UNL     1      26.148   7.076  49.517  1.00  0.00     0.289 C 
BRANCH  31  32
HETATM   32  N4  UNL     1      26.652   8.022  50.473  1.00  0.00     0.079 N 
HETATM   33  H29 UNL     1      25.858   8.417  51.030  1.00  0.00     0.312 HD
HETATM   34  H30 UNL     1      27.068   8.847  49.965  1.00  0.00     0.312 HD
ENDBRANCH  31  32
ENDBRANCH  30  31
ENDBRANCH  29  30
ENDBRANCH  28  29
ENDBRANCH  27  28
ENDBRANCH  26  27
ENDBRANCH  12  26
TORSDOF 11
ENDMDL
MODEL 3
REMARK VINA RESULT:      -7.9      2.859      6.268
REMARK  11 active torsions:
REMARK  status: ('A' for Active; 'I' for Inactive)
REMARK    1  A    between atoms: C2_2  and  O1_3 
REMARK    2  A    between atoms: O1_3  and  C3_4 
REMARK    3  A    between atoms: N2_8  and  C6_9 
REMARK    4  A    between atoms: C11_14  and  C12_15 
REMARK    5  A    between atoms: C18_22  and  C19_23 
REMARK    6  A    between atoms: C19_23  and  C20_24 
REMARK    7  A    between atoms: C20_24  and  C21_25 
REMARK    8  A    between atoms: C21_25  and  N3_26 
REMARK    9  A    between atoms: N3_26  and  C22_27 
REMARK   10  A    between atoms: C22_27  and  C23_28 
REMARK   11  A    between atoms: C23_28  and  N4_29 
ROOT
HETATM    1  C6  UNL     1      22.428   3.749  51.318  1.00  0.00     0.037 A 
HETATM    2  C7  UNL     1      23.436   2.963  51.898  1.00  0.00     0.038 A 
HETATM    3  C8  UNL     1      23.217   1.812  52.629  1.00  0.00    -0.033 A 
HETATM    4  C9  UNL     1      21.898   1.442  52.776  1.00  0.00     0.022 A 
HETATM    5  C10 UNL     1      20.875   2.179  52.225  1.00  0.00     0.025 A 
HETATM    6  C11 UNL     1      21.137   3.319  51.506  1.00  0.00    -0.031 A 
HETATM    7  C14 UNL     1      21.484   0.256  53.517  1.00  0.00     0.188 A 
HETATM    8  O2  UNL     1      20.285  -0.105  53.666  1.00  0.00    -0.287 OA
HETATM    9  C15 UNL     1      22.509  -0.568  54.125  1.00  0.00    -0.014 A 
HETATM   10  C16 UNL     1      22.160  -1.773  54.885  1.00  0.00     0.052 C 
HETATM   11  C17 UNL     1      23.754  -0.166  53.953  1.00  0.00    -0.005 A 
HETATM   12  C18 UNL     1      24.290   1.007  53.229  1.00  0.00     0.060 A 
ENDROOT
BRANCH   1  13
HETATM   13  N2  UNL     1      22.975   4.867  50.634  1.00  0.00    -0.370 N 
HETATM   14  C5  UNL     1      23.252   6.260  50.917  1.00  0.00     0.154 C 
HETATM   15  C4  UNL     1      23.181   7.148  49.731  1.00  0.00     0.292 C 
HETATM   16  N1  UNL     1      24.009   6.708  48.627  1.00  0.00     0.116 N 
HETATM   17  C3  UNL     1      24.474   5.347  48.827  1.00  0.00     0.378 C 
HETATM   18  H7  UNL     1      23.492   6.826  47.735  1.00  0.00     0.319 HD
HETATM   19  C24 UNL     1      23.345   4.451  49.289  1.00  0.00     0.139 C 
HETATM   20  C25 UNL     1      22.241   4.602  48.280  1.00  0.00     0.037 C 
BRANCH  17  21
HETATM   21  O1  UNL     1      25.505   5.278  49.741  1.00  0.00    -0.356 OA
BRANCH  21  22
HETATM   22  C2  UNL     1      26.609   4.572  49.335  1.00  0.00     0.166 C 
HETATM   23  C1  UNL     1      26.575   3.199  49.983  1.00  0.00     0.033 C 
ENDBRANCH  21  22
ENDBRANCH  17  21
ENDBRANCH   1  13
BRANCH   6  24
HETATM   24  C12 UNL     1      20.043   4.119  50.932  1.00  0.00     0.036 C 
HETATM   25  C13 UNL     1      18.672   3.714  51.381  1.00  0.00     0.010 C 
ENDBRANCH   6  24
BRANCH  12  26
HETATM   26  C19 UNL     1      25.217   0.497  52.174  1.00  0.00     0.095 C 
BRANCH  26  27
HETATM   27  C20 UNL     1      26.193  -0.344  52.459  1.00  0.00    -0.075 C 
BRANCH  27  28
HETATM   28  C21 UNL     1      27.290  -0.932  52.838  1.00  0.00     0.030 C 
BRANCH  28  29
HETATM   29  N3  UNL     1      28.364  -1.317  53.390  1.00  0.00    -0.238 NA
BRANCH  29  30
HETATM   30  C22 UNL     1      29.403  -0.373  53.791  1.00  0.00     0.190 C 
BRANCH  30  31
HETATM   31  C23 UNL     1      28.860   0.641  54.765  1.00  0.00     0.289 C 
BRANCH  31  32
HETATM   32  N4  UNL     1      29.329   1.950  54.403  1.00  0.00     0.079 N 
HETATM   33  H29 UNL     1      28.631   2.670  54.707  1.00  0.00     0.312 HD
HETATM   34  H30 UNL     1      29.369   2.031  53.353  1.00  0.00     0.312 HD
ENDBRANCH  31  32
ENDBRANCH  30  31
ENDBRANCH  29  30
ENDBRANCH  28  29
ENDBRANCH  27  28
ENDBRANCH  26  27
ENDBRANCH  12  26
TORSDOF 11
ENDMDL
MODEL 4
REMARK VINA RESULT:      -7.6      2.424      5.885
REMARK  11 active torsions:
REMARK  status: ('A' for Active; 'I' for Inactive)
REMARK    1  A    between atoms: C2_2  and  O1_3 
REMARK    2  A    between atoms: O1_3  and  C3_4 
REMARK    3  A    between atoms: N2_8  and  C6_9 
REMARK    4  A    between atoms: C11_14  and  C12_15 
REMARK    5  A    between atoms: C18_22  and  C19_23 
REMARK    6  A    between atoms: C19_23  and  C20_24 
REMARK    7  A    between atoms: C20_24  and  C21_25 
REMARK    8  A    between atoms: C21_25  and  N3_26 
REMARK    9  A    between atoms: N3_26  and  C22_27 
REMARK   10  A    between atoms: C22_27  and  C23_28 
REMARK   11  A    between atoms: C23_28  and  N4_29 
ROOT
HETATM    1  C6  UNL     1      24.184   3.603  49.877  1.00  0.00     0.037 A 
HETATM    2  C7  UNL     1      23.804   2.517  50.681  1.00  0.00     0.038 A 
HETATM    3  C8  UNL     1      24.655   1.818  51.514  1.00  0.00    -0.033 A 
HETATM    4  C9  UNL     1      25.962   2.249  51.528  1.00  0.00     0.022 A 
HETATM    5  C10 UNL     1      26.383   3.309  50.758  1.00  0.00     0.025 A 
HETATM    6  C11 UNL     1      25.504   3.977  49.942  1.00  0.00    -0.031 A 
HETATM    7  C14 UNL     1      26.995   1.624  52.348  1.00  0.00     0.188 A 
HETATM    8  O2  UNL     1      28.199   2.000  52.380  1.00  0.00    -0.287 OA
HETATM    9  C15 UNL     1      26.624   0.502  53.184  1.00  0.00    -0.014 A 
HETATM   10  C16 UNL     1      27.614  -0.172  54.032  1.00  0.00     0.052 C 
HETATM   11  C17 UNL     1      25.359   0.132  53.130  1.00  0.00    -0.005 A 
HETATM   12  C18 UNL     1      24.232   0.681  52.346  1.00  0.00     0.060 A 
ENDROOT
BRANCH   1  13
HETATM   13  N2  UNL     1      23.082   4.106  49.135  1.00  0.00    -0.370 N 
HETATM   14  C5  UNL     1      22.720   4.271  47.743  1.00  0.00     0.154 C 
HETATM   15  C4  UNL     1      21.818   5.419  47.479  1.00  0.00     0.292 C 
HETATM   16  N1  UNL     1      20.619   5.412  48.290  1.00  0.00     0.116 N 
HETATM   17  C3  UNL     1      20.724   4.456  49.378  1.00  0.00     0.378 C 
HETATM   18  H7  UNL     1      20.417   6.374  48.622  1.00  0.00     0.319 HD
HETATM   19  C24 UNL     1      22.066   4.568  50.069  1.00  0.00     0.139 C 
HETATM   20  C25 UNL     1      22.219   6.007  50.473  1.00  0.00     0.037 C 
BRANCH  17  21
HETATM   21  O1  UNL     1      20.546   3.158  48.949  1.00  0.00    -0.356 OA
BRANCH  21  22
HETATM   22  C2  UNL     1      20.089   2.278  49.899  1.00  0.00     0.166 C 
HETATM   23  C1  UNL     1      20.823   0.959  49.735  1.00  0.00     0.033 C 
ENDBRANCH  21  22
ENDBRANCH  17  21
ENDBRANCH   1  13
BRANCH   6  24
HETATM   24  C12 UNL     1      25.956   5.099  49.104  1.00  0.00     0.036 C 
HETATM   25  C13 UNL     1      27.386   5.015  48.666  1.00  0.00     0.010 C 
ENDBRANCH   6  24
BRANCH  12  26
HETATM   26  C19 UNL     1      23.175   1.103  53.313  1.00  0.00     0.095 C 
BRANCH  26  27
HETATM   27  C20 UNL     1      22.035   0.446  53.420  1.00  0.00    -0.075 C 
BRANCH  27  28
HETATM   28  C21 UNL     1      20.807   0.022  53.367  1.00  0.00     0.030 C 
BRANCH  28  29
HETATM   29  N3  UNL     1      19.716  -0.623  53.381  1.00  0.00    -0.238 NA
BRANCH  29  30
HETATM   30  C22 UNL     1      18.625  -0.308  52.463  1.00  0.00     0.190 C 
BRANCH  30  31
HETATM   31  C23 UNL     1      17.489  -1.286  52.623  1.00  0.00     0.289 C 
BRANCH  31  32
HETATM   32  N4  UNL     1      17.546  -1.875  53.931  1.00  0.00     0.079 N 
HETATM   33  H29 UNL     1      18.087  -1.250  54.575  1.00  0.00     0.312 HD
HETATM   34  H30 UNL     1      18.100  -2.771  53.889  1.00  0.00     0.312 HD
ENDBRANCH  31  32
ENDBRANCH  30  31
ENDBRANCH  29  30
ENDBRANCH  28  29
ENDBRANCH  27  28
ENDBRANCH  26  27
ENDBRANCH  12  26
TORSDOF 11
ENDMDL
MODEL 5
REMARK VINA RESULT:      -7.1      2.242      3.924
REMARK  11 active torsions:
REMARK  status: ('A' for Active; 'I' for Inactive)
REMARK    1  A    between atoms: C2_2  and  O1_3 
REMARK    2  A    between atoms: O1_3  and  C3_4 
REMARK    3  A    between atoms: N2_8  and  C6_9 
REMARK    4  A    between atoms: C11_14  and  C12_15 
REMARK    5  A    between atoms: C18_22  and  C19_23 
REMARK    6  A    between atoms: C19_23  and  C20_24 
REMARK    7  A    between atoms: C20_24  and  C21_25 
REMARK    8  A    between atoms: C21_25  and  N3_26 
REMARK    9  A    between atoms: N3_26  and  C22_27 
REMARK   10  A    between atoms: C22_27  and  C23_28 
REMARK   11  A    between atoms: C23_28  and  N4_29 
ROOT
HETATM    1  C6  UNL     1      19.118   0.837  52.078  1.00  0.00     0.037 A 
HETATM    2  C7  UNL     1      20.371   1.456  51.950  1.00  0.00     0.038 A 
HETATM    3  C8  UNL     1      21.539   0.997  52.524  1.00  0.00    -0.033 A 
HETATM    4  C9  UNL     1      21.424  -0.156  53.269  1.00  0.00     0.022 A 
HETATM    5  C10 UNL     1      20.218  -0.799  53.423  1.00  0.00     0.025 A 
HETATM    6  C11 UNL     1      19.079  -0.308  52.836  1.00  0.00    -0.031 A 
HETATM    7  C14 UNL     1      22.556  -0.779  53.947  1.00  0.00     0.188 A 
HETATM    8  O2  UNL     1      22.478  -1.834  54.634  1.00  0.00    -0.287 OA
HETATM    9  C15 UNL     1      23.857  -0.155  53.828  1.00  0.00    -0.014 A 
HETATM   10  C16 UNL     1      25.036  -0.731  54.485  1.00  0.00     0.052 C 
HETATM   11  C17 UNL     1      23.909   0.946  53.103  1.00  0.00    -0.005 A 
HETATM   12  C18 UNL     1      22.841   1.665  52.377  1.00  0.00     0.060 A 
ENDROOT
BRANCH   1  13
HETATM   13  N2  UNL     1      18.113   1.552  51.372  1.00  0.00    -0.370 N 
HETATM   14  C5  UNL     1      17.161   2.607  51.649  1.00  0.00     0.154 C 
HETATM   15  C4  UNL     1      15.920   2.536  50.839  1.00  0.00     0.292 C 
HETATM   16  N1  UNL     1      16.163   2.469  49.412  1.00  0.00     0.116 N 
HETATM   17  C3  UNL     1      17.557   2.182  49.128  1.00  0.00     0.378 C 
HETATM   18  H7  UNL     1      15.517   1.781  48.982  1.00  0.00     0.319 HD
HETATM   19  C24 UNL     1      18.068   1.058  50.004  1.00  0.00     0.139 C 
HETATM   20  C25 UNL     1      17.130  -0.098  49.805  1.00  0.00     0.037 C 
BRANCH  17  21
HETATM   21  O1  UNL     1      18.362   3.288  49.301  1.00  0.00    -0.356 OA
BRANCH  21  22
HETATM   22  C2  UNL     1      19.571   3.248  48.651  1.00  0.00     0.166 C 
HETATM   23  C1  UNL     1      20.518   4.225  49.324  1.00  0.00     0.033 C 
ENDBRANCH  21  22
ENDBRANCH  17  21
ENDBRANCH   1  13
BRANCH   6  24
HETATM   24  C12 UNL     1      17.784  -0.985  53.015  1.00  0.00     0.036 C 
HETATM   25  C13 UNL     1      17.876  -2.365  53.590  1.00  0.00     0.010 C 
ENDBRANCH   6  24
BRANCH  12  26
HETATM   26  C19 UNL     1      23.239   1.726  50.938  1.00  0.00     0.095 C 
BRANCH  26  27
HETATM   27  C20 UNL     1      23.830   2.792  50.430  1.00  0.00    -0.075 C 
BRANCH  27  28
HETATM   28  C21 UNL     1      24.342   3.718  49.674  1.00  0.00     0.030 C 
BRANCH  28  29
HETATM   29  N3  UNL     1      24.900   4.736  49.166  1.00  0.00    -0.238 NA
BRANCH  29  30
HETATM   30  C22 UNL     1      25.448   5.806  49.994  1.00  0.00     0.190 C 
BRANCH  30  31
HETATM   31  C23 UNL     1      24.348   6.680  50.540  1.00  0.00     0.289 C 
BRANCH  31  32
HETATM   32  N4  UNL     1      24.394   6.666  51.975  1.00  0.00     0.079 N 
HETATM   33  H29 UNL     1      25.362   6.903  52.298  1.00  0.00     0.312 HD
HETATM   34  H30 UNL     1      24.220   5.686  52.322  1.00  0.00     0.312 HD
ENDBRANCH  31  32
ENDBRANCH  30  31
ENDBRANCH  29  30
ENDBRANCH  28  29
ENDBRANCH  27  28
ENDBRANCH  26  27
ENDBRANCH  12  26
TORSDOF 11
ENDMDL
MODEL 6
REMARK VINA RESULT:      -7.1      7.494     10.937
REMARK  11 active torsions:
REMARK  status: ('A' for Active; 'I' for Inactive)
REMARK    1  A    between atoms: C2_2  and  O1_3 
REMARK    2  A    between atoms: O1_3  and  C3_4 
REMARK    3  A    between atoms: N2_8  and  C6_9 
REMARK    4  A    between atoms: C11_14  and  C12_15 
REMARK    5  A    between atoms: C18_22  and  C19_23 
REMARK    6  A    between atoms: C19_23  and  C20_24 
REMARK    7  A    between atoms: C20_24  and  C21_25 
REMARK    8  A    between atoms: C21_25  and  N3_26 
REMARK    9  A    between atoms: N3_26  and  C22_27 
REMARK   10  A    between atoms: C22_27  and  C23_28 
REMARK   11  A    between atoms: C23_28  and  N4_29 
ROOT
HETATM    1  C6  UNL     1      29.025   7.687  48.604  1.00  0.00     0.037 A 
HETATM    2  C7  UNL     1      30.344   8.155  48.705  1.00  0.00     0.038 A 
HETATM    3  C8  UNL     1      31.472   7.368  48.588  1.00  0.00    -0.033 A 
HETATM    4  C9  UNL     1      31.242   6.030  48.354  1.00  0.00     0.022 A 
HETATM    5  C10 UNL     1      29.968   5.524  48.245  1.00  0.00     0.025 A 
HETATM    6  C11 UNL     1      28.873   6.342  48.369  1.00  0.00    -0.031 A 
HETATM    7  C14 UNL     1      32.317   5.055  48.205  1.00  0.00     0.188 A 
HETATM    8  O2  UNL     1      32.134   3.826  47.989  1.00  0.00    -0.287 OA
HETATM    9  C15 UNL     1      33.685   5.518  48.308  1.00  0.00    -0.014 A 
HETATM   10  C16 UNL     1      34.812   4.589  48.169  1.00  0.00     0.052 C 
HETATM   11  C17 UNL     1      33.845   6.808  48.534  1.00  0.00    -0.005 A 
HETATM   12  C18 UNL     1      32.844   7.883  48.701  1.00  0.00     0.060 A 
ENDROOT
BRANCH   1  13
HETATM   13  N2  UNL     1      28.087   8.741  48.772  1.00  0.00    -0.370 N 
HETATM   14  C5  UNL     1      27.113   9.154  49.759  1.00  0.00     0.154 C 
HETATM   15  C4  UNL     1      25.950   9.886  49.199  1.00  0.00     0.292 C 
HETATM   16  N1  UNL     1      26.320  11.024  48.383  1.00  0.00     0.116 N 
HETATM   17  C3  UNL     1      27.735  11.001  48.058  1.00  0.00     0.378 C 
HETATM   18  H7  UNL     1      25.716  11.058  47.540  1.00  0.00     0.319 HD
HETATM   19  C24 UNL     1      28.166   9.620  47.614  1.00  0.00     0.139 C 
HETATM   20  C25 UNL     1      27.250   9.228  46.489  1.00  0.00     0.037 C 
BRANCH  17  21
HETATM   21  O1  UNL     1      28.520  11.398  49.120  1.00  0.00    -0.356 OA
BRANCH  21  22
HETATM   22  C2  UNL     1      29.409  12.409  48.853  1.00  0.00     0.166 C 
HETATM   23  C1  UNL     1      30.820  11.872  49.018  1.00  0.00     0.033 C 
ENDBRANCH  21  22
ENDBRANCH  17  21
ENDBRANCH   1  13
BRANCH   6  24
HETATM   24  C12 UNL     1      27.508   5.798  48.272  1.00  0.00     0.036 C 
HETATM   25  C13 UNL     1      27.315   4.474  48.945  1.00  0.00     0.010 C 
ENDBRANCH   6  24
BRANCH  12  26
HETATM   26  C19 UNL     1      33.108   8.910  47.649  1.00  0.00     0.095 C 
BRANCH  26  27
HETATM   27  C20 UNL     1      33.140   8.594  46.368  1.00  0.00    -0.075 C 
BRANCH  27  28
HETATM   28  C21 UNL     1      33.051   8.033  45.198  1.00  0.00     0.030 C 
BRANCH  28  29
HETATM   29  N3  UNL     1      32.867   7.719  43.984  1.00  0.00    -0.238 NA
BRANCH  29  30
HETATM   30  C22 UNL     1      32.811   6.327  43.550  1.00  0.00     0.190 C 
BRANCH  30  31
HETATM   31  C23 UNL     1      33.605   5.443  44.477  1.00  0.00     0.289 C 
BRANCH  31  32
HETATM   32  N4  UNL     1      32.821   4.292  44.829  1.00  0.00     0.079 N 
HETATM   33  H29 UNL     1      32.052   4.164  44.129  1.00  0.00     0.312 HD
HETATM   34  H30 UNL     1      32.332   4.467  45.746  1.00  0.00     0.312 HD
ENDBRANCH  31  32
ENDBRANCH  30  31
ENDBRANCH  29  30
ENDBRANCH  28  29
ENDBRANCH  27  28
ENDBRANCH  26  27
ENDBRANCH  12  26
TORSDOF 11
ENDMDL
MODEL 7
REMARK VINA RESULT:      -7.0      2.777      6.447
REMARK  11 active torsions:
REMARK  status: ('A' for Active; 'I' for Inactive)
REMARK    1  A    between atoms: C2_2  and  O1_3 
REMARK    2  A    between atoms: O1_3  and  C3_4 
REMARK    3  A    between atoms: N2_8  and  C6_9 
REMARK    4  A    between atoms: C11_14  and  C12_15 
REMARK    5  A    between atoms: C18_22  and  C19_23 
REMARK    6  A    between atoms: C19_23  and  C20_24 
REMARK    7  A    between atoms: C20_24  and  C21_25 
REMARK    8  A    between atoms: C21_25  and  N3_26 
REMARK    9  A    between atoms: N3_26  and  C22_27 
REMARK   10  A    between atoms: C22_27  and  C23_28 
REMARK   11  A    between atoms: C23_28  and  N4_29 
ROOT
HETATM    1  C6  UNL     1      23.809   3.175  50.242  1.00  0.00     0.037 A 
HETATM    2  C7  UNL     1      23.639   2.031  51.037  1.00  0.00     0.038 A 
HETATM    3  C8  UNL     1      24.634   1.436  51.786  1.00  0.00    -0.033 A 
HETATM    4  C9  UNL     1      25.869   2.040  51.723  1.00  0.00     0.022 A 
HETATM    5  C10 UNL     1      26.086   3.164  50.958  1.00  0.00     0.025 A 
HETATM    6  C11 UNL     1      25.069   3.723  50.226  1.00  0.00    -0.031 A 
HETATM    7  C14 UNL     1      27.034   1.545  52.449  1.00  0.00     0.188 A 
HETATM    8  O2  UNL     1      28.176   2.080  52.409  1.00  0.00    -0.287 OA
HETATM    9  C15 UNL     1      26.879   0.365  53.274  1.00  0.00    -0.014 A 
HETATM   10  C16 UNL     1      28.010  -0.185  54.030  1.00  0.00     0.052 C 
HETATM   11  C17 UNL     1      25.674  -0.172  53.297  1.00  0.00    -0.005 A 
HETATM   12  C18 UNL     1      24.430   0.235  52.610  1.00  0.00     0.060 A 
ENDROOT
BRANCH   1  13
HETATM   13  N2  UNL     1      22.599   3.539  49.594  1.00  0.00    -0.370 N 
HETATM   14  C5  UNL     1      21.299   4.053  49.972  1.00  0.00     0.154 C 
HETATM   15  C4  UNL     1      20.193   3.634  49.077  1.00  0.00     0.292 C 
HETATM   16  N1  UNL     1      20.438   3.926  47.679  1.00  0.00     0.116 N 
HETATM   17  C3  UNL     1      21.827   4.281  47.450  1.00  0.00     0.378 C 
HETATM   18  H7  UNL     1      20.128   3.125  47.097  1.00  0.00     0.319 HD
HETATM   19  C24 UNL     1      22.755   3.321  48.163  1.00  0.00     0.139 C 
HETATM   20  C25 UNL     1      22.370   1.941  47.712  1.00  0.00     0.037 C 
BRANCH  17  21
HETATM   21  O1  UNL     1      22.110   5.567  47.858  1.00  0.00    -0.356 OA
BRANCH  21  22
HETATM   22  C2  UNL     1      22.818   6.329  46.962  1.00  0.00     0.166 C 
HETATM   23  C1  UNL     1      22.008   7.570  46.632  1.00  0.00     0.033 C 
ENDBRANCH  21  22
ENDBRANCH  17  21
ENDBRANCH   1  13
BRANCH   6  24
HETATM   24  C12 UNL     1      25.303   4.914  49.393  1.00  0.00     0.036 C 
HETATM   25  C13 UNL     1      26.707   5.057  48.890  1.00  0.00     0.010 C 
ENDBRANCH   6  24
BRANCH  12  26
HETATM   26  C19 UNL     1      23.399   0.488  53.661  1.00  0.00     0.095 C 
BRANCH  26  27
HETATM   27  C20 UNL     1      22.143   0.116  53.501  1.00  0.00    -0.075 C 
BRANCH  27  28
HETATM   28  C21 UNL     1      20.910  -0.275  53.634  1.00  0.00     0.030 C 
BRANCH  28  29
HETATM   29  N3  UNL     1      19.792  -0.872  53.641  1.00  0.00    -0.238 NA
BRANCH  29  30
HETATM   30  C22 UNL     1      18.742  -0.551  52.679  1.00  0.00     0.190 C 
BRANCH  30  31
HETATM   31  C23 UNL     1      17.428  -1.160  53.094  1.00  0.00     0.289 C 
BRANCH  31  32
HETATM   32  N4  UNL     1      17.673  -2.302  53.928  1.00  0.00     0.079 N 
HETATM   33  H29 UNL     1      17.431  -2.072  54.921  1.00  0.00     0.312 HD
HETATM   34  H30 UNL     1      18.705  -2.515  53.939  1.00  0.00     0.312 HD
ENDBRANCH  31  32
ENDBRANCH  30  31
ENDBRANCH  29  30
ENDBRANCH  28  29
ENDBRANCH  27  28
ENDBRANCH  26  27
ENDBRANCH  12  26
TORSDOF 11
ENDMDL
MODEL 8
REMARK VINA RESULT:      -6.9      2.839      7.070
REMARK  11 active torsions:
REMARK  status: ('A' for Active; 'I' for Inactive)
REMARK    1  A    between atoms: C2_2  and  O1_3 
REMARK    2  A    between atoms: O1_3  and  C3_4 
REMARK    3  A    between atoms: N2_8  and  C6_9 
REMARK    4  A    between atoms: C11_14  and  C12_15 
REMARK    5  A    between atoms: C18_22  and  C19_23 
REMARK    6  A    between atoms: C19_23  and  C20_24 
REMARK    7  A    between atoms: C20_24  and  C21_25 
REMARK    8  A    between atoms: C21_25  and  N3_26 
REMARK    9  A    between atoms: N3_26  and  C22_27 
REMARK   10  A    between atoms: C22_27  and  C23_28 
REMARK   11  A    between atoms: C23_28  and  N4_29 
ROOT
HETATM    1  C6  UNL     1      23.371   1.870  51.527  1.00  0.00     0.037 A 
HETATM    2  C7  UNL     1      22.014   1.869  51.170  1.00  0.00     0.038 A 
HETATM    3  C8  UNL     1      21.055   1.039  51.715  1.00  0.00    -0.033 A 
HETATM    4  C9  UNL     1      21.504   0.162  52.677  1.00  0.00     0.022 A 
HETATM    5  C10 UNL     1      22.825   0.125  53.062  1.00  0.00     0.025 A 
HETATM    6  C11 UNL     1      23.747   0.968  52.493  1.00  0.00    -0.031 A 
HETATM    7  C14 UNL     1      20.629  -0.787  53.357  1.00  0.00     0.188 A 
HETATM    8  O2  UNL     1      21.015  -1.600  54.241  1.00  0.00    -0.287 OA
HETATM    9  C15 UNL     1      19.225  -0.804  53.002  1.00  0.00    -0.014 A 
HETATM   10  C16 UNL     1      18.292  -1.734  53.647  1.00  0.00     0.052 C 
HETATM   11  C17 UNL     1      18.851   0.057  52.075  1.00  0.00    -0.005 A 
HETATM   12  C18 UNL     1      19.639   1.057  51.322  1.00  0.00     0.060 A 
ENDROOT
BRANCH   1  13
HETATM   13  N2  UNL     1      24.100   2.838  50.785  1.00  0.00    -0.370 N 
HETATM   14  C5  UNL     1      25.348   2.903  50.054  1.00  0.00     0.154 C 
HETATM   15  C4  UNL     1      25.979   4.245  50.044  1.00  0.00     0.292 C 
HETATM   16  N1  UNL     1      25.097   5.298  49.585  1.00  0.00     0.116 N 
HETATM   17  C3  UNL     1      23.719   4.844  49.532  1.00  0.00     0.378 C 
HETATM   18  H7  UNL     1      25.218   6.138  50.182  1.00  0.00     0.319 HD
HETATM   19  C24 UNL     1      23.350   4.085  50.788  1.00  0.00     0.139 C 
HETATM   20  C25 UNL     1      23.675   4.988  51.943  1.00  0.00     0.037 C 
BRANCH  17  21
HETATM   21  O1  UNL     1      23.476   4.043  48.435  1.00  0.00    -0.356 OA
BRANCH  21  22
HETATM   22  C2  UNL     1      22.191   4.071  47.955  1.00  0.00     0.166 C 
HETATM   23  C1  UNL     1      21.770   2.655  47.607  1.00  0.00     0.033 C 
ENDBRANCH  21  22
ENDBRANCH  17  21
ENDBRANCH   1  13
BRANCH   6  24
HETATM   24  C12 UNL     1      25.164   0.917  52.889  1.00  0.00     0.036 C 
HETATM   25  C13 UNL     1      25.624   2.082  53.710  1.00  0.00     0.010 C 
ENDBRANCH   6  24
BRANCH  12  26
HETATM   26  C19 UNL     1      19.036   2.397  51.591  1.00  0.00     0.095 C 
BRANCH  26  27
HETATM   27  C20 UNL     1      17.741   2.613  51.451  1.00  0.00    -0.075 C 
BRANCH  27  28
HETATM   28  C21 UNL     1      16.509   2.712  51.046  1.00  0.00     0.030 C 
BRANCH  28  29
HETATM   29  N3  UNL     1      15.312   3.037  50.784  1.00  0.00    -0.238 NA
BRANCH  29  30
HETATM   30  C22 UNL     1      14.546   3.920  51.658  1.00  0.00     0.190 C 
BRANCH  30  31
HETATM   31  C23 UNL     1      14.504   3.379  53.064  1.00  0.00     0.289 C 
BRANCH  31  32
HETATM   32  N4  UNL     1      14.858   4.420  53.987  1.00  0.00     0.079 N 
HETATM   33  H29 UNL     1      14.557   5.348  53.604  1.00  0.00     0.312 HD
HETATM   34  H30 UNL     1      15.907   4.482  54.063  1.00  0.00     0.312 HD
ENDBRANCH  31  32
ENDBRANCH  30  31
ENDBRANCH  29  30
ENDBRANCH  28  29
ENDBRANCH  27  28
ENDBRANCH  26  27
ENDBRANCH  12  26
TORSDOF 11
ENDMDL
MODEL 9
REMARK VINA RESULT:      -6.9      2.276      6.354
REMARK  11 active torsions:
REMARK  status: ('A' for Active; 'I' for Inactive)
REMARK    1  A    between atoms: C2_2  and  O1_3 
REMARK    2  A    between atoms: O1_3  and  C3_4 
REMARK    3  A    between atoms: N2_8  and  C6_9 
REMARK    4  A    between atoms: C11_14  and  C12_15 
REMARK    5  A    between atoms: C18_22  and  C19_23 
REMARK    6  A    between atoms: C19_23  and  C20_24 
REMARK    7  A    between atoms: C20_24  and  C21_25 
REMARK    8  A    between atoms: C21_25  and  N3_26 
REMARK    9  A    between atoms: N3_26  and  C22_27 
REMARK   10  A    between atoms: C22_27  and  C23_28 
REMARK   11  A    between atoms: C23_28  and  N4_29 
ROOT
HETATM    1  C6  UNL     1      24.806   2.719  51.200  1.00  0.00     0.037 A 
HETATM    2  C7  UNL     1      23.468   2.298  51.243  1.00  0.00     0.038 A 
HETATM    3  C8  UNL     1      22.983   1.292  52.054  1.00  0.00    -0.033 A 
HETATM    4  C9  UNL     1      23.913   0.683  52.867  1.00  0.00     0.022 A 
HETATM    5  C10 UNL     1      25.236   1.060  52.862  1.00  0.00     0.025 A 
HETATM    6  C11 UNL     1      25.677   2.066  52.038  1.00  0.00    -0.031 A 
HETATM    7  C14 UNL     1      23.576  -0.399  53.786  1.00  0.00     0.188 A 
HETATM    8  O2  UNL     1      24.408  -0.974  54.541  1.00  0.00    -0.287 OA
HETATM    9  C15 UNL     1      22.201  -0.849  53.844  1.00  0.00    -0.014 A 
HETATM   10  C16 UNL     1      21.796  -1.933  54.746  1.00  0.00     0.052 C 
HETATM   11  C17 UNL     1      21.354  -0.230  53.044  1.00  0.00    -0.005 A 
HETATM   12  C18 UNL     1      21.576   0.868  52.079  1.00  0.00     0.060 A 
ENDROOT
BRANCH   1  13
HETATM   13  N2  UNL     1      24.987   3.772  50.263  1.00  0.00    -0.370 N 
HETATM   14  C5  UNL     1      25.948   4.139  49.245  1.00  0.00     0.154 C 
HETATM   15  C4  UNL     1      26.075   5.601  49.025  1.00  0.00     0.292 C 
HETATM   16  N1  UNL     1      24.812   6.258  48.755  1.00  0.00     0.116 N 
HETATM   17  C3  UNL     1      23.690   5.389  49.061  1.00  0.00     0.378 C 
HETATM   18  H7  UNL     1      24.772   7.159  49.268  1.00  0.00     0.319 HD
HETATM   19  C24 UNL     1      23.882   4.709  50.400  1.00  0.00     0.139 C 
HETATM   20  C25 UNL     1      24.130   5.801  51.401  1.00  0.00     0.037 C 
BRANCH  17  21
HETATM   21  O1  UNL     1      23.496   4.427  48.092  1.00  0.00    -0.356 OA
BRANCH  21  22
HETATM   22  C2  UNL     1      22.237   3.884  48.042  1.00  0.00     0.166 C 
HETATM   23  C1  UNL     1      22.359   2.400  47.745  1.00  0.00     0.033 C 
ENDBRANCH  21  22
ENDBRANCH  17  21
ENDBRANCH   1  13
BRANCH   6  24
HETATM   24  C12 UNL     1      27.096   2.458  52.017  1.00  0.00     0.036 C 
HETATM   25  C13 UNL     1      27.842   2.165  53.282  1.00  0.00     0.010 C 
ENDBRANCH   6  24
BRANCH  12  26
HETATM   26  C19 UNL     1      20.692   2.003  52.481  1.00  0.00     0.095 C 
BRANCH  26  27
HETATM   27  C20 UNL     1      19.444   2.089  52.060  1.00  0.00    -0.075 C 
BRANCH  27  28
HETATM   28  C21 UNL     1      18.254   1.894  51.573  1.00  0.00     0.030 C 
BRANCH  28  29
HETATM   29  N3  UNL     1      17.058   1.561  51.316  1.00  0.00    -0.238 NA
BRANCH  29  30
HETATM   30  C22 UNL     1      15.962   2.524  51.375  1.00  0.00     0.190 C 
BRANCH  30  31
HETATM   31  C23 UNL     1      16.479   3.908  51.674  1.00  0.00     0.289 C 
BRANCH  31  32
HETATM   32  N4  UNL     1      16.339   4.732  50.506  1.00  0.00     0.079 N 
HETATM   33  H29 UNL     1      17.098   5.454  50.493  1.00  0.00     0.312 HD
HETATM   34  H30 UNL     1      15.440   5.279  50.568  1.00  0.00     0.312 HD
ENDBRANCH  31  32
ENDBRANCH  30  31
ENDBRANCH  29  30
ENDBRANCH  28  29
ENDBRANCH  27  28
ENDBRANCH  26  27
ENDBRANCH  12  26
TORSDOF 11
ENDMDL
