MODEL 1
REMARK VINA RESULT:      -8.0      0.000      0.000
REMARK  1 active torsions:
REMARK  status: ('A' for Active; 'I' for Inactive)
REMARK    1  A    between atoms: C6_8  and  C7_9 
ROOT
HETATM    1  C7  UNL     1      25.395   2.523  51.408  1.00  0.00    -0.021 C 
HETATM    2  C8  UNL     1      26.700   2.612  51.536  1.00  0.00     0.126 C 
HETATM    3  N1  UNL     1      27.608   1.821  52.343  1.00  0.00    -0.256 NA
HETATM    4  C9  UNL     1      27.337   0.557  52.698  1.00  0.00     0.207 C 
HETATM    5  N2  UNL     1      26.167  -0.292  52.410  1.00  0.00    -0.350 N 
HETATM    6  C10 UNL     1      24.865   0.349  52.536  1.00  0.00     0.045 A 
HETATM    7  C11 UNL     1      23.907  -0.434  53.207  1.00  0.00     0.030 A 
HETATM    8  C12 UNL     1      22.688   0.188  53.510  1.00  0.00     0.004 A 
HETATM    9  C13 UNL     1      22.381   1.489  53.202  1.00  0.00     0.020 A 
HETATM   10  C14 UNL     1      23.292   2.276  52.548  1.00  0.00     0.024 A 
HETATM   11 BR1  UNL     1      23.097   4.178  52.247  1.00  0.00    -0.050 Br
HETATM   12  C15 UNL     1      24.519   1.675  52.220  1.00  0.00     0.016 A 
HETATM   13  H9  UNL     1      26.093  -1.283  52.165  1.00  0.00     0.166 HD
ENDROOT
BRANCH   1  14
HETATM   14  C6  UNL     1      24.661   3.461  50.477  1.00  0.00    -0.009 C 
HETATM   15  C5  UNL     1      23.624   2.868  49.565  1.00  0.00     0.005 C 
HETATM   16  C4  UNL     1      22.733   2.076  48.909  1.00  0.00    -0.005 C 
HETATM   17  C3  UNL     1      21.862   2.447  47.760  1.00  0.00     0.005 C 
HETATM   18  C2  UNL     1      22.114   3.839  47.465  1.00  0.00     0.000 A 
HETATM   19  O2  UNL     1      22.409   5.025  47.182  1.00  0.00     0.000 OA
HETATM   20  O1  UNL     1      22.467   5.145  47.181  1.00  0.00     0.000 OA
HETATM   21  C1  UNL     1      22.962   6.216  47.145  1.00  0.00     0.053 A 
HETATM   22  S1  UNL     1      24.113   7.484  47.648  1.00  0.00    -0.202 SA
HETATM   23  C18 UNL     1      24.979   6.786  49.099  1.00  0.00     0.137 C 
HETATM   24  C17 UNL     1      25.293   5.831  50.009  1.00  0.00    -0.013 C 
HETATM   25  C16 UNL     1      24.532   4.557  49.762  1.00  0.00     0.067 C 
ENDBRANCH   1  14
TORSDOF 1
ENDMDL
MODEL 2
REMARK VINA RESULT:      -7.6      4.280      6.698
REMARK  1 active torsions:
REMARK  status: ('A' for Active; 'I' for Inactive)
REMARK    1  A    between atoms: C6_8  and  C7_9 
ROOT
HETATM    1  C7  UNL     1      23.016   1.612  50.762  1.00  0.00    -0.021 C 
HETATM    2  C8  UNL     1      21.922   0.921  50.533  1.00  0.00     0.126 C 
HETATM    3  N1  UNL     1      20.791   1.231  49.681  1.00  0.00    -0.256 NA
HETATM    4  C9  UNL     1      20.899   2.025  48.605  1.00  0.00     0.207 C 
HETATM    5  N2  UNL     1      22.065   2.734  48.049  1.00  0.00    -0.350 N 
HETATM    6  C10 UNL     1      22.925   3.406  49.014  1.00  0.00     0.045 A 
HETATM    7  C11 UNL     1      23.317   4.701  48.625  1.00  0.00     0.030 A 
HETATM    8  C12 UNL     1      24.003   5.463  49.579  1.00  0.00     0.004 A 
HETATM    9  C13 UNL     1      24.306   5.034  50.846  1.00  0.00     0.020 A 
HETATM   10  C14 UNL     1      23.940   3.778  51.254  1.00  0.00     0.024 A 
HETATM   11 BR1  UNL     1      24.095   3.114  53.066  1.00  0.00    -0.050 Br
HETATM   12  C15 UNL     1      23.261   2.985  50.313  1.00  0.00     0.016 A 
HETATM   13  H9  UNL     1      22.373   2.878  47.084  1.00  0.00     0.166 HD
ENDROOT
BRANCH   1  14
HETATM   14  C6  UNL     1      24.077   1.065  51.689  1.00  0.00    -0.009 C 
HETATM   15  C5  UNL     1      23.621   0.264  52.876  1.00  0.00     0.005 C 
HETATM   16  C4  UNL     1      22.930  -0.444  53.811  1.00  0.00    -0.005 C 
HETATM   17  C3  UNL     1      23.461  -1.061  55.057  1.00  0.00     0.005 C 
HETATM   18  C2  UNL     1      24.881  -0.792  55.096  1.00  0.00     0.000 A 
HETATM   19  O2  UNL     1      26.095  -0.479  55.142  1.00  0.00     0.000 OA
HETATM   20  O1  UNL     1      26.213  -0.425  55.114  1.00  0.00     0.000 OA
HETATM   21  C1  UNL     1      27.278   0.034  54.894  1.00  0.00     0.053 A 
HETATM   22  S1  UNL     1      28.461   1.015  53.986  1.00  0.00    -0.202 SA
HETATM   23  C18 UNL     1      27.563   1.572  52.494  1.00  0.00     0.137 C 
HETATM   24  C17 UNL     1      26.489   1.713  51.678  1.00  0.00    -0.013 C 
HETATM   25  C16 UNL     1      25.263   1.060  52.257  1.00  0.00     0.067 C 
ENDBRANCH   1  14
TORSDOF 1
ENDMDL
MODEL 3
REMARK VINA RESULT:      -7.6      4.406      6.984
REMARK  1 active torsions:
REMARK  status: ('A' for Active; 'I' for Inactive)
REMARK    1  A    between atoms: C6_8  and  C7_9 
ROOT
HETATM    1  C7  UNL     1      22.555   1.935  50.523  1.00  0.00    -0.021 C 
HETATM    2  C8  UNL     1      21.536   1.331  49.954  1.00  0.00     0.126 C 
HETATM    3  N1  UNL     1      20.787   1.695  48.768  1.00  0.00    -0.256 NA
HETATM    4  C9  UNL     1      21.322   2.422  47.776  1.00  0.00     0.207 C 
HETATM    5  N2  UNL     1      22.669   3.000  47.629  1.00  0.00    -0.350 N 
HETATM    6  C10 UNL     1      23.223   3.642  48.814  1.00  0.00     0.045 A 
HETATM    7  C11 UNL     1      23.846   4.877  48.555  1.00  0.00     0.030 A 
HETATM    8  C12 UNL     1      24.250   5.623  49.670  1.00  0.00     0.004 A 
HETATM    9  C13 UNL     1      24.073   5.232  50.973  1.00  0.00     0.020 A 
HETATM   10  C14 UNL     1      23.472   4.034  51.257  1.00  0.00     0.024 A 
HETATM   11 BR1  UNL     1      22.952   3.449  53.028  1.00  0.00    -0.050 Br
HETATM   12  C15 UNL     1      23.068   3.258  50.157  1.00  0.00     0.016 A 
HETATM   13  H9  UNL     1      23.292   3.069  46.820  1.00  0.00     0.166 HD
ENDROOT
BRANCH   1  14
HETATM   14  C6  UNL     1      23.190   1.344  51.761  1.00  0.00    -0.009 C 
HETATM   15  C5  UNL     1      24.690   1.262  51.804  1.00  0.00     0.005 C 
HETATM   16  C4  UNL     1      26.029   1.358  51.584  1.00  0.00    -0.005 C 
HETATM   17  C3  UNL     1      27.128   0.782  52.407  1.00  0.00     0.005 C 
HETATM   18  C2  UNL     1      26.514   0.102  53.525  1.00  0.00     0.000 A 
HETATM   19  O2  UNL     1      25.951  -0.544  54.441  1.00  0.00     0.000 OA
HETATM   20  O1  UNL     1      25.859  -0.602  54.518  1.00  0.00     0.000 OA
HETATM   21  C1  UNL     1      25.067  -1.124  55.220  1.00  0.00     0.053 A 
HETATM   22  S1  UNL     1      23.424  -1.586  55.742  1.00  0.00    -0.202 SA
HETATM   23  C18 UNL     1      22.301  -0.687  54.614  1.00  0.00     0.137 C 
HETATM   24  C17 UNL     1      21.981   0.110  53.564  1.00  0.00    -0.013 C 
HETATM   25  C16 UNL     1      23.208   0.581  52.831  1.00  0.00     0.067 C 
ENDBRANCH   1  14
TORSDOF 1
ENDMDL
MODEL 4
REMARK VINA RESULT:      -7.6      4.077      5.759
REMARK  1 active torsions:
REMARK  status: ('A' for Active; 'I' for Inactive)
REMARK    1  A    between atoms: C6_8  and  C7_9 
ROOT
HETATM    1  C7  UNL     1      23.838   5.669  50.350  1.00  0.00    -0.021 C 
HETATM    2  C8  UNL     1      23.399   6.793  50.871  1.00  0.00     0.126 C 
HETATM    3  N1  UNL     1      24.018   8.104  50.902  1.00  0.00    -0.256 NA
HETATM    4  C9  UNL     1      24.899   8.504  49.973  1.00  0.00     0.207 C 
HETATM    5  N2  UNL     1      25.436   7.802  48.794  1.00  0.00    -0.350 N 
HETATM    6  C10 UNL     1      25.812   6.408  48.995  1.00  0.00     0.045 A 
HETATM    7  C11 UNL     1      27.046   6.061  48.415  1.00  0.00     0.030 A 
HETATM    8  C12 UNL     1      27.545   4.787  48.713  1.00  0.00     0.004 A 
HETATM    9  C13 UNL     1      26.917   3.877  49.525  1.00  0.00     0.020 A 
HETATM   10  C14 UNL     1      25.714   4.185  50.104  1.00  0.00     0.024 A 
HETATM   11 BR1  UNL     1      24.820   3.106  51.441  1.00  0.00    -0.050 Br
HETATM   12  C15 UNL     1      25.183   5.453  49.811  1.00  0.00     0.016 A 
HETATM   13  H9  UNL     1      25.634   8.127  47.844  1.00  0.00     0.166 HD
ENDROOT
BRANCH   1  14
HETATM   14  C6  UNL     1      22.992   4.419  50.428  1.00  0.00    -0.009 C 
HETATM   15  C5  UNL     1      22.900   3.561  49.197  1.00  0.00     0.005 C 
HETATM   16  C4  UNL     1      23.040   2.974  47.978  1.00  0.00    -0.005 C 
HETATM   17  C3  UNL     1      22.298   1.798  47.446  1.00  0.00     0.005 C 
HETATM   18  C2  UNL     1      21.393   1.358  48.484  1.00  0.00     0.000 A 
HETATM   19  O2  UNL     1      20.564   1.047  49.373  1.00  0.00     0.000 OA
HETATM   20  O1  UNL     1      20.492   1.047  49.484  1.00  0.00     0.000 OA
HETATM   21  C1  UNL     1      19.831   1.015  50.462  1.00  0.00     0.053 A 
HETATM   22  S1  UNL     1      19.269   1.593  52.054  1.00  0.00    -0.202 SA
HETATM   23  C18 UNL     1      20.393   2.971  52.478  1.00  0.00     0.137 C 
HETATM   24  C17 UNL     1      21.398   3.856  52.266  1.00  0.00    -0.013 C 
HETATM   25  C16 UNL     1      22.015   3.680  50.905  1.00  0.00     0.067 C 
ENDBRANCH   1  14
TORSDOF 1
ENDMDL
MODEL 5
REMARK VINA RESULT:      -7.5      8.744     10.646
REMARK  1 active torsions:
REMARK  status: ('A' for Active; 'I' for Inactive)
REMARK    1  A    between atoms: C6_8  and  C7_9 
ROOT
HETATM    1  C7  UNL     1      33.446   6.820  45.652  1.00  0.00    -0.021 C 
HETATM    2  C8  UNL     1      33.741   7.414  44.517  1.00  0.00     0.126 C 
HETATM    3  N1  UNL     1      34.597   6.970  43.434  1.00  0.00    -0.256 NA
HETATM    4  C9  UNL     1      34.826   5.672  43.186  1.00  0.00     0.207 C 
HETATM    5  N2  UNL     1      34.335   4.463  43.870  1.00  0.00    -0.350 N 
HETATM    6  C10 UNL     1      34.343   4.503  45.326  1.00  0.00     0.045 A 
HETATM    7  C11 UNL     1      34.832   3.328  45.926  1.00  0.00     0.030 A 
HETATM    8  C12 UNL     1      35.025   3.364  47.314  1.00  0.00     0.004 A 
HETATM    9  C13 UNL     1      34.774   4.455  48.105  1.00  0.00     0.020 A 
HETATM   10  C14 UNL     1      34.296   5.613  47.551  1.00  0.00     0.024 A 
HETATM   11 BR1  UNL     1      34.108   7.296  48.491  1.00  0.00    -0.050 Br
HETATM   12  C15 UNL     1      34.081   5.602  46.162  1.00  0.00     0.016 A 
HETATM   13  H9  UNL     1      34.013   3.562  43.505  1.00  0.00     0.166 HD
ENDROOT
BRANCH   1  14
HETATM   14  C6  UNL     1      32.500   7.481  46.628  1.00  0.00    -0.009 C 
HETATM   15  C5  UNL     1      31.336   6.673  47.128  1.00  0.00     0.005 C 
HETATM   16  C4  UNL     1      30.428   5.708  47.437  1.00  0.00    -0.005 C 
HETATM   17  C3  UNL     1      29.178   5.858  48.230  1.00  0.00     0.005 C 
HETATM   18  C2  UNL     1      29.100   7.239  48.649  1.00  0.00     0.000 A 
HETATM   19  O2  UNL     1      29.020   8.459  48.932  1.00  0.00     0.000 OA
HETATM   20  O1  UNL     1      29.044   8.589  48.939  1.00  0.00     0.000 OA
HETATM   21  C1  UNL     1      29.231   9.752  49.024  1.00  0.00     0.053 A 
HETATM   22  S1  UNL     1      30.097  11.279  48.701  1.00  0.00    -0.202 SA
HETATM   23  C18 UNL     1      31.603  10.783  47.791  1.00  0.00     0.137 C 
HETATM   24  C17 UNL     1      32.443   9.919  47.168  1.00  0.00    -0.013 C 
HETATM   25  C16 UNL     1      31.904   8.514  47.181  1.00  0.00     0.067 C 
ENDBRANCH   1  14
TORSDOF 1
ENDMDL
MODEL 6
REMARK VINA RESULT:      -7.5      4.154      6.347
REMARK  1 active torsions:
REMARK  status: ('A' for Active; 'I' for Inactive)
REMARK    1  A    between atoms: C6_8  and  C7_9 
ROOT
HETATM    1  C7  UNL     1      21.498   2.775  50.454  1.00  0.00    -0.021 C 
HETATM    2  C8  UNL     1      20.713   1.724  50.382  1.00  0.00     0.126 C 
HETATM    3  N1  UNL     1      19.358   1.613  49.877  1.00  0.00    -0.256 NA
HETATM    4  C9  UNL     1      18.869   2.443  48.945  1.00  0.00     0.207 C 
HETATM    5  N2  UNL     1      19.494   3.583  48.251  1.00  0.00    -0.350 N 
HETATM    6  C10 UNL     1      20.282   4.484  49.081  1.00  0.00     0.045 A 
HETATM    7  C11 UNL     1      20.053   5.847  48.821  1.00  0.00     0.030 A 
HETATM    8  C12 UNL     1      20.650   6.764  49.696  1.00  0.00     0.004 A 
HETATM    9  C13 UNL     1      21.427   6.418  50.772  1.00  0.00     0.020 A 
HETATM   10  C14 UNL     1      21.670   5.099  51.051  1.00  0.00     0.024 A 
HETATM   11 BR1  UNL     1      22.550   4.449  52.649  1.00  0.00    -0.050 Br
HETATM   12  C15 UNL     1      21.093   4.157  50.182  1.00  0.00     0.016 A 
HETATM   13  H9  UNL     1      19.449   3.889  47.276  1.00  0.00     0.166 HD
ENDROOT
BRANCH   1  14
HETATM   14  C6  UNL     1      22.897   2.638  51.009  1.00  0.00    -0.009 C 
HETATM   15  C5  UNL     1      24.021   3.271  50.237  1.00  0.00     0.005 C 
HETATM   16  C4  UNL     1      24.806   3.969  49.372  1.00  0.00    -0.005 C 
HETATM   17  C3  UNL     1      26.292   4.033  49.345  1.00  0.00     0.005 C 
HETATM   18  C2  UNL     1      26.775   3.222  50.440  1.00  0.00     0.000 A 
HETATM   19  O2  UNL     1      27.167   2.452  51.350  1.00  0.00     0.000 OA
HETATM   20  O1  UNL     1      27.169   2.363  51.449  1.00  0.00     0.000 OA
HETATM   21  C1  UNL     1      27.224   1.580  52.331  1.00  0.00     0.053 A 
HETATM   22  S1  UNL     1      26.548   0.438  53.525  1.00  0.00    -0.202 SA
HETATM   23  C18 UNL     1      24.735   0.627  53.383  1.00  0.00     0.137 C 
HETATM   24  C17 UNL     1      23.580   1.107  52.861  1.00  0.00    -0.013 C 
HETATM   25  C16 UNL     1      23.837   2.047  51.715  1.00  0.00     0.067 C 
ENDBRANCH   1  14
TORSDOF 1
ENDMDL
MODEL 7
REMARK VINA RESULT:      -7.4      4.227      6.311
REMARK  1 active torsions:
REMARK  status: ('A' for Active; 'I' for Inactive)
REMARK    1  A    between atoms: C6_8  and  C7_9 
ROOT
HETATM    1  C7  UNL     1      23.424   4.760  50.936  1.00  0.00    -0.021 C 
HETATM    2  C8  UNL     1      24.291   5.732  51.106  1.00  0.00     0.126 C 
HETATM    3  N1  UNL     1      24.162   7.148  50.823  1.00  0.00    -0.256 NA
HETATM    4  C9  UNL     1      22.977   7.774  50.817  1.00  0.00     0.207 C 
HETATM    5  N2  UNL     1      21.618   7.259  51.060  1.00  0.00    -0.350 N 
HETATM    6  C10 UNL     1      21.295   5.984  50.434  1.00  0.00     0.045 A 
HETATM    7  C11 UNL     1      20.027   5.952  49.824  1.00  0.00     0.030 A 
HETATM    8  C12 UNL     1      19.724   4.817  49.061  1.00  0.00     0.004 A 
HETATM    9  C13 UNL     1      20.575   3.757  48.873  1.00  0.00     0.020 A 
HETATM   10  C14 UNL     1      21.816   3.758  49.454  1.00  0.00     0.024 A 
HETATM   11 BR1  UNL     1      23.204   2.454  49.103  1.00  0.00    -0.050 Br
HETATM   12  C15 UNL     1      22.142   4.879  50.236  1.00  0.00     0.016 A 
HETATM   13  H9  UNL     1      20.824   7.655  51.571  1.00  0.00     0.166 HD
ENDROOT
BRANCH   1  14
HETATM   14  C6  UNL     1      23.786   3.346  51.329  1.00  0.00    -0.009 C 
HETATM   15  C5  UNL     1      22.758   2.545  52.079  1.00  0.00     0.005 C 
HETATM   16  C4  UNL     1      21.643   2.059  52.688  1.00  0.00    -0.005 C 
HETATM   17  C3  UNL     1      21.494   0.769  53.414  1.00  0.00     0.005 C 
HETATM   18  C2  UNL     1      22.767   0.087  53.341  1.00  0.00     0.000 A 
HETATM   19  O2  UNL     1      23.903  -0.445  53.327  1.00  0.00     0.000 OA
HETATM   20  O1  UNL     1      24.033  -0.467  53.308  1.00  0.00     0.000 OA
HETATM   21  C1  UNL     1      25.180  -0.693  53.152  1.00  0.00     0.053 A 
HETATM   22  S1  UNL     1      26.842  -0.330  52.610  1.00  0.00    -0.202 SA
HETATM   23  C18 UNL     1      26.706   1.250  51.701  1.00  0.00     0.137 C 
HETATM   24  C17 UNL     1      26.074   2.351  51.224  1.00  0.00    -0.013 C 
HETATM   25  C16 UNL     1      24.627   2.381  51.632  1.00  0.00     0.067 C 
ENDBRANCH   1  14
TORSDOF 1
ENDMDL
MODEL 8
REMARK VINA RESULT:      -7.2      7.522      9.868
REMARK  1 active torsions:
REMARK  status: ('A' for Active; 'I' for Inactive)
REMARK    1  A    between atoms: C6_8  and  C7_9 
ROOT
HETATM    1  C7  UNL     1      29.467   6.244  48.035  1.00  0.00    -0.021 C 
HETATM    2  C8  UNL     1      28.672   5.222  48.258  1.00  0.00     0.126 C 
HETATM    3  N1  UNL     1      27.332   5.193  48.810  1.00  0.00    -0.256 NA
HETATM    4  C9  UNL     1      26.494   6.236  48.716  1.00  0.00     0.207 C 
HETATM    5  N2  UNL     1      26.677   7.562  48.101  1.00  0.00    -0.350 N 
HETATM    6  C10 UNL     1      27.954   8.216  48.358  1.00  0.00     0.045 A 
HETATM    7  C11 UNL     1      27.841   9.581  48.681  1.00  0.00     0.030 A 
HETATM    8  C12 UNL     1      29.011  10.226  49.103  1.00  0.00     0.004 A 
HETATM    9  C13 UNL     1      30.234   9.617  49.222  1.00  0.00     0.020 A 
HETATM   10  C14 UNL     1      30.377   8.290  48.913  1.00  0.00     0.024 A 
HETATM   11 BR1  UNL     1      31.972   7.242  49.242  1.00  0.00    -0.050 Br
HETATM   12  C15 UNL     1      29.222   7.620  48.475  1.00  0.00     0.016 A 
HETATM   13  H9  UNL     1      26.046   8.142  47.542  1.00  0.00     0.166 HD
ENDROOT
BRANCH   1  14
HETATM   14  C6  UNL     1      30.831   6.023  47.424  1.00  0.00    -0.009 C 
HETATM   15  C5  UNL     1      31.211   6.866  46.240  1.00  0.00     0.005 C 
HETATM   16  C4  UNL     1      31.294   7.783  45.238  1.00  0.00    -0.005 C 
HETATM   17  C3  UNL     1      32.357   7.904  44.203  1.00  0.00     0.005 C 
HETATM   18  C2  UNL     1      33.328   6.865  44.464  1.00  0.00     0.000 A 
HETATM   19  O2  UNL     1      34.113   5.908  44.668  1.00  0.00     0.000 OA
HETATM   20  O1  UNL     1      34.168   5.798  44.718  1.00  0.00     0.000 OA
HETATM   21  C1  UNL     1      34.690   4.824  45.132  1.00  0.00     0.053 A 
HETATM   22  S1  UNL     1      34.844   3.399  46.196  1.00  0.00    -0.202 SA
HETATM   23  C18 UNL     1      33.469   3.553  47.391  1.00  0.00     0.137 C 
HETATM   24  C17 UNL     1      32.352   4.106  47.926  1.00  0.00    -0.013 C 
HETATM   25  C16 UNL     1      31.900   5.309  47.144  1.00  0.00     0.067 C 
ENDBRANCH   1  14
TORSDOF 1
ENDMDL
MODEL 9
REMARK VINA RESULT:      -7.1      3.472      4.816
REMARK  1 active torsions:
REMARK  status: ('A' for Active; 'I' for Inactive)
REMARK    1  A    between atoms: C6_8  and  C7_9 
ROOT
HETATM    1  C7  UNL     1      23.127   4.885  50.384  1.00  0.00    -0.021 C 
HETATM    2  C8  UNL     1      22.636   5.247  51.548  1.00  0.00     0.126 C 
HETATM    3  N1  UNL     1      21.683   4.569  52.404  1.00  0.00    -0.256 NA
HETATM    4  C9  UNL     1      21.530   3.236  52.392  1.00  0.00     0.207 C 
HETATM    5  N2  UNL     1      22.204   2.200  51.592  1.00  0.00    -0.350 N 
HETATM    6  C10 UNL     1      22.386   2.500  50.178  1.00  0.00     0.045 A 
HETATM    7  C11 UNL     1      22.078   1.426  49.322  1.00  0.00     0.030 A 
HETATM    8  C12 UNL     1      22.070   1.700  47.948  1.00  0.00     0.004 A 
HETATM    9  C13 UNL     1      22.334   2.928  47.398  1.00  0.00     0.020 A 
HETATM   10  C14 UNL     1      22.638   3.993  48.205  1.00  0.00     0.024 A 
HETATM   11 BR1  UNL     1      22.812   5.825  47.602  1.00  0.00    -0.050 Br
HETATM   12  C15 UNL     1      22.667   3.745  49.588  1.00  0.00     0.016 A 
HETATM   13  H9  UNL     1      22.546   1.268  51.841  1.00  0.00     0.166 HD
ENDROOT
BRANCH   1  14
HETATM   14  C6  UNL     1      24.137   5.764  49.683  1.00  0.00    -0.009 C 
HETATM   15  C5  UNL     1      25.473   5.161  49.348  1.00  0.00     0.005 C 
HETATM   16  C4  UNL     1      26.545   4.352  49.135  1.00  0.00    -0.005 C 
HETATM   17  C3  UNL     1      27.888   4.740  48.623  1.00  0.00     0.005 C 
HETATM   18  C2  UNL     1      27.852   6.161  48.362  1.00  0.00     0.000 A 
HETATM   19  O2  UNL     1      27.816   7.407  48.218  1.00  0.00     0.000 OA
HETATM   20  O1  UNL     1      27.775   7.534  48.218  1.00  0.00     0.000 OA
HETATM   21  C1  UNL     1      27.450   8.668  48.209  1.00  0.00     0.053 A 
HETATM   22  S1  UNL     1      26.339  10.035  48.499  1.00  0.00    -0.202 SA
HETATM   23  C18 UNL     1      24.773   9.262  49.041  1.00  0.00     0.137 C 
HETATM   24  C17 UNL     1      23.959   8.239  49.399  1.00  0.00    -0.013 C 
HETATM   25  C16 UNL     1      24.678   6.918  49.360  1.00  0.00     0.067 C 
ENDBRANCH   1  14
TORSDOF 1
ENDMDL
