MODEL 1
REMARK VINA RESULT:      -9.2      0.000      0.000
REMARK  5 active torsions:
REMARK  status: ('A' for Active; 'I' for Inactive)
REMARK    1  A    between atoms: N1_1  and  C1_2 
REMARK    2  A    between atoms: N3_4  and  C2_5 
REMARK    3  A    between atoms: C6_10  and  C7_11 
REMARK    4  A    between atoms: C12_19  and  C13_20 
REMARK    5  A    between atoms: C13_20  and  C14_21 
ROOT
HETATM    1  C1  UNL     1      24.602   5.173  50.546  1.00  0.00     0.146 C 
HETATM    2  N2  UNL     1      24.454   4.141  51.307  1.00  0.00    -0.152 NA
HETATM    3  N3  UNL     1      25.353   3.079  51.282  1.00  0.00    -0.243 N 
HETATM    4  C9  UNL     1      26.483   3.070  50.426  1.00  0.00     0.128 C 
HETATM    5  C10 UNL     1      26.595   4.145  49.665  1.00  0.00    -0.009 C 
HETATM    6  C11 UNL     1      27.568   4.613  48.646  1.00  0.00     0.036 C 
HETATM    7  C12 UNL     1      27.518   5.974  48.633  1.00  0.00     0.010 C 
HETATM    8  N4  UNL     1      26.535   6.422  49.612  1.00  0.00    -0.377 N 
HETATM    9  C20 UNL     1      25.650   5.315  49.538  1.00  0.00     0.187 C 
HETATM   10  H15 UNL     1      26.723   7.361  50.073  1.00  0.00     0.160 HD
ENDROOT
BRANCH   3  11
HETATM   11  C2  UNL     1      25.125   1.989  52.133  1.00  0.00     0.059 A 
HETATM   12  C3  UNL     1      26.187   1.449  52.818  1.00  0.00     0.034 A 
HETATM   13  C4  UNL     1      26.018   0.367  53.675  1.00  0.00     0.045 A 
HETATM   14  C5  UNL     1      24.795  -0.221  53.887  1.00  0.00     0.131 A 
HETATM   15  F1  UNL     1      24.705  -1.264  54.729  1.00  0.00    -0.205 F 
HETATM   16  C6  UNL     1      23.719   0.315  53.202  1.00  0.00     0.088 A 
HETATM   17  C8  UNL     1      23.910   1.384  52.359  1.00  0.00     0.051 A 
BRANCH  16  18
HETATM   18  C7  UNL     1      22.382  -0.308  53.417  1.00  0.00     0.420 C 
HETATM   19  F2  UNL     1      22.002  -0.189  54.741  1.00  0.00    -0.166 F 
HETATM   20  F3  UNL     1      21.431   0.350  52.664  1.00  0.00    -0.166 F 
HETATM   21  F4  UNL     1      22.392  -1.630  53.053  1.00  0.00    -0.166 F 
ENDBRANCH  16  18
ENDBRANCH   3  11
BRANCH   1  22
HETATM   22  N1  UNL     1      23.749   6.304  50.502  1.00  0.00    -0.384 N 
HETATM   23  H1  UNL     1      23.644   6.856  51.403  1.00  0.00     0.157 HD
HETATM   24  H2  UNL     1      23.122   6.856  49.863  1.00  0.00     0.157 HD
ENDBRANCH   1  22
BRANCH   7  25
HETATM   25  C13 UNL     1      28.383   6.780  47.714  1.00  0.00     0.095 C 
BRANCH  25  26
HETATM   26  C14 UNL     1      29.618   7.277  48.337  1.00  0.00    -0.053 A 
HETATM   27  C15 UNL     1      30.719   6.469  48.546  1.00  0.00     0.007 A 
HETATM   28  C16 UNL     1      31.896   6.926  49.135  1.00  0.00     0.001 A 
HETATM   29  C17 UNL     1      31.991   8.239  49.537  1.00  0.00     0.000 A 
HETATM   30  C18 UNL     1      30.893   9.032  49.325  1.00  0.00     0.001 A 
HETATM   31  C19 UNL     1      29.719   8.606  48.746  1.00  0.00     0.007 A 
ENDBRANCH  25  26
ENDBRANCH   7  25
TORSDOF 5
ENDMDL
MODEL 2
REMARK VINA RESULT:      -9.1      1.077      2.209
REMARK  5 active torsions:
REMARK  status: ('A' for Active; 'I' for Inactive)
REMARK    1  A    between atoms: N1_1  and  C1_2 
REMARK    2  A    between atoms: N3_4  and  C2_5 
REMARK    3  A    between atoms: C6_10  and  C7_11 
REMARK    4  A    between atoms: C12_19  and  C13_20 
REMARK    5  A    between atoms: C13_20  and  C14_21 
ROOT
HETATM    1  C1  UNL     1      24.654   5.622  50.452  1.00  0.00     0.146 C 
HETATM    2  N2  UNL     1      24.366   4.568  51.138  1.00  0.00    -0.152 NA
HETATM    3  N3  UNL     1      25.125   3.404  51.045  1.00  0.00    -0.243 N 
HETATM    4  C9  UNL     1      26.258   3.311  50.198  1.00  0.00     0.128 C 
HETATM    5  C10 UNL     1      26.516   4.412  49.515  1.00  0.00    -0.009 C 
HETATM    6  C11 UNL     1      27.554   4.821  48.535  1.00  0.00     0.036 C 
HETATM    7  C12 UNL     1      27.677   6.175  48.617  1.00  0.00     0.010 C 
HETATM    8  N4  UNL     1      26.743   6.676  49.619  1.00  0.00    -0.377 N 
HETATM    9  C20 UNL     1      25.727   5.698  49.463  1.00  0.00     0.187 C 
HETATM   10  H15 UNL     1      27.040   7.551  50.144  1.00  0.00     0.160 HD
ENDROOT
BRANCH   3  11
HETATM   11  C2  UNL     1      24.749   2.297  51.818  1.00  0.00     0.059 A 
HETATM   12  C3  UNL     1      23.419   1.960  51.891  1.00  0.00     0.034 A 
HETATM   13  C4  UNL     1      22.990   0.872  52.643  1.00  0.00     0.045 A 
HETATM   14  C5  UNL     1      23.858   0.076  53.349  1.00  0.00     0.131 A 
HETATM   15  F1  UNL     1      23.374  -0.960  54.054  1.00  0.00    -0.205 F 
HETATM   16  C6  UNL     1      25.200   0.406  53.283  1.00  0.00     0.088 A 
HETATM   17  C8  UNL     1      25.602   1.487  52.534  1.00  0.00     0.051 A 
BRANCH  16  18
HETATM   18  C7  UNL     1      26.161  -0.443  54.042  1.00  0.00     0.420 C 
HETATM   19  F2  UNL     1      26.260  -1.695  53.461  1.00  0.00    -0.166 F 
HETATM   20  F3  UNL     1      27.420   0.120  54.001  1.00  0.00    -0.166 F 
HETATM   21  F4  UNL     1      25.778  -0.568  55.352  1.00  0.00    -0.166 F 
ENDBRANCH  16  18
ENDBRANCH   3  11
BRANCH   1  22
HETATM   22  N1  UNL     1      23.951   6.852  50.480  1.00  0.00    -0.384 N 
HETATM   23  H1  UNL     1      23.323   7.020  51.320  1.00  0.00     0.157 HD
HETATM   24  H2  UNL     1      23.796   7.741  49.941  1.00  0.00     0.157 HD
ENDBRANCH   1  22
BRANCH   7  25
HETATM   25  C13 UNL     1      28.649   6.926  47.761  1.00  0.00     0.095 C 
BRANCH  25  26
HETATM   26  C14 UNL     1      30.054   6.755  48.161  1.00  0.00    -0.053 A 
HETATM   27  C15 UNL     1      30.800   5.653  47.792  1.00  0.00     0.007 A 
HETATM   28  C16 UNL     1      32.132   5.478  48.164  1.00  0.00     0.001 A 
HETATM   29  C17 UNL     1      32.754   6.434  48.934  1.00  0.00     0.000 A 
HETATM   30  C18 UNL     1      32.005   7.523  49.295  1.00  0.00     0.001 A 
HETATM   31  C19 UNL     1      30.689   7.720  48.942  1.00  0.00     0.007 A 
ENDBRANCH  25  26
ENDBRANCH   7  25
TORSDOF 5
ENDMDL
MODEL 3
REMARK VINA RESULT:      -9.0      1.459      2.556
REMARK  5 active torsions:
REMARK  status: ('A' for Active; 'I' for Inactive)
REMARK    1  A    between atoms: N1_1  and  C1_2 
REMARK    2  A    between atoms: N3_4  and  C2_5 
REMARK    3  A    between atoms: C6_10  and  C7_11 
REMARK    4  A    between atoms: C12_19  and  C13_20 
REMARK    5  A    between atoms: C13_20  and  C14_21 
ROOT
HETATM    1  C1  UNL     1      25.129   5.828  50.001  1.00  0.00     0.146 C 
HETATM    2  N2  UNL     1      24.814   4.774  50.676  1.00  0.00    -0.152 NA
HETATM    3  N3  UNL     1      25.584   3.616  50.627  1.00  0.00    -0.243 N 
HETATM    4  C9  UNL     1      26.759   3.528  49.840  1.00  0.00     0.128 C 
HETATM    5  C10 UNL     1      27.045   4.628  49.166  1.00  0.00    -0.009 C 
HETATM    6  C11 UNL     1      28.129   5.040  48.239  1.00  0.00     0.036 C 
HETATM    7  C12 UNL     1      28.238   6.396  48.321  1.00  0.00     0.010 C 
HETATM    8  N4  UNL     1      27.250   6.894  49.271  1.00  0.00    -0.377 N 
HETATM    9  C20 UNL     1      26.250   5.908  49.068  1.00  0.00     0.187 C 
HETATM   10  H15 UNL     1      27.514   7.773  49.807  1.00  0.00     0.160 HD
ENDROOT
BRANCH   3  11
HETATM   11  C2  UNL     1      25.177   2.509  51.384  1.00  0.00     0.059 A 
HETATM   12  C3  UNL     1      23.850   2.389  51.723  1.00  0.00     0.034 A 
HETATM   13  C4  UNL     1      23.392   1.312  52.473  1.00  0.00     0.045 A 
HETATM   14  C5  UNL     1      24.225   0.314  52.915  1.00  0.00     0.131 A 
HETATM   15  F1  UNL     1      23.713  -0.698  53.636  1.00  0.00    -0.205 F 
HETATM   16  C6  UNL     1      25.562   0.425  52.580  1.00  0.00     0.088 A 
HETATM   17  C8  UNL     1      25.994   1.499  51.839  1.00  0.00     0.051 A 
BRANCH  16  18
HETATM   18  C7  UNL     1      26.485  -0.647  53.050  1.00  0.00     0.420 C 
HETATM   19  F2  UNL     1      26.142  -1.861  52.483  1.00  0.00    -0.166 F 
HETATM   20  F3  UNL     1      27.775  -0.365  52.648  1.00  0.00    -0.166 F 
HETATM   21  F4  UNL     1      26.464  -0.750  54.417  1.00  0.00    -0.166 F 
ENDBRANCH  16  18
ENDBRANCH   3  11
BRANCH   1  22
HETATM   22  N1  UNL     1      24.416   7.053  49.987  1.00  0.00    -0.384 N 
HETATM   23  H1  UNL     1      24.579   7.688  49.151  1.00  0.00     0.157 HD
HETATM   24  H2  UNL     1      23.728   7.628  50.536  1.00  0.00     0.157 HD
ENDBRANCH   1  22
BRANCH   7  25
HETATM   25  C13 UNL     1      29.248   7.150  47.512  1.00  0.00     0.095 C 
BRANCH  25  26
HETATM   26  C14 UNL     1      29.539   8.496  48.026  1.00  0.00    -0.053 A 
HETATM   27  C15 UNL     1      30.402   8.715  49.083  1.00  0.00     0.007 A 
HETATM   28  C16 UNL     1      30.688   9.985  49.579  1.00  0.00     0.001 A 
HETATM   29  C17 UNL     1      30.096  11.089  49.008  1.00  0.00     0.000 A 
HETATM   30  C18 UNL     1      29.242  10.861  47.961  1.00  0.00     0.001 A 
HETATM   31  C19 UNL     1      28.942   9.618  47.451  1.00  0.00     0.007 A 
ENDBRANCH  25  26
ENDBRANCH   7  25
TORSDOF 5
ENDMDL
MODEL 4
REMARK VINA RESULT:      -8.8      1.895      3.385
REMARK  5 active torsions:
REMARK  status: ('A' for Active; 'I' for Inactive)
REMARK    1  A    between atoms: N1_1  and  C1_2 
REMARK    2  A    between atoms: N3_4  and  C2_5 
REMARK    3  A    between atoms: C6_10  and  C7_11 
REMARK    4  A    between atoms: C12_19  and  C13_20 
REMARK    5  A    between atoms: C13_20  and  C14_21 
ROOT
HETATM    1  C1  UNL     1      24.371   5.916  50.901  1.00  0.00     0.146 C 
HETATM    2  N2  UNL     1      24.141   4.771  51.452  1.00  0.00    -0.152 NA
HETATM    3  N3  UNL     1      24.874   3.637  51.116  1.00  0.00    -0.243 N 
HETATM    4  C9  UNL     1      25.916   3.672  50.156  1.00  0.00     0.128 C 
HETATM    5  C10 UNL     1      26.118   4.861  49.618  1.00  0.00    -0.009 C 
HETATM    6  C11 UNL     1      27.059   5.412  48.610  1.00  0.00     0.036 C 
HETATM    7  C12 UNL     1      27.203   6.741  48.875  1.00  0.00     0.010 C 
HETATM    8  N4  UNL     1      26.379   7.088  50.027  1.00  0.00    -0.377 N 
HETATM    9  C20 UNL     1      25.342   6.139  49.832  1.00  0.00     0.187 C 
HETATM   10  H15 UNL     1      26.736   7.877  50.641  1.00  0.00     0.160 HD
ENDROOT
BRANCH   3  11
HETATM   11  C2  UNL     1      24.564   2.427  51.753  1.00  0.00     0.059 A 
HETATM   12  C3  UNL     1      23.263   1.984  51.738  1.00  0.00     0.034 A 
HETATM   13  C4  UNL     1      22.900   0.792  52.354  1.00  0.00     0.045 A 
HETATM   14  C5  UNL     1      23.806  -0.007  53.007  1.00  0.00     0.131 A 
HETATM   15  F1  UNL     1      23.385  -1.146  53.580  1.00  0.00    -0.205 F 
HETATM   16  C6  UNL     1      25.119   0.430  53.028  1.00  0.00     0.088 A 
HETATM   17  C8  UNL     1      25.456   1.613  52.413  1.00  0.00     0.051 A 
BRANCH  16  18
HETATM   18  C7  UNL     1      26.120  -0.421  53.731  1.00  0.00     0.420 C 
HETATM   19  F2  UNL     1      27.345   0.221  53.784  1.00  0.00    -0.166 F 
HETATM   20  F3  UNL     1      25.722  -0.635  55.035  1.00  0.00    -0.166 F 
HETATM   21  F4  UNL     1      26.258  -1.635  53.110  1.00  0.00    -0.166 F 
ENDBRANCH  16  18
ENDBRANCH   3  11
BRANCH   1  22
HETATM   22  N1  UNL     1      23.688   7.126  51.178  1.00  0.00    -0.384 N 
HETATM   23  H1  UNL     1      23.913   7.952  50.550  1.00  0.00     0.157 HD
HETATM   24  H2  UNL     1      22.982   7.560  51.824  1.00  0.00     0.157 HD
ENDBRANCH   1  22
BRANCH   7  25
HETATM   25  C13 UNL     1      28.095   7.612  48.045  1.00  0.00     0.095 C 
BRANCH  25  26
HETATM   26  C14 UNL     1      27.499   8.033  46.768  1.00  0.00    -0.053 A 
HETATM   27  C15 UNL     1      26.139   8.224  46.613  1.00  0.00     0.007 A 
HETATM   28  C16 UNL     1      25.561   8.623  45.409  1.00  0.00     0.001 A 
HETATM   29  C17 UNL     1      26.360   8.844  44.310  1.00  0.00     0.000 A 
HETATM   30  C18 UNL     1      27.707   8.651  44.475  1.00  0.00     0.001 A 
HETATM   31  C19 UNL     1      28.304   8.258  45.652  1.00  0.00     0.007 A 
ENDBRANCH  25  26
ENDBRANCH   7  25
TORSDOF 5
ENDMDL
MODEL 5
REMARK VINA RESULT:      -8.5      4.915      8.587
REMARK  5 active torsions:
REMARK  status: ('A' for Active; 'I' for Inactive)
REMARK    1  A    between atoms: N1_1  and  C1_2 
REMARK    2  A    between atoms: N3_4  and  C2_5 
REMARK    3  A    between atoms: C6_10  and  C7_11 
REMARK    4  A    between atoms: C12_19  and  C13_20 
REMARK    5  A    between atoms: C13_20  and  C14_21 
ROOT
HETATM    1  C1  UNL     1      24.094   4.080  51.731  1.00  0.00     0.146 C 
HETATM    2  N2  UNL     1      24.389   4.955  50.830  1.00  0.00    -0.152 NA
HETATM    3  N3  UNL     1      25.513   4.821  50.020  1.00  0.00    -0.243 N 
HETATM    4  C9  UNL     1      26.395   3.718  50.135  1.00  0.00     0.128 C 
HETATM    5  C10 UNL     1      26.056   2.847  51.069  1.00  0.00    -0.009 C 
HETATM    6  C11 UNL     1      26.617   1.564  51.563  1.00  0.00     0.036 C 
HETATM    7  C12 UNL     1      25.586   0.847  52.090  1.00  0.00     0.010 C 
HETATM    8  N4  UNL     1      24.357   1.621  51.965  1.00  0.00    -0.377 N 
HETATM    9  C20 UNL     1      24.920   2.921  52.061  1.00  0.00     0.187 C 
HETATM   10  H15 UNL     1      23.460   1.064  51.849  1.00  0.00     0.160 HD
ENDROOT
BRANCH   3  11
HETATM   11  C2  UNL     1      25.772   5.814  49.066  1.00  0.00     0.059 A 
HETATM   12  C3  UNL     1      24.712   6.456  48.471  1.00  0.00     0.034 A 
HETATM   13  C4  UNL     1      24.911   7.448  47.518  1.00  0.00     0.045 A 
HETATM   14  C5  UNL     1      26.164   7.844  47.117  1.00  0.00     0.131 A 
HETATM   15  F1  UNL     1      26.283   8.809  46.190  1.00  0.00    -0.205 F 
HETATM   16  C6  UNL     1      27.238   7.205  47.709  1.00  0.00     0.088 A 
HETATM   17  C8  UNL     1      27.018   6.226  48.649  1.00  0.00     0.051 A 
BRANCH  16  18
HETATM   18  C7  UNL     1      28.607   7.618  47.289  1.00  0.00     0.420 C 
HETATM   19  F2  UNL     1      29.554   6.764  47.826  1.00  0.00    -0.166 F 
HETATM   20  F3  UNL     1      28.723   7.534  45.916  1.00  0.00    -0.166 F 
HETATM   21  F4  UNL     1      28.872   8.907  47.674  1.00  0.00    -0.166 F 
ENDBRANCH  16  18
ENDBRANCH   3  11
BRANCH   1  22
HETATM   22  N1  UNL     1      22.973   4.122  52.598  1.00  0.00    -0.384 N 
HETATM   23  H1  UNL     1      22.042   4.381  52.158  1.00  0.00     0.157 HD
HETATM   24  H2  UNL     1      22.683   3.985  53.599  1.00  0.00     0.157 HD
ENDBRANCH   1  22
BRANCH   7  25
HETATM   25  C13 UNL     1      25.800  -0.512  52.681  1.00  0.00     0.095 C 
BRANCH  25  26
HETATM   26  C14 UNL     1      27.192  -0.782  53.071  1.00  0.00    -0.053 A 
HETATM   27  C15 UNL     1      27.930   0.098  53.839  1.00  0.00     0.007 A 
HETATM   28  C16 UNL     1      29.249  -0.146  54.215  1.00  0.00     0.001 A 
HETATM   29  C17 UNL     1      29.868  -1.309  53.817  1.00  0.00     0.000 A 
HETATM   30  C18 UNL     1      29.127  -2.175  53.056  1.00  0.00     0.001 A 
HETATM   31  C19 UNL     1      27.823  -1.959  52.670  1.00  0.00     0.007 A 
ENDBRANCH  25  26
ENDBRANCH   7  25
TORSDOF 5
ENDMDL
MODEL 6
REMARK VINA RESULT:      -8.4      1.475      2.088
REMARK  5 active torsions:
REMARK  status: ('A' for Active; 'I' for Inactive)
REMARK    1  A    between atoms: N1_1  and  C1_2 
REMARK    2  A    between atoms: N3_4  and  C2_5 
REMARK    3  A    between atoms: C6_10  and  C7_11 
REMARK    4  A    between atoms: C12_19  and  C13_20 
REMARK    5  A    between atoms: C13_20  and  C14_21 
ROOT
HETATM    1  C1  UNL     1      24.048   4.493  50.088  1.00  0.00     0.146 C 
HETATM    2  N2  UNL     1      23.955   3.521  50.932  1.00  0.00    -0.152 NA
HETATM    3  N3  UNL     1      25.038   2.696  51.220  1.00  0.00    -0.243 N 
HETATM    4  C9  UNL     1      26.304   2.875  50.607  1.00  0.00     0.128 C 
HETATM    5  C10 UNL     1      26.354   3.880  49.751  1.00  0.00    -0.009 C 
HETATM    6  C11 UNL     1      27.407   4.471  48.887  1.00  0.00     0.036 C 
HETATM    7  C12 UNL     1      27.080   5.779  48.689  1.00  0.00     0.010 C 
HETATM    8  N4  UNL     1      25.837   6.069  49.392  1.00  0.00    -0.377 N 
HETATM    9  C20 UNL     1      25.237   4.787  49.292  1.00  0.00     0.187 C 
HETATM   10  H15 UNL     1      25.721   7.061  49.755  1.00  0.00     0.160 HD
ENDROOT
BRANCH   3  11
HETATM   11  C2  UNL     1      24.861   1.657  52.144  1.00  0.00     0.059 A 
HETATM   12  C3  UNL     1      25.967   1.126  52.766  1.00  0.00     0.034 A 
HETATM   13  C4  UNL     1      25.849   0.095  53.690  1.00  0.00     0.045 A 
HETATM   14  C5  UNL     1      24.637  -0.450  54.036  1.00  0.00     0.131 A 
HETATM   15  F1  UNL     1      24.598  -1.445  54.938  1.00  0.00    -0.205 F 
HETATM   16  C6  UNL     1      23.518   0.076  53.417  1.00  0.00     0.088 A 
HETATM   17  C8  UNL     1      23.657   1.096  52.505  1.00  0.00     0.051 A 
BRANCH  16  18
HETATM   18  C7  UNL     1      22.192  -0.500  53.777  1.00  0.00     0.420 C 
HETATM   19  F2  UNL     1      21.968  -0.382  55.137  1.00  0.00    -0.166 F 
HETATM   20  F3  UNL     1      21.187   0.200  53.141  1.00  0.00    -0.166 F 
HETATM   21  F4  UNL     1      22.111  -1.818  53.406  1.00  0.00    -0.166 F 
ENDBRANCH  16  18
ENDBRANCH   3  11
BRANCH   1  22
HETATM   22  N1  UNL     1      23.010   5.390  49.733  1.00  0.00    -0.384 N 
HETATM   23  H1  UNL     1      22.186   5.450  50.401  1.00  0.00     0.157 HD
HETATM   24  H2  UNL     1      22.714   6.079  48.997  1.00  0.00     0.157 HD
ENDBRANCH   1  22
BRANCH   7  25
HETATM   25  C13 UNL     1      27.938   6.683  47.858  1.00  0.00     0.095 C 
BRANCH  25  26
HETATM   26  C14 UNL     1      27.651   8.113  48.039  1.00  0.00    -0.053 A 
HETATM   27  C15 UNL     1      26.815   8.814  47.191  1.00  0.00     0.007 A 
HETATM   28  C16 UNL     1      26.534  10.169  47.351  1.00  0.00     0.001 A 
HETATM   29  C17 UNL     1      27.102  10.864  48.395  1.00  0.00     0.000 A 
HETATM   30  C18 UNL     1      27.929  10.159  49.230  1.00  0.00     0.001 A 
HETATM   31  C19 UNL     1      28.224   8.821  49.094  1.00  0.00     0.007 A 
ENDBRANCH  25  26
ENDBRANCH   7  25
TORSDOF 5
ENDMDL
MODEL 7
REMARK VINA RESULT:      -8.3      6.117      7.590
REMARK  5 active torsions:
REMARK  status: ('A' for Active; 'I' for Inactive)
REMARK    1  A    between atoms: N1_1  and  C1_2 
REMARK    2  A    between atoms: N3_4  and  C2_5 
REMARK    3  A    between atoms: C6_10  and  C7_11 
REMARK    4  A    between atoms: C12_19  and  C13_20 
REMARK    5  A    between atoms: C13_20  and  C14_21 
ROOT
HETATM    1  C1  UNL     1      22.762   1.455  51.136  1.00  0.00     0.146 C 
HETATM    2  N2  UNL     1      21.530   1.078  51.217  1.00  0.00    -0.152 NA
HETATM    3  N3  UNL     1      21.090   0.227  52.227  1.00  0.00    -0.243 N 
HETATM    4  C9  UNL     1      21.965  -0.271  53.225  1.00  0.00     0.128 C 
HETATM    5  C10 UNL     1      23.215   0.140  53.104  1.00  0.00    -0.009 C 
HETATM    6  C11 UNL     1      24.470  -0.077  53.868  1.00  0.00     0.036 C 
HETATM    7  C12 UNL     1      25.267   1.007  53.653  1.00  0.00     0.010 C 
HETATM    8  N4  UNL     1      24.577   1.934  52.762  1.00  0.00    -0.377 N 
HETATM    9  C20 UNL     1      23.830   0.986  52.015  1.00  0.00     0.187 C 
HETATM   10  H15 UNL     1      24.796   2.965  52.895  1.00  0.00     0.160 HD
ENDROOT
BRANCH   3  11
HETATM   11  C2  UNL     1      19.739  -0.143  52.248  1.00  0.00     0.059 A 
HETATM   12  C3  UNL     1      19.270  -0.882  53.309  1.00  0.00     0.034 A 
HETATM   13  C4  UNL     1      17.939  -1.277  53.380  1.00  0.00     0.045 A 
HETATM   14  C5  UNL     1      17.022  -0.958  52.409  1.00  0.00     0.131 A 
HETATM   15  F1  UNL     1      15.751  -1.373  52.543  1.00  0.00    -0.205 F 
HETATM   16  C6  UNL     1      17.483  -0.215  51.337  1.00  0.00     0.088 A 
HETATM   17  C8  UNL     1      18.804   0.164  51.286  1.00  0.00     0.051 A 
BRANCH  16  18
HETATM   18  C7  UNL     1      16.505   0.142  50.270  1.00  0.00     0.420 C 
HETATM   19  F2  UNL     1      15.471   0.894  50.797  1.00  0.00    -0.166 F 
HETATM   20  F3  UNL     1      17.120   0.921  49.311  1.00  0.00    -0.166 F 
HETATM   21  F4  UNL     1      16.003  -0.981  49.667  1.00  0.00    -0.166 F 
ENDBRANCH  16  18
ENDBRANCH   3  11
BRANCH   1  22
HETATM   22  N1  UNL     1      23.305   2.321  50.155  1.00  0.00    -0.384 N 
HETATM   23  H1  UNL     1      22.939   2.204  49.164  1.00  0.00     0.157 HD
HETATM   24  H2  UNL     1      23.994   3.103  50.016  1.00  0.00     0.157 HD
ENDBRANCH   1  22
BRANCH   7  25
HETATM   25  C13 UNL     1      26.620   1.121  54.283  1.00  0.00     0.095 C 
BRANCH  25  26
HETATM   26  C14 UNL     1      27.551   0.051  53.895  1.00  0.00    -0.053 A 
HETATM   27  C15 UNL     1      28.882   0.056  54.266  1.00  0.00     0.007 A 
HETATM   28  C16 UNL     1      29.775  -0.951  53.906  1.00  0.00     0.001 A 
HETATM   29  C17 UNL     1      29.336  -2.011  53.147  1.00  0.00     0.000 A 
HETATM   30  C18 UNL     1      28.014  -2.007  52.784  1.00  0.00     0.001 A 
HETATM   31  C19 UNL     1      27.111  -1.025  53.125  1.00  0.00     0.007 A 
ENDBRANCH  25  26
ENDBRANCH   7  25
TORSDOF 5
ENDMDL
MODEL 8
REMARK VINA RESULT:      -8.3      5.444      7.261
REMARK  5 active torsions:
REMARK  status: ('A' for Active; 'I' for Inactive)
REMARK    1  A    between atoms: N1_1  and  C1_2 
REMARK    2  A    between atoms: N3_4  and  C2_5 
REMARK    3  A    between atoms: C6_10  and  C7_11 
REMARK    4  A    between atoms: C12_19  and  C13_20 
REMARK    5  A    between atoms: C13_20  and  C14_21 
ROOT
HETATM    1  C1  UNL     1      23.222   2.127  50.580  1.00  0.00     0.146 C 
HETATM    2  N2  UNL     1      21.973   1.822  50.462  1.00  0.00    -0.152 NA
HETATM    3  N3  UNL     1      21.349   0.941  51.340  1.00  0.00    -0.243 N 
HETATM    4  C9  UNL     1      22.044   0.333  52.415  1.00  0.00     0.128 C 
HETATM    5  C10 UNL     1      23.317   0.673  52.500  1.00  0.00    -0.009 C 
HETATM    6  C11 UNL     1      24.436   0.336  53.416  1.00  0.00     0.036 C 
HETATM    7  C12 UNL     1      25.311   1.380  53.388  1.00  0.00     0.010 C 
HETATM    8  N4  UNL     1      24.806   2.398  52.474  1.00  0.00    -0.377 N 
HETATM    9  C20 UNL     1      24.126   1.543  51.568  1.00  0.00     0.187 C 
HETATM   10  H15 UNL     1      25.056   3.404  52.705  1.00  0.00     0.160 HD
ENDROOT
BRANCH   3  11
HETATM   11  C2  UNL     1      19.991   0.652  51.146  1.00  0.00     0.059 A 
HETATM   12  C3  UNL     1      19.365   1.133  50.020  1.00  0.00     0.034 A 
HETATM   13  C4  UNL     1      18.020   0.877  49.778  1.00  0.00     0.045 A 
HETATM   14  C5  UNL     1      17.244   0.139  50.637  1.00  0.00     0.131 A 
HETATM   15  F1  UNL     1      15.950  -0.069  50.340  1.00  0.00    -0.205 F 
HETATM   16  C6  UNL     1      17.864  -0.350  51.773  1.00  0.00     0.088 A 
HETATM   17  C8  UNL     1      19.195  -0.084  51.993  1.00  0.00     0.051 A 
BRANCH  16  18
HETATM   18  C7  UNL     1      17.040  -1.153  52.720  1.00  0.00     0.420 C 
HETATM   19  F2  UNL     1      16.498  -2.251  52.076  1.00  0.00    -0.166 F 
HETATM   20  F3  UNL     1      17.835  -1.638  53.739  1.00  0.00    -0.166 F 
HETATM   21  F4  UNL     1      16.038  -0.394  53.267  1.00  0.00    -0.166 F 
ENDBRANCH  16  18
ENDBRANCH   3  11
BRANCH   1  22
HETATM   22  N1  UNL     1      23.945   3.014  49.745  1.00  0.00    -0.384 N 
HETATM   23  H1  UNL     1      24.915   2.700  49.446  1.00  0.00     0.157 HD
HETATM   24  H2  UNL     1      23.887   3.948  49.265  1.00  0.00     0.157 HD
ENDBRANCH   1  22
BRANCH   7  25
HETATM   25  C13 UNL     1      26.563   1.374  54.209  1.00  0.00     0.095 C 
BRANCH  25  26
HETATM   26  C14 UNL     1      27.503   0.299  53.857  1.00  0.00    -0.053 A 
HETATM   27  C15 UNL     1      28.857   0.384  54.118  1.00  0.00     0.007 A 
HETATM   28  C16 UNL     1      29.759  -0.626  53.789  1.00  0.00     0.001 A 
HETATM   29  C17 UNL     1      29.304  -1.772  53.177  1.00  0.00     0.000 A 
HETATM   30  C18 UNL     1      27.959  -1.846  52.923  1.00  0.00     0.001 A 
HETATM   31  C19 UNL     1      27.048  -0.863  53.236  1.00  0.00     0.007 A 
ENDBRANCH  25  26
ENDBRANCH   7  25
TORSDOF 5
ENDMDL
MODEL 9
REMARK VINA RESULT:      -8.2      3.416      4.273
REMARK  5 active torsions:
REMARK  status: ('A' for Active; 'I' for Inactive)
REMARK    1  A    between atoms: N1_1  and  C1_2 
REMARK    2  A    between atoms: N3_4  and  C2_5 
REMARK    3  A    between atoms: C6_10  and  C7_11 
REMARK    4  A    between atoms: C12_19  and  C13_20 
REMARK    5  A    between atoms: C13_20  and  C14_21 
ROOT
HETATM    1  C1  UNL     1      23.683   4.523  52.037  1.00  0.00     0.146 C 
HETATM    2  N2  UNL     1      24.409   3.524  52.412  1.00  0.00    -0.152 NA
HETATM    3  N3  UNL     1      25.452   3.042  51.626  1.00  0.00    -0.243 N 
HETATM    4  C9  UNL     1      25.780   3.620  50.374  1.00  0.00     0.128 C 
HETATM    5  C10 UNL     1      25.013   4.639  50.030  1.00  0.00    -0.009 C 
HETATM    6  C11 UNL     1      24.950   5.561  48.867  1.00  0.00     0.036 C 
HETATM    7  C12 UNL     1      24.385   6.722  49.302  1.00  0.00     0.010 C 
HETATM    8  N4  UNL     1      24.065   6.593  50.719  1.00  0.00    -0.377 N 
HETATM    9  C20 UNL     1      23.807   5.198  50.747  1.00  0.00     0.187 C 
HETATM   10  H15 UNL     1      24.105   7.486  51.293  1.00  0.00     0.160 HD
ENDROOT
BRANCH   3  11
HETATM   11  C2  UNL     1      26.194   1.950  52.096  1.00  0.00     0.059 A 
HETATM   12  C3  UNL     1      25.823   0.682  51.716  1.00  0.00     0.034 A 
HETATM   13  C4  UNL     1      26.523  -0.437  52.153  1.00  0.00     0.045 A 
HETATM   14  C5  UNL     1      27.615  -0.346  52.981  1.00  0.00     0.131 A 
HETATM   15  F1  UNL     1      28.244  -1.469  53.364  1.00  0.00    -0.205 F 
HETATM   16  C6  UNL     1      27.998   0.926  53.370  1.00  0.00     0.088 A 
HETATM   17  C8  UNL     1      27.290   2.018  52.927  1.00  0.00     0.051 A 
BRANCH  16  18
HETATM   18  C7  UNL     1      29.179   1.048  54.270  1.00  0.00     0.420 C 
HETATM   19  F2  UNL     1      28.925   0.439  55.485  1.00  0.00    -0.166 F 
HETATM   20  F3  UNL     1      30.263   0.399  53.713  1.00  0.00    -0.166 F 
HETATM   21  F4  UNL     1      29.511   2.363  54.469  1.00  0.00    -0.166 F 
ENDBRANCH  16  18
ENDBRANCH   3  11
BRANCH   1  22
HETATM   22  N1  UNL     1      22.607   5.090  52.764  1.00  0.00    -0.384 N 
HETATM   23  H1  UNL     1      22.554   6.151  52.783  1.00  0.00     0.157 HD
HETATM   24  H2  UNL     1      21.766   4.843  53.345  1.00  0.00     0.157 HD
ENDBRANCH   1  22
BRANCH   7  25
HETATM   25  C13 UNL     1      24.172   7.882  48.379  1.00  0.00     0.095 C 
BRANCH  25  26
HETATM   26  C14 UNL     1      25.405   8.606  48.035  1.00  0.00    -0.053 A 
HETATM   27  C15 UNL     1      26.038   8.454  46.817  1.00  0.00     0.007 A 
HETATM   28  C16 UNL     1      27.207   9.134  46.478  1.00  0.00     0.001 A 
HETATM   29  C17 UNL     1      27.775  10.003  47.382  1.00  0.00     0.000 A 
HETATM   30  C18 UNL     1      27.139  10.146  48.587  1.00  0.00     0.001 A 
HETATM   31  C19 UNL     1      25.985   9.487  48.947  1.00  0.00     0.007 A 
ENDBRANCH  25  26
ENDBRANCH   7  25
TORSDOF 5
ENDMDL
