MODEL 1
REMARK VINA RESULT:      -8.5      0.000      0.000
REMARK  2 active torsions:
REMARK  status: ('A' for Active; 'I' for Inactive)
REMARK    1  A    between atoms: C8_11  and  C9_12 
REMARK    2  A    between atoms: C11_14  and  C12_15 
ROOT
HETATM    1  C1  UNL     1      22.372   5.264  47.527  1.00  0.00     0.048 C 
HETATM    2  C2  UNL     1      22.707   4.145  48.487  1.00  0.00    -0.064 C 
HETATM    3  C3  UNL     1      22.224   3.096  47.861  1.00  0.00     0.006 C 
HETATM    4  C4  UNL     1      22.333   1.729  48.384  1.00  0.00     0.205 C 
HETATM    5  O1  UNL     1      21.148   1.062  48.684  1.00  0.00    -0.330 OA
HETATM    6  C5  UNL     1      20.426   1.625  49.794  1.00  0.00     0.172 A 
HETATM    7  C6  UNL     1      19.135   1.848  50.385  1.00  0.00     0.109 A 
HETATM    8  S1  UNL     1      19.699   2.768  51.956  1.00  0.00    -0.081 SA
HETATM    9  C7  UNL     1      21.427   2.684  51.550  1.00  0.00     0.087 A 
HETATM   10  N1  UNL     1      21.436   2.096  50.494  1.00  0.00    -0.221 NA
HETATM   11  C8  UNL     1      22.856   3.096  51.991  1.00  0.00     0.092 C 
HETATM   12  C18 UNL     1      23.172   4.202  51.103  1.00  0.00    -0.013 C 
HETATM   13  C19 UNL     1      23.130   4.627  49.814  1.00  0.00     0.003 C 
ENDROOT
BRANCH  11  14
HETATM   14  C9  UNL     1      23.715   1.966  52.172  1.00  0.00     0.121 C 
HETATM   15  C10 UNL     1      24.905   2.169  53.105  1.00  0.00     0.089 C 
HETATM   16  C11 UNL     1      25.316   0.739  53.182  1.00  0.00     0.066 C 
HETATM   17  N2  UNL     1      24.239   0.032  53.081  1.00  0.00    -0.183 NA
HETATM   18  N3  UNL     1      23.096   0.858  52.939  1.00  0.00    -0.307 N 
HETATM   19  H16 UNL     1      22.135   0.641  53.315  1.00  0.00     0.182 HD
BRANCH  16  20
HETATM   20  C12 UNL     1      26.675   0.234  53.338  1.00  0.00    -0.010 A 
HETATM   21  C13 UNL     1      26.990  -1.046  52.936  1.00  0.00     0.016 A 
HETATM   22  C14 UNL     1      28.274  -1.530  53.082  1.00  0.00     0.043 A 
HETATM   23  C15 UNL     1      29.260  -0.717  53.641  1.00  0.00     0.116 A 
HETATM   24  F1  UNL     1      30.543  -1.082  53.832  1.00  0.00    -0.206 F 
HETATM   25  C16 UNL     1      28.921   0.560  54.035  1.00  0.00     0.043 A 
HETATM   26  C17 UNL     1      27.642   1.060  53.897  1.00  0.00     0.016 A 
ENDBRANCH  16  20
ENDBRANCH  11  14
TORSDOF 2
ENDMDL
MODEL 2
REMARK VINA RESULT:      -8.3      1.964      2.745
REMARK  2 active torsions:
REMARK  status: ('A' for Active; 'I' for Inactive)
REMARK    1  A    between atoms: C8_11  and  C9_12 
REMARK    2  A    between atoms: C11_14  and  C12_15 
ROOT
HETATM    1  C1  UNL     1      21.724   7.226  50.601  1.00  0.00     0.048 C 
HETATM    2  C2  UNL     1      22.512   6.003  51.014  1.00  0.00    -0.064 C 
HETATM    3  C3  UNL     1      23.472   5.985  50.118  1.00  0.00     0.006 C 
HETATM    4  C4  UNL     1      24.543   4.980  50.111  1.00  0.00     0.205 C 
HETATM    5  O1  UNL     1      24.623   4.137  49.006  1.00  0.00    -0.330 OA
HETATM    6  C5  UNL     1      23.517   3.225  48.886  1.00  0.00     0.172 A 
HETATM    7  C6  UNL     1      22.682   2.478  47.986  1.00  0.00     0.109 A 
HETATM    8  S1  UNL     1      21.556   1.641  49.275  1.00  0.00    -0.081 SA
HETATM    9  C7  UNL     1      22.358   2.397  50.669  1.00  0.00     0.087 A 
HETATM   10  N1  UNL     1      23.223   3.070  50.159  1.00  0.00    -0.221 NA
HETATM   11  C8  UNL     1      22.346   2.549  52.212  1.00  0.00     0.092 C 
HETATM   12  C18 UNL     1      21.771   3.869  52.412  1.00  0.00    -0.013 C 
HETATM   13  C19 UNL     1      21.802   5.158  51.991  1.00  0.00     0.003 C 
ENDROOT
BRANCH  11  14
HETATM   14  C9  UNL     1      23.578   2.132  52.808  1.00  0.00     0.121 C 
HETATM   15  C10 UNL     1      24.507   1.305  51.924  1.00  0.00     0.089 C 
HETATM   16  C11 UNL     1      25.691   1.341  52.828  1.00  0.00     0.066 C 
HETATM   17  N2  UNL     1      25.655   2.472  53.451  1.00  0.00    -0.183 NA
HETATM   18  N3  UNL     1      24.533   3.241  53.051  1.00  0.00    -0.307 N 
HETATM   19  H16 UNL     1      24.505   4.293  52.984  1.00  0.00     0.182 HD
BRANCH  16  20
HETATM   20  C12 UNL     1      26.696   0.295  52.983  1.00  0.00    -0.010 A 
HETATM   21  C13 UNL     1      27.938   0.599  53.498  1.00  0.00     0.016 A 
HETATM   22  C14 UNL     1      28.894  -0.385  53.646  1.00  0.00     0.043 A 
HETATM   23  C15 UNL     1      28.600  -1.697  53.272  1.00  0.00     0.116 A 
HETATM   24  F1  UNL     1      29.452  -2.735  53.371  1.00  0.00    -0.206 F 
HETATM   25  C16 UNL     1      27.350  -1.975  52.761  1.00  0.00     0.043 A 
HETATM   26  C17 UNL     1      26.383  -1.004  52.605  1.00  0.00     0.016 A 
ENDBRANCH  16  20
ENDBRANCH  11  14
TORSDOF 2
ENDMDL
MODEL 3
REMARK VINA RESULT:      -8.2      1.651      1.980
REMARK  2 active torsions:
REMARK  status: ('A' for Active; 'I' for Inactive)
REMARK    1  A    between atoms: C8_11  and  C9_12 
REMARK    2  A    between atoms: C11_14  and  C12_15 
ROOT
HETATM    1  C1  UNL     1      23.515   8.233  49.500  1.00  0.00     0.048 C 
HETATM    2  C2  UNL     1      23.745   6.778  49.838  1.00  0.00    -0.064 C 
HETATM    3  C3  UNL     1      23.478   6.188  48.696  1.00  0.00     0.006 C 
HETATM    4  C4  UNL     1      23.591   4.738  48.495  1.00  0.00     0.205 C 
HETATM    5  O1  UNL     1      22.427   4.043  48.179  1.00  0.00    -0.330 OA
HETATM    6  C5  UNL     1      21.462   4.004  49.245  1.00  0.00     0.172 A 
HETATM    7  C6  UNL     1      20.068   3.942  49.587  1.00  0.00     0.109 A 
HETATM    8  S1  UNL     1      20.242   3.951  51.485  1.00  0.00    -0.081 SA
HETATM    9  C7  UNL     1      22.017   4.032  51.458  1.00  0.00     0.087 A 
HETATM   10  N1  UNL     1      22.277   4.041  50.278  1.00  0.00    -0.221 NA
HETATM   11  C8  UNL     1      23.297   4.134  52.329  1.00  0.00     0.092 C 
HETATM   12  C18 UNL     1      23.690   5.525  52.181  1.00  0.00    -0.013 C 
HETATM   13  C19 UNL     1      23.864   6.531  51.287  1.00  0.00     0.003 C 
ENDROOT
BRANCH  11  14
HETATM   14  C9  UNL     1      24.191   3.039  52.110  1.00  0.00     0.121 C 
HETATM   15  C10 UNL     1      24.990   2.570  53.323  1.00  0.00     0.089 C 
HETATM   16  C11 UNL     1      25.535   1.327  52.707  1.00  0.00     0.066 C 
HETATM   17  N2  UNL     1      24.644   0.898  51.874  1.00  0.00    -0.183 NA
HETATM   18  N3  UNL     1      23.509   1.747  51.858  1.00  0.00    -0.307 N 
HETATM   19  H16 UNL     1      22.513   1.432  51.702  1.00  0.00     0.182 HD
BRANCH  16  20
HETATM   20  C12 UNL     1      26.827   0.714  52.988  1.00  0.00    -0.010 A 
HETATM   21  C13 UNL     1      26.976  -0.654  52.914  1.00  0.00     0.016 A 
HETATM   22  C14 UNL     1      28.198  -1.241  53.180  1.00  0.00     0.043 A 
HETATM   23  C15 UNL     1      29.287  -0.442  53.525  1.00  0.00     0.116 A 
HETATM   24  F1  UNL     1      30.522  -0.903  53.805  1.00  0.00    -0.206 F 
HETATM   25  C16 UNL     1      29.113   0.924  53.592  1.00  0.00     0.043 A 
HETATM   26  C17 UNL     1      27.900   1.527  53.330  1.00  0.00     0.016 A 
ENDBRANCH  16  20
ENDBRANCH  11  14
TORSDOF 2
ENDMDL
MODEL 4
REMARK VINA RESULT:      -8.0      4.161      5.673
REMARK  2 active torsions:
REMARK  status: ('A' for Active; 'I' for Inactive)
REMARK    1  A    between atoms: C8_11  and  C9_12 
REMARK    2  A    between atoms: C11_14  and  C12_15 
ROOT
HETATM    1  C1  UNL     1      21.542   7.993  47.157  1.00  0.00     0.048 C 
HETATM    2  C2  UNL     1      22.035   7.111  48.282  1.00  0.00    -0.064 C 
HETATM    3  C3  UNL     1      22.270   7.988  49.231  1.00  0.00     0.006 C 
HETATM    4  C4  UNL     1      22.746   7.614  50.569  1.00  0.00     0.205 C 
HETATM    5  O1  UNL     1      23.994   8.091  50.960  1.00  0.00    -0.330 OA
HETATM    6  C5  UNL     1      25.091   7.534  50.215  1.00  0.00     0.172 A 
HETATM    7  C6  UNL     1      26.416   7.754  49.704  1.00  0.00     0.109 A 
HETATM    8  S1  UNL     1      26.677   6.065  48.860  1.00  0.00    -0.081 SA
HETATM    9  C7  UNL     1      25.080   5.436  49.319  1.00  0.00     0.087 A 
HETATM   10  N1  UNL     1      24.589   6.350  49.938  1.00  0.00    -0.221 NA
HETATM   11  C8  UNL     1      24.106   4.235  49.198  1.00  0.00     0.092 C 
HETATM   12  C18 UNL     1      23.134   4.692  48.218  1.00  0.00    -0.013 C 
HETATM   13  C19 UNL     1      22.355   5.740  47.846  1.00  0.00     0.003 C 
ENDROOT
BRANCH  11  14
HETATM   14  C9  UNL     1      23.740   3.701  50.474  1.00  0.00     0.121 C 
HETATM   15  C10 UNL     1      23.718   2.179  50.584  1.00  0.00     0.089 C 
HETATM   16  C11 UNL     1      23.559   2.111  52.064  1.00  0.00     0.066 C 
HETATM   17  N2  UNL     1      24.174   3.136  52.556  1.00  0.00    -0.183 NA
HETATM   18  N3  UNL     1      24.756   3.924  51.531  1.00  0.00    -0.307 N 
HETATM   19  H16 UNL     1      25.657   4.467  51.615  1.00  0.00     0.182 HD
BRANCH  16  20
HETATM   20  C12 UNL     1      22.845   1.085  52.814  1.00  0.00    -0.010 A 
HETATM   21  C13 UNL     1      21.473   1.142  52.934  1.00  0.00     0.016 A 
HETATM   22  C14 UNL     1      20.791   0.173  53.643  1.00  0.00     0.043 A 
HETATM   23  C15 UNL     1      21.497  -0.870  54.242  1.00  0.00     0.116 A 
HETATM   24  F1  UNL     1      20.938  -1.867  54.956  1.00  0.00    -0.206 F 
HETATM   25  C16 UNL     1      22.868  -0.906  54.107  1.00  0.00     0.043 A 
HETATM   26  C17 UNL     1      23.566   0.053  53.402  1.00  0.00     0.016 A 
ENDBRANCH  16  20
ENDBRANCH  11  14
TORSDOF 2
ENDMDL
MODEL 5
REMARK VINA RESULT:      -7.7      4.016      5.064
REMARK  2 active torsions:
REMARK  status: ('A' for Active; 'I' for Inactive)
REMARK    1  A    between atoms: C8_11  and  C9_12 
REMARK    2  A    between atoms: C11_14  and  C12_15 
ROOT
HETATM    1  C1  UNL     1      20.968   5.492  46.884  1.00  0.00     0.048 C 
HETATM    2  C2  UNL     1      21.572   5.039  48.194  1.00  0.00    -0.064 C 
HETATM    3  C3  UNL     1      20.950   5.807  49.059  1.00  0.00     0.006 C 
HETATM    4  C4  UNL     1      21.171   5.725  50.509  1.00  0.00     0.205 C 
HETATM    5  O1  UNL     1      21.697   6.849  51.140  1.00  0.00    -0.330 OA
HETATM    6  C5  UNL     1      23.053   7.148  50.767  1.00  0.00     0.172 A 
HETATM    7  C6  UNL     1      24.038   8.178  50.581  1.00  0.00     0.109 A 
HETATM    8  S1  UNL     1      25.497   7.080  50.039  1.00  0.00    -0.081 SA
HETATM    9  C7  UNL     1      24.578   5.564  50.155  1.00  0.00     0.087 A 
HETATM   10  N1  UNL     1      23.484   5.930  50.516  1.00  0.00    -0.221 NA
HETATM   11  C8  UNL     1      24.628   4.029  49.938  1.00  0.00     0.092 C 
HETATM   12  C18 UNL     1      23.891   3.843  48.699  1.00  0.00    -0.013 C 
HETATM   13  C19 UNL     1      22.771   4.199  48.020  1.00  0.00     0.003 C 
ENDROOT
BRANCH  11  14
HETATM   14  C9  UNL     1      24.341   3.302  51.137  1.00  0.00     0.121 C 
HETATM   15  C10 UNL     1      23.896   1.853  50.954  1.00  0.00     0.089 C 
HETATM   16  C11 UNL     1      23.973   1.462  52.390  1.00  0.00     0.066 C 
HETATM   17  N2  UNL     1      24.931   2.151  52.917  1.00  0.00    -0.183 NA
HETATM   18  N3  UNL     1      25.538   3.000  51.957  1.00  0.00    -0.307 N 
HETATM   19  H16 UNL     1      26.559   3.268  51.937  1.00  0.00     0.182 HD
BRANCH  16  20
HETATM   20  C12 UNL     1      23.127   0.489  53.070  1.00  0.00    -0.010 A 
HETATM   21  C13 UNL     1      23.626  -0.248  54.123  1.00  0.00     0.016 A 
HETATM   22  C14 UNL     1      22.830  -1.171  54.771  1.00  0.00     0.043 A 
HETATM   23  C15 UNL     1      21.511  -1.358  54.357  1.00  0.00     0.116 A 
HETATM   24  F1  UNL     1      20.646  -2.228  54.913  1.00  0.00    -0.206 F 
HETATM   25  C16 UNL     1      21.035  -0.608  53.303  1.00  0.00     0.043 A 
HETATM   26  C17 UNL     1      21.816   0.318  52.643  1.00  0.00     0.016 A 
ENDBRANCH  16  20
ENDBRANCH  11  14
TORSDOF 2
ENDMDL
MODEL 6
REMARK VINA RESULT:      -7.5      8.849      9.768
REMARK  2 active torsions:
REMARK  status: ('A' for Active; 'I' for Inactive)
REMARK    1  A    between atoms: C8_11  and  C9_12 
REMARK    2  A    between atoms: C11_14  and  C12_15 
ROOT
HETATM    1  C1  UNL     1      29.458  13.176  46.848  1.00  0.00     0.048 C 
HETATM    2  C2  UNL     1      29.513  11.672  46.994  1.00  0.00    -0.064 C 
HETATM    3  C3  UNL     1      28.616  11.282  46.118  1.00  0.00     0.006 C 
HETATM    4  C4  UNL     1      28.316   9.869  45.853  1.00  0.00     0.205 C 
HETATM    5  O1  UNL     1      27.026   9.426  46.135  1.00  0.00    -0.330 OA
HETATM    6  C5  UNL     1      26.704   9.421  47.537  1.00  0.00     0.172 A 
HETATM    7  C6  UNL     1      25.664   9.555  48.520  1.00  0.00     0.109 A 
HETATM    8  S1  UNL     1      26.720   9.301  50.085  1.00  0.00    -0.081 SA
HETATM    9  C7  UNL     1      28.240   9.082  49.190  1.00  0.00     0.087 A 
HETATM   10  N1  UNL     1      27.900   9.192  48.036  1.00  0.00    -0.221 NA
HETATM   11  C8  UNL     1      29.769   8.858  49.320  1.00  0.00     0.092 C 
HETATM   12  C18 UNL     1      30.324  10.169  49.030  1.00  0.00    -0.013 C 
HETATM   13  C19 UNL     1      30.254  11.233  48.190  1.00  0.00     0.003 C 
ENDROOT
BRANCH  11  14
HETATM   14  C9  UNL     1      30.200   7.662  48.663  1.00  0.00     0.121 C 
HETATM   15  C10 UNL     1      31.512   7.058  49.158  1.00  0.00     0.089 C 
HETATM   16  C11 UNL     1      31.408   5.774  48.410  1.00  0.00     0.066 C 
HETATM   17  N2  UNL     1      30.151   5.488  48.324  1.00  0.00    -0.183 NA
HETATM   18  N3  UNL     1      29.357   6.478  48.957  1.00  0.00    -0.307 N 
HETATM   19  H16 UNL     1      28.447   6.301  49.461  1.00  0.00     0.182 HD
BRANCH  16  20
HETATM   20  C12 UNL     1      32.515   4.989  47.876  1.00  0.00    -0.010 A 
HETATM   21  C13 UNL     1      32.270   3.804  47.217  1.00  0.00     0.016 A 
HETATM   22  C14 UNL     1      33.314   3.056  46.709  1.00  0.00     0.043 A 
HETATM   23  C15 UNL     1      34.625   3.505  46.866  1.00  0.00     0.116 A 
HETATM   24  F1  UNL     1      35.719   2.860  46.413  1.00  0.00    -0.206 F 
HETATM   25  C16 UNL     1      34.844   4.694  47.528  1.00  0.00     0.043 A 
HETATM   26  C17 UNL     1      33.814   5.454  48.042  1.00  0.00     0.016 A 
ENDBRANCH  16  20
ENDBRANCH  11  14
TORSDOF 2
ENDMDL
MODEL 7
REMARK VINA RESULT:      -7.4      4.557      5.803
REMARK  2 active torsions:
REMARK  status: ('A' for Active; 'I' for Inactive)
REMARK    1  A    between atoms: C8_11  and  C9_12 
REMARK    2  A    between atoms: C11_14  and  C12_15 
ROOT
HETATM    1  C1  UNL     1      19.202   0.046  52.209  1.00  0.00     0.048 C 
HETATM    2  C2  UNL     1      20.317   0.908  51.662  1.00  0.00    -0.064 C 
HETATM    3  C3  UNL     1      20.283   1.942  52.470  1.00  0.00     0.006 C 
HETATM    4  C4  UNL     1      21.218   3.069  52.370  1.00  0.00     0.205 C 
HETATM    5  O1  UNL     1      20.681   4.322  52.085  1.00  0.00    -0.330 OA
HETATM    6  C5  UNL     1      20.122   4.431  50.764  1.00  0.00     0.172 A 
HETATM    7  C6  UNL     1      19.127   5.061  49.940  1.00  0.00     0.109 A 
HETATM    8  S1  UNL     1      19.560   4.224  48.285  1.00  0.00    -0.081 SA
HETATM    9  C7  UNL     1      20.891   3.261  48.962  1.00  0.00     0.087 A 
HETATM   10  N1  UNL     1      20.899   3.581  50.128  1.00  0.00    -0.221 NA
HETATM   11  C8  UNL     1      21.966   2.186  48.654  1.00  0.00     0.092 C 
HETATM   12  C18 UNL     1      21.406   0.979  49.238  1.00  0.00    -0.013 C 
HETATM   13  C19 UNL     1      20.790   0.470  50.336  1.00  0.00     0.003 C 
ENDROOT
BRANCH  11  14
HETATM   14  C9  UNL     1      23.291   2.649  48.929  1.00  0.00     0.121 C 
HETATM   15  C10 UNL     1      23.546   4.135  48.693  1.00  0.00     0.089 C 
HETATM   16  C11 UNL     1      24.891   4.187  49.332  1.00  0.00     0.066 C 
HETATM   17  N2  UNL     1      24.889   3.317  50.287  1.00  0.00    -0.183 NA
HETATM   18  N3  UNL     1      23.638   2.653  50.370  1.00  0.00    -0.307 N 
HETATM   19  H16 UNL     1      23.188   2.309  51.260  1.00  0.00     0.182 HD
BRANCH  16  20
HETATM   20  C12 UNL     1      26.000   5.054  48.950  1.00  0.00    -0.010 A 
HETATM   21  C13 UNL     1      27.277   4.543  48.851  1.00  0.00     0.016 A 
HETATM   22  C14 UNL     1      28.331   5.359  48.491  1.00  0.00     0.043 A 
HETATM   23  C15 UNL     1      28.101   6.709  48.226  1.00  0.00     0.116 A 
HETATM   24  F1  UNL     1      29.050   7.595  47.867  1.00  0.00    -0.206 F 
HETATM   25  C16 UNL     1      26.815   7.195  48.331  1.00  0.00     0.043 A 
HETATM   26  C17 UNL     1      25.750   6.395  48.690  1.00  0.00     0.016 A 
ENDBRANCH  16  20
ENDBRANCH  11  14
TORSDOF 2
ENDMDL
MODEL 8
REMARK VINA RESULT:      -7.4      2.861      3.813
REMARK  2 active torsions:
REMARK  status: ('A' for Active; 'I' for Inactive)
REMARK    1  A    between atoms: C8_11  and  C9_12 
REMARK    2  A    between atoms: C11_14  and  C12_15 
ROOT
HETATM    1  C1  UNL     1      20.058   2.916  47.875  1.00  0.00     0.048 C 
HETATM    2  C2  UNL     1      21.196   3.075  48.858  1.00  0.00    -0.064 C 
HETATM    3  C3  UNL     1      20.557   3.340  49.973  1.00  0.00     0.006 C 
HETATM    4  C4  UNL     1      21.237   3.548  51.258  1.00  0.00     0.205 C 
HETATM    5  O1  UNL     1      21.105   4.799  51.856  1.00  0.00    -0.330 OA
HETATM    6  C5  UNL     1      21.750   5.862  51.134  1.00  0.00     0.172 A 
HETATM    7  C6  UNL     1      21.733   7.262  50.809  1.00  0.00     0.109 A 
HETATM    8  S1  UNL     1      23.277   7.312  49.693  1.00  0.00    -0.081 SA
HETATM    9  C7  UNL     1      23.623   5.577  49.861  1.00  0.00     0.087 A 
HETATM   10  N1  UNL     1      22.739   5.188  50.589  1.00  0.00    -0.221 NA
HETATM   11  C8  UNL     1      24.555   4.420  49.418  1.00  0.00     0.092 C 
HETATM   12  C18 UNL     1      23.748   3.695  48.449  1.00  0.00    -0.013 C 
HETATM   13  C19 UNL     1      22.513   3.187  48.205  1.00  0.00     0.003 C 
ENDROOT
BRANCH  11  14
HETATM   14  C9  UNL     1      25.202   3.789  50.527  1.00  0.00     0.121 C 
HETATM   15  C10 UNL     1      24.787   2.349  50.817  1.00  0.00     0.089 C 
HETATM   16  C11 UNL     1      25.853   2.056  51.816  1.00  0.00     0.066 C 
HETATM   17  N2  UNL     1      26.892   2.742  51.470  1.00  0.00    -0.183 NA
HETATM   18  N3  UNL     1      26.638   3.499  50.298  1.00  0.00    -0.307 N 
HETATM   19  H16 UNL     1      27.348   3.725  49.551  1.00  0.00     0.182 HD
BRANCH  16  20
HETATM   20  C12 UNL     1      25.744   1.165  52.965  1.00  0.00    -0.010 A 
HETATM   21  C13 UNL     1      26.767   1.094  53.886  1.00  0.00     0.016 A 
HETATM   22  C14 UNL     1      26.670   0.252  54.976  1.00  0.00     0.043 A 
HETATM   23  C15 UNL     1      25.528  -0.531  55.146  1.00  0.00     0.116 A 
HETATM   24  F1  UNL     1      25.325  -1.385  56.168  1.00  0.00    -0.206 F 
HETATM   25  C16 UNL     1      24.518  -0.441  54.211  1.00  0.00     0.043 A 
HETATM   26  C17 UNL     1      24.598   0.395  53.116  1.00  0.00     0.016 A 
ENDBRANCH  16  20
ENDBRANCH  11  14
TORSDOF 2
ENDMDL
MODEL 9
REMARK VINA RESULT:      -7.4      2.221      3.575
REMARK  2 active torsions:
REMARK  status: ('A' for Active; 'I' for Inactive)
REMARK    1  A    between atoms: C8_11  and  C9_12 
REMARK    2  A    between atoms: C11_14  and  C12_15 
ROOT
HETATM    1  C1  UNL     1      17.808   0.235  50.073  1.00  0.00     0.048 C 
HETATM    2  C2  UNL     1      19.061   0.871  50.631  1.00  0.00    -0.064 C 
HETATM    3  C3  UNL     1      18.567   1.741  51.482  1.00  0.00     0.006 C 
HETATM    4  C4  UNL     1      19.406   2.606  52.322  1.00  0.00     0.205 C 
HETATM    5  O1  UNL     1      19.301   3.981  52.128  1.00  0.00    -0.330 OA
HETATM    6  C5  UNL     1      19.795   4.431  50.854  1.00  0.00     0.172 A 
HETATM    7  C6  UNL     1      19.673   5.408  49.807  1.00  0.00     0.109 A 
HETATM    8  S1  UNL     1      21.047   4.761  48.656  1.00  0.00    -0.081 SA
HETATM    9  C7  UNL     1      21.488   3.406  49.718  1.00  0.00     0.087 A 
HETATM   10  N1  UNL     1      20.730   3.527  50.651  1.00  0.00    -0.221 NA
HETATM   11  C8  UNL     1      22.401   2.163  49.877  1.00  0.00     0.092 C 
HETATM   12  C18 UNL     1      21.504   1.053  49.601  1.00  0.00    -0.013 C 
HETATM   13  C19 UNL     1      20.271   0.546  49.855  1.00  0.00     0.003 C 
ENDROOT
BRANCH  11  14
HETATM   14  C9  UNL     1      23.220   2.237  51.047  1.00  0.00     0.121 C 
HETATM   15  C10 UNL     1      24.677   1.811  50.877  1.00  0.00     0.089 C 
HETATM   16  C11 UNL     1      25.156   2.287  52.205  1.00  0.00     0.066 C 
HETATM   17  N2  UNL     1      24.451   3.327  52.510  1.00  0.00    -0.183 NA
HETATM   18  N3  UNL     1      23.508   3.621  51.492  1.00  0.00    -0.307 N 
HETATM   19  H16 UNL     1      23.184   4.588  51.222  1.00  0.00     0.182 HD
BRANCH  16  20
HETATM   20  C12 UNL     1      26.217   1.692  53.009  1.00  0.00    -0.010 A 
HETATM   21  C13 UNL     1      27.523   2.100  52.844  1.00  0.00     0.016 A 
HETATM   22  C14 UNL     1      28.532   1.540  53.601  1.00  0.00     0.043 A 
HETATM   23  C15 UNL     1      28.227   0.554  54.540  1.00  0.00     0.116 A 
HETATM   24  F1  UNL     1      29.127  -0.061  55.332  1.00  0.00    -0.206 F 
HETATM   25  C16 UNL     1      26.913   0.163  54.686  1.00  0.00     0.043 A 
HETATM   26  C17 UNL     1      25.891   0.712  53.938  1.00  0.00     0.016 A 
ENDBRANCH  16  20
ENDBRANCH  11  14
TORSDOF 2
ENDMDL
