MODEL 1
REMARK VINA RESULT:      -8.3      0.000      0.000
REMARK  5 active torsions:
REMARK  status: ('A' for Active; 'I' for Inactive)
REMARK    1  A    between atoms: C2_2  and  C3_3 
REMARK    2  A    between atoms: C4_4  and  C5_5 
REMARK       I    between atoms: C5_5  and  N1_6 
REMARK    3  A    between atoms: C7_11  and  C8_12 
REMARK    4  A    between atoms: C11_16  and  N5_17 
REMARK    5  A    between atoms: N5_17  and  C12_18 
REMARK       I    between atoms: N6_21  and  C15_22 
ROOT
HETATM    1  C8  UNL     1      21.530   2.489  52.110  1.00  0.00     0.106 A 
HETATM    2  C9  UNL     1      21.268   3.813  52.284  1.00  0.00     0.054 A 
HETATM    3  C10 UNL     1      22.367   4.641  52.215  1.00  0.00     0.139 A 
HETATM    4  N4  UNL     1      23.629   4.232  51.996  1.00  0.00    -0.075 NA
HETATM    5  C11 UNL     1      23.848   2.922  51.831  1.00  0.00     0.723 A 
HETATM    6  N7  UNL     1      22.796   2.096  51.893  1.00  0.00    -0.061 NA
ENDROOT
BRANCH   1   7
HETATM    7  C7  UNL     1      20.537   1.421  52.140  1.00  0.00     0.090 A 
HETATM    8  C3  UNL     1      20.138   0.560  53.156  1.00  0.00     0.008 A 
HETATM    9  C4  UNL     1      19.153  -0.282  52.678  1.00  0.00     0.147 A 
HETATM   10  N2  UNL     1      18.970   0.076  51.393  1.00  0.00    -0.167 NA
HETATM   11  N3  UNL     1      19.777   1.075  51.064  1.00  0.00    -0.271 N 
HETATM   12  C6  UNL     1      19.818   1.690  49.731  1.00  0.00     0.180 C 
BRANCH   8  13
HETATM   13  C2  UNL     1      20.707   0.585  54.508  1.00  0.00     0.039 C 
HETATM   14  C1  UNL     1      21.854  -0.387  54.696  1.00  0.00     0.010 C 
ENDBRANCH   8  13
BRANCH   9  15
HETATM   15  C5  UNL     1      18.459  -1.334  53.411  1.00  0.00     0.249 C 
HETATM   16  N1  UNL     1      17.077  -1.159  53.713  1.00  0.00    -0.267 NA
HETATM   17  H6  UNL     1      16.934  -0.324  54.353  1.00  0.00     0.127 HD
HETATM   18  H7  UNL     1      16.915  -0.336  54.346  1.00  0.00     0.127 HD
HETATM   19  O1  UNL     1      19.134  -2.357  53.744  1.00  0.00    -0.272 OA
ENDBRANCH   9  15
ENDBRANCH   1   7
BRANCH   5  20
HETATM   20  N5  UNL     1      25.162   2.430  51.596  1.00  0.00    -0.218 N 
HETATM   21  H13 UNL     1      25.626   2.685  50.675  1.00  0.00     0.178 HD
BRANCH  20  22
HETATM   22  C12 UNL     1      25.845   1.613  52.563  1.00  0.00     0.102 C 
HETATM   23  C13 UNL     1      27.291   2.062  52.643  1.00  0.00     0.045 C 
HETATM   24  C14 UNL     1      28.141   1.209  53.527  1.00  0.00     0.127 C 
HETATM   25  N6  UNL     1      27.883  -0.196  53.450  1.00  0.00    -0.352 N 
HETATM   26  C15 UNL     1      28.906  -1.171  53.474  1.00  0.00     0.215 C 
HETATM   27  C17 UNL     1      26.499  -0.606  53.343  1.00  0.00     0.127 C 
HETATM   28  C16 UNL     1      30.325  -0.818  53.580  1.00  0.00     0.117 C 
HETATM   29  O2  UNL     1      28.670  -2.422  53.405  1.00  0.00    -0.274 OA
HETATM   30  C18 UNL     1      25.901   0.139  52.163  1.00  0.00     0.045 C 
ENDBRANCH  20  22
ENDBRANCH   5  20
TORSDOF 5
ENDMDL
MODEL 2
REMARK VINA RESULT:      -8.2      2.974      7.142
REMARK  5 active torsions:
REMARK  status: ('A' for Active; 'I' for Inactive)
REMARK    1  A    between atoms: C2_2  and  C3_3 
REMARK    2  A    between atoms: C4_4  and  C5_5 
REMARK       I    between atoms: C5_5  and  N1_6 
REMARK    3  A    between atoms: C7_11  and  C8_12 
REMARK    4  A    between atoms: C11_16  and  N5_17 
REMARK    5  A    between atoms: N5_17  and  C12_18 
REMARK       I    between atoms: N6_21  and  C15_22 
ROOT
HETATM    1  C8  UNL     1      23.922   0.146  53.239  1.00  0.00     0.106 A 
HETATM    2  C9  UNL     1      23.075  -0.890  52.993  1.00  0.00     0.054 A 
HETATM    3  C10 UNL     1      21.816  -0.528  52.562  1.00  0.00     0.139 A 
HETATM    4  N4  UNL     1      21.398   0.737  52.382  1.00  0.00    -0.075 NA
HETATM    5  C11 UNL     1      22.259   1.730  52.636  1.00  0.00     0.723 A 
HETATM    6  N7  UNL     1      23.488   1.404  53.055  1.00  0.00    -0.061 NA
ENDROOT
BRANCH   1   7
HETATM    7  C7  UNL     1      25.300   0.018  53.702  1.00  0.00     0.090 A 
HETATM    8  C3  UNL     1      26.509   0.332  53.094  1.00  0.00     0.008 A 
HETATM    9  C4  UNL     1      27.545   0.021  53.954  1.00  0.00     0.147 A 
HETATM   10  N2  UNL     1      26.955  -0.472  55.059  1.00  0.00    -0.167 NA
HETATM   11  N3  UNL     1      25.636  -0.479  54.925  1.00  0.00    -0.271 N 
HETATM   12  C6  UNL     1      24.710  -0.960  55.958  1.00  0.00     0.180 C 
BRANCH   8  13
HETATM   13  C2  UNL     1      26.615   0.904  51.746  1.00  0.00     0.039 C 
HETATM   14  C1  UNL     1      26.803   2.407  51.743  1.00  0.00     0.010 C 
ENDBRANCH   8  13
BRANCH   9  15
HETATM   15  C5  UNL     1      28.973   0.191  53.714  1.00  0.00     0.249 C 
HETATM   16  N1  UNL     1      29.543   1.489  53.874  1.00  0.00    -0.267 NA
HETATM   17  H6  UNL     1      29.126   2.172  53.176  1.00  0.00     0.127 HD
HETATM   18  H7  UNL     1      29.142   2.180  53.192  1.00  0.00     0.127 HD
HETATM   19  O1  UNL     1      29.634  -0.837  53.370  1.00  0.00    -0.272 OA
ENDBRANCH   9  15
ENDBRANCH   1   7
BRANCH   5  20
HETATM   20  N5  UNL     1      21.872   3.088  52.463  1.00  0.00    -0.218 N 
HETATM   21  H13 UNL     1      21.153   3.485  53.136  1.00  0.00     0.178 HD
BRANCH  20  22
HETATM   22  C12 UNL     1      22.428   3.902  51.415  1.00  0.00     0.102 C 
HETATM   23  C13 UNL     1      23.429   3.073  50.635  1.00  0.00     0.045 C 
HETATM   24  C14 UNL     1      24.168   3.843  49.591  1.00  0.00     0.127 C 
HETATM   25  N6  UNL     1      24.552   5.169  49.967  1.00  0.00    -0.352 N 
HETATM   26  C15 UNL     1      25.798   5.740  49.622  1.00  0.00     0.215 C 
HETATM   27  C17 UNL     1      23.597   5.935  50.738  1.00  0.00     0.127 C 
HETATM   28  C16 UNL     1      26.805   5.013  48.845  1.00  0.00     0.117 C 
HETATM   29  O2  UNL     1      26.134   6.922  49.961  1.00  0.00    -0.274 OA
HETATM   30  C18 UNL     1      23.219   5.097  51.947  1.00  0.00     0.045 C 
ENDBRANCH  20  22
ENDBRANCH   5  20
TORSDOF 5
ENDMDL
MODEL 3
REMARK VINA RESULT:      -8.0      4.245      7.188
REMARK  5 active torsions:
REMARK  status: ('A' for Active; 'I' for Inactive)
REMARK    1  A    between atoms: C2_2  and  C3_3 
REMARK    2  A    between atoms: C4_4  and  C5_5 
REMARK       I    between atoms: C5_5  and  N1_6 
REMARK    3  A    between atoms: C7_11  and  C8_12 
REMARK    4  A    between atoms: C11_16  and  N5_17 
REMARK    5  A    between atoms: N5_17  and  C12_18 
REMARK       I    between atoms: N6_21  and  C15_22 
ROOT
HETATM    1  C8  UNL     1      23.759   5.019  49.267  1.00  0.00     0.106 A 
HETATM    2  C9  UNL     1      22.993   4.791  48.166  1.00  0.00     0.054 A 
HETATM    3  C10 UNL     1      22.511   3.506  48.043  1.00  0.00     0.139 A 
HETATM    4  N4  UNL     1      22.748   2.508  48.913  1.00  0.00    -0.075 NA
HETATM    5  C11 UNL     1      23.508   2.769  49.983  1.00  0.00     0.723 A 
HETATM    6  N7  UNL     1      23.986   4.011  50.125  1.00  0.00    -0.061 NA
ENDROOT
BRANCH   1   7
HETATM    7  C7  UNL     1      24.379   6.293  49.615  1.00  0.00     0.090 A 
HETATM    8  C3  UNL     1      25.625   6.826  49.309  1.00  0.00     0.008 A 
HETATM    9  C4  UNL     1      25.737   8.079  49.880  1.00  0.00     0.147 A 
HETATM   10  N2  UNL     1      24.569   8.286  50.518  1.00  0.00    -0.167 NA
HETATM   11  N3  UNL     1      23.762   7.244  50.370  1.00  0.00    -0.271 N 
HETATM   12  C6  UNL     1      22.415   7.163  50.949  1.00  0.00     0.180 C 
BRANCH   8  13
HETATM   13  C2  UNL     1      26.630   6.126  48.500  1.00  0.00     0.039 C 
HETATM   14  C1  UNL     1      27.174   4.878  49.165  1.00  0.00     0.010 C 
ENDBRANCH   8  13
BRANCH   9  15
HETATM   15  C5  UNL     1      26.878   8.984  49.807  1.00  0.00     0.249 C 
HETATM   16  N1  UNL     1      27.506   9.391  51.021  1.00  0.00    -0.267 NA
HETATM   17  H6  UNL     1      26.832   9.945  51.626  1.00  0.00     0.127 HD
HETATM   18  H7  UNL     1      26.854   9.941  51.635  1.00  0.00     0.127 HD
HETATM   19  O1  UNL     1      27.249   9.364  48.653  1.00  0.00    -0.272 OA
ENDBRANCH   9  15
ENDBRANCH   1   7
BRANCH   5  20
HETATM   20  N5  UNL     1      23.792   1.753  50.938  1.00  0.00    -0.218 N 
HETATM   21  H13 UNL     1      23.227   0.854  50.883  1.00  0.00     0.178 HD
BRANCH  20  22
HETATM   22  C12 UNL     1      24.803   1.927  51.945  1.00  0.00     0.102 C 
HETATM   23  C13 UNL     1      26.165   1.825  51.290  1.00  0.00     0.045 C 
HETATM   24  C14 UNL     1      27.305   1.868  52.253  1.00  0.00     0.127 C 
HETATM   25  N6  UNL     1      27.099   1.151  53.474  1.00  0.00    -0.352 N 
HETATM   26  C15 UNL     1      28.109   0.385  54.101  1.00  0.00     0.215 C 
HETATM   27  C17 UNL     1      25.783   1.234  54.071  1.00  0.00     0.127 C 
HETATM   28  C16 UNL     1      29.459   0.263  53.543  1.00  0.00     0.117 C 
HETATM   29  O2  UNL     1      27.919  -0.252  55.188  1.00  0.00    -0.274 OA
HETATM   30  C18 UNL     1      24.781   0.826  53.006  1.00  0.00     0.045 C 
ENDBRANCH  20  22
ENDBRANCH   5  20
TORSDOF 5
ENDMDL
MODEL 4
REMARK VINA RESULT:      -7.8      4.296      7.318
REMARK  5 active torsions:
REMARK  status: ('A' for Active; 'I' for Inactive)
REMARK    1  A    between atoms: C2_2  and  C3_3 
REMARK    2  A    between atoms: C4_4  and  C5_5 
REMARK       I    between atoms: C5_5  and  N1_6 
REMARK    3  A    between atoms: C7_11  and  C8_12 
REMARK    4  A    between atoms: C11_16  and  N5_17 
REMARK    5  A    between atoms: N5_17  and  C12_18 
REMARK       I    between atoms: N6_21  and  C15_22 
ROOT
HETATM    1  C8  UNL     1      24.393   4.789  49.853  1.00  0.00     0.106 A 
HETATM    2  C9  UNL     1      23.773   4.194  48.798  1.00  0.00     0.054 A 
HETATM    3  C10 UNL     1      22.930   3.154  49.124  1.00  0.00     0.139 A 
HETATM    4  N4  UNL     1      22.697   2.713  50.373  1.00  0.00    -0.075 NA
HETATM    5  C11 UNL     1      23.325   3.322  51.386  1.00  0.00     0.723 A 
HETATM    6  N7  UNL     1      24.149   4.336  51.094  1.00  0.00    -0.061 NA
ENDROOT
BRANCH   1   7
HETATM    7  C7  UNL     1      25.327   5.906  49.763  1.00  0.00     0.090 A 
HETATM    8  C3  UNL     1      25.205   7.242  50.124  1.00  0.00     0.008 A 
HETATM    9  C4  UNL     1      26.384   7.901  49.836  1.00  0.00     0.147 A 
HETATM   10  N2  UNL     1      27.196   6.965  49.309  1.00  0.00    -0.167 NA
HETATM   11  N3  UNL     1      26.588   5.788  49.261  1.00  0.00    -0.271 N 
HETATM   12  C6  UNL     1      27.210   4.566  48.737  1.00  0.00     0.180 C 
BRANCH   8  13
HETATM   13  C2  UNL     1      23.990   7.813  50.717  1.00  0.00     0.039 C 
HETATM   14  C1  UNL     1      23.007   8.336  49.689  1.00  0.00     0.010 C 
ENDBRANCH   8  13
BRANCH   9  15
HETATM   15  C5  UNL     1      26.683   9.311  50.055  1.00  0.00     0.249 C 
HETATM   16  N1  UNL     1      27.622   9.660  51.070  1.00  0.00    -0.267 NA
HETATM   17  H6  UNL     1      27.268   9.366  52.027  1.00  0.00     0.127 HD
HETATM   18  H7  UNL     1      27.289   9.376  52.026  1.00  0.00     0.127 HD
HETATM   19  O1  UNL     1      26.083  10.157  49.322  1.00  0.00    -0.272 OA
ENDBRANCH   9  15
ENDBRANCH   1   7
BRANCH   5  20
HETATM   20  N5  UNL     1      23.117   2.900  52.728  1.00  0.00    -0.218 N 
HETATM   21  H13 UNL     1      22.369   3.401  53.292  1.00  0.00     0.178 HD
BRANCH  20  22
HETATM   22  C12 UNL     1      23.889   1.836  53.311  1.00  0.00     0.102 C 
HETATM   23  C13 UNL     1      25.319   2.308  53.480  1.00  0.00     0.045 C 
HETATM   24  C14 UNL     1      26.254   1.249  53.965  1.00  0.00     0.127 C 
HETATM   25  N6  UNL     1      26.043  -0.052  53.408  1.00  0.00    -0.352 N 
HETATM   26  C15 UNL     1      27.101  -0.915  53.039  1.00  0.00     0.215 C 
HETATM   27  C17 UNL     1      24.671  -0.475  53.226  1.00  0.00     0.127 C 
HETATM   28  C16 UNL     1      28.509  -0.541  53.199  1.00  0.00     0.117 C 
HETATM   29  O2  UNL     1      26.907  -2.073  52.543  1.00  0.00    -0.274 OA
HETATM   30  C18 UNL     1      23.974   0.601  52.414  1.00  0.00     0.045 C 
ENDBRANCH  20  22
ENDBRANCH   5  20
TORSDOF 5
ENDMDL
MODEL 5
REMARK VINA RESULT:      -7.7      4.162      7.054
REMARK  5 active torsions:
REMARK  status: ('A' for Active; 'I' for Inactive)
REMARK    1  A    between atoms: C2_2  and  C3_3 
REMARK    2  A    between atoms: C4_4  and  C5_5 
REMARK       I    between atoms: C5_5  and  N1_6 
REMARK    3  A    between atoms: C7_11  and  C8_12 
REMARK    4  A    between atoms: C11_16  and  N5_17 
REMARK    5  A    between atoms: N5_17  and  C12_18 
REMARK       I    between atoms: N6_21  and  C15_22 
ROOT
HETATM    1  C8  UNL     1      23.293   1.810  51.519  1.00  0.00     0.106 A 
HETATM    2  C9  UNL     1      22.435   1.428  50.536  1.00  0.00     0.054 A 
HETATM    3  C10 UNL     1      21.840   2.461  49.844  1.00  0.00     0.139 A 
HETATM    4  N4  UNL     1      22.052   3.768  50.079  1.00  0.00    -0.075 NA
HETATM    5  C11 UNL     1      22.902   4.106  51.055  1.00  0.00     0.723 A 
HETATM    6  N7  UNL     1      23.494   3.120  51.741  1.00  0.00    -0.061 NA
ENDROOT
BRANCH   1   7
HETATM    7  C7  UNL     1      24.041   0.905  52.386  1.00  0.00     0.090 A 
HETATM    8  C3  UNL     1      25.388   0.566  52.424  1.00  0.00     0.008 A 
HETATM    9  C4  UNL     1      25.601  -0.344  53.440  1.00  0.00     0.147 A 
HETATM   10  N2  UNL     1      24.392  -0.543  53.999  1.00  0.00    -0.167 NA
HETATM   11  N3  UNL     1      23.467   0.185  53.390  1.00  0.00    -0.271 N 
HETATM   12  C6  UNL     1      22.048   0.187  53.766  1.00  0.00     0.180 C 
BRANCH   8  13
HETATM   13  C2  UNL     1      26.389   1.120  51.503  1.00  0.00     0.039 C 
HETATM   14  C1  UNL     1      27.121   2.322  52.061  1.00  0.00     0.010 C 
ENDBRANCH   8  13
BRANCH   9  15
HETATM   15  C5  UNL     1      26.866  -0.958  53.825  1.00  0.00     0.249 C 
HETATM   16  N1  UNL     1      27.312  -2.109  53.111  1.00  0.00    -0.267 NA
HETATM   17  H6  UNL     1      26.634  -2.917  53.239  1.00  0.00     0.127 HD
HETATM   18  H7  UNL     1      26.653  -2.921  53.225  1.00  0.00     0.127 HD
HETATM   19  O1  UNL     1      27.505  -0.427  54.785  1.00  0.00    -0.272 OA
ENDBRANCH   9  15
ENDBRANCH   1   7
BRANCH   5  20
HETATM   20  N5  UNL     1      23.166   5.472  51.348  1.00  0.00    -0.218 N 
HETATM   21  H13 UNL     1      22.869   5.838  52.300  1.00  0.00     0.178 HD
BRANCH  20  22
HETATM   22  C12 UNL     1      23.809   6.337  50.395  1.00  0.00     0.102 C 
HETATM   23  C13 UNL     1      25.263   5.926  50.270  1.00  0.00     0.045 C 
HETATM   24  C14 UNL     1      26.074   6.827  49.398  1.00  0.00     0.127 C 
HETATM   25  N6  UNL     1      25.786   8.223  49.528  1.00  0.00    -0.352 N 
HETATM   26  C15 UNL     1      26.785   9.222  49.515  1.00  0.00     0.215 C 
HETATM   27  C17 UNL     1      24.395   8.595  49.677  1.00  0.00     0.127 C 
HETATM   28  C16 UNL     1      28.208   8.906  49.369  1.00  0.00     0.117 C 
HETATM   29  O2  UNL     1      26.521  10.464  49.631  1.00  0.00    -0.274 OA
HETATM   30  C18 UNL     1      23.839   7.798  50.843  1.00  0.00     0.045 C 
ENDBRANCH  20  22
ENDBRANCH   5  20
TORSDOF 5
ENDMDL
MODEL 6
REMARK VINA RESULT:      -7.6      3.268      7.755
REMARK  5 active torsions:
REMARK  status: ('A' for Active; 'I' for Inactive)
REMARK    1  A    between atoms: C2_2  and  C3_3 
REMARK    2  A    between atoms: C4_4  and  C5_5 
REMARK       I    between atoms: C5_5  and  N1_6 
REMARK    3  A    between atoms: C7_11  and  C8_12 
REMARK    4  A    between atoms: C11_16  and  N5_17 
REMARK    5  A    between atoms: N5_17  and  C12_18 
REMARK       I    between atoms: N6_21  and  C15_22 
ROOT
HETATM    1  C8  UNL     1      24.155  -0.190  53.407  1.00  0.00     0.106 A 
HETATM    2  C9  UNL     1      23.523  -0.933  54.355  1.00  0.00     0.054 A 
HETATM    3  C10 UNL     1      22.178  -1.141  54.136  1.00  0.00     0.139 A 
HETATM    4  N4  UNL     1      21.487  -0.670  53.083  1.00  0.00    -0.075 NA
HETATM    5  C11 UNL     1      22.142   0.057  52.171  1.00  0.00     0.723 A 
HETATM    6  N7  UNL     1      23.450   0.273  52.361  1.00  0.00    -0.061 NA
ENDROOT
BRANCH   1   7
HETATM    7  C7  UNL     1      25.570   0.165  53.416  1.00  0.00     0.090 A 
HETATM    8  C3  UNL     1      26.223   1.344  53.752  1.00  0.00     0.008 A 
HETATM    9  C4  UNL     1      27.584   1.173  53.595  1.00  0.00     0.147 A 
HETATM   10  N2  UNL     1      27.737  -0.096  53.169  1.00  0.00    -0.167 NA
HETATM   11  N3  UNL     1      26.561  -0.699  53.061  1.00  0.00    -0.271 N 
HETATM   12  C6  UNL     1      26.392  -2.089  52.618  1.00  0.00     0.180 C 
BRANCH   8  13
HETATM   13  C2  UNL     1      25.526   2.557  54.200  1.00  0.00     0.039 C 
HETATM   14  C1  UNL     1      24.730   3.233  53.104  1.00  0.00     0.010 C 
ENDBRANCH   8  13
BRANCH   9  15
HETATM   15  C5  UNL     1      28.632   2.157  53.837  1.00  0.00     0.249 C 
HETATM   16  N1  UNL     1      28.942   3.093  52.806  1.00  0.00    -0.267 NA
HETATM   17  H6  UNL     1      29.311   2.596  51.944  1.00  0.00     0.127 HD
HETATM   18  H7  UNL     1      29.309   2.619  51.943  1.00  0.00     0.127 HD
HETATM   19  O1  UNL     1      29.217   2.123  54.963  1.00  0.00    -0.272 OA
ENDBRANCH   9  15
ENDBRANCH   1   7
BRANCH   5  20
HETATM   20  N5  UNL     1      21.464   0.580  51.036  1.00  0.00    -0.218 N 
HETATM   21  H13 UNL     1      20.423   0.383  50.949  1.00  0.00     0.178 HD
BRANCH  20  22
HETATM   22  C12 UNL     1      22.152   1.348  50.034  1.00  0.00     0.102 C 
HETATM   23  C13 UNL     1      22.010   2.820  50.366  1.00  0.00     0.045 C 
HETATM   24  C14 UNL     1      22.580   3.733  49.331  1.00  0.00     0.127 C 
HETATM   25  N6  UNL     1      22.358   3.332  47.975  1.00  0.00    -0.352 N 
HETATM   26  C15 UNL     1      22.043   4.244  46.942  1.00  0.00     0.215 C 
HETATM   27  C17 UNL     1      22.468   1.920  47.681  1.00  0.00     0.127 C 
HETATM   28  C16 UNL     1      21.917   5.685  47.180  1.00  0.00     0.117 C 
HETATM   29  O2  UNL     1      21.846   3.881  45.737  1.00  0.00    -0.274 OA
HETATM   30  C18 UNL     1      21.545   1.188  48.640  1.00  0.00     0.045 C 
ENDBRANCH  20  22
ENDBRANCH   5  20
TORSDOF 5
ENDMDL
MODEL 7
REMARK VINA RESULT:      -7.6      4.779      6.688
REMARK  5 active torsions:
REMARK  status: ('A' for Active; 'I' for Inactive)
REMARK    1  A    between atoms: C2_2  and  C3_3 
REMARK    2  A    between atoms: C4_4  and  C5_5 
REMARK       I    between atoms: C5_5  and  N1_6 
REMARK    3  A    between atoms: C7_11  and  C8_12 
REMARK    4  A    between atoms: C11_16  and  N5_17 
REMARK    5  A    between atoms: N5_17  and  C12_18 
REMARK       I    between atoms: N6_21  and  C15_22 
ROOT
HETATM    1  C8  UNL     1      24.157   3.484  51.991  1.00  0.00     0.106 A 
HETATM    2  C9  UNL     1      23.464   4.499  52.573  1.00  0.00     0.054 A 
HETATM    3  C10 UNL     1      23.516   5.703  51.905  1.00  0.00     0.139 A 
HETATM    4  N4  UNL     1      24.185   5.920  50.759  1.00  0.00    -0.075 NA
HETATM    5  C11 UNL     1      24.857   4.898  50.216  1.00  0.00     0.723 A 
HETATM    6  N7  UNL     1      24.821   3.718  50.846  1.00  0.00    -0.061 NA
ENDROOT
BRANCH   1   7
HETATM    7  C7  UNL     1      24.253   2.122  52.506  1.00  0.00     0.090 A 
HETATM    8  C3  UNL     1      25.215   1.500  53.293  1.00  0.00     0.008 A 
HETATM    9  C4  UNL     1      24.844   0.188  53.512  1.00  0.00     0.147 A 
HETATM   10  N2  UNL     1      23.676   0.034  52.861  1.00  0.00    -0.167 NA
HETATM   11  N3  UNL     1      23.317   1.163  52.266  1.00  0.00    -0.271 N 
HETATM   12  C6  UNL     1      22.089   1.318  51.475  1.00  0.00     0.180 C 
BRANCH   8  13
HETATM   13  C2  UNL     1      26.419   2.178  53.789  1.00  0.00     0.039 C 
HETATM   14  C1  UNL     1      27.592   2.096  52.835  1.00  0.00     0.010 C 
ENDBRANCH   8  13
BRANCH   9  15
HETATM   15  C5  UNL     1      25.567  -0.817  54.283  1.00  0.00     0.249 C 
HETATM   16  N1  UNL     1      26.692  -1.457  53.686  1.00  0.00    -0.267 NA
HETATM   17  H6  UNL     1      26.398  -2.015  52.831  1.00  0.00     0.127 HD
HETATM   18  H7  UNL     1      26.421  -2.015  52.837  1.00  0.00     0.127 HD
HETATM   19  O1  UNL     1      25.147  -1.067  55.455  1.00  0.00    -0.272 OA
ENDBRANCH   9  15
ENDBRANCH   1   7
BRANCH   5  20
HETATM   20  N5  UNL     1      25.582   5.068  49.004  1.00  0.00    -0.218 N 
HETATM   21  H13 UNL     1      25.214   4.578  48.136  1.00  0.00     0.178 HD
BRANCH  20  22
HETATM   22  C12 UNL     1      26.775   5.870  48.946  1.00  0.00     0.102 C 
HETATM   23  C13 UNL     1      26.537   7.026  47.995  1.00  0.00     0.045 C 
HETATM   24  C14 UNL     1      27.745   7.869  47.752  1.00  0.00     0.127 C 
HETATM   25  N6  UNL     1      28.976   7.149  47.630  1.00  0.00    -0.352 N 
HETATM   26  C15 UNL     1      29.978   7.485  46.691  1.00  0.00     0.215 C 
HETATM   27  C17 UNL     1      29.174   6.029  48.525  1.00  0.00     0.127 C 
HETATM   28  C16 UNL     1      29.834   8.607  45.759  1.00  0.00     0.117 C 
HETATM   29  O2  UNL     1      31.072   6.840  46.587  1.00  0.00    -0.274 OA
HETATM   30  C18 UNL     1      27.972   5.114  48.371  1.00  0.00     0.045 C 
ENDBRANCH  20  22
ENDBRANCH   5  20
TORSDOF 5
ENDMDL
MODEL 8
REMARK VINA RESULT:      -7.5      4.567      8.209
REMARK  5 active torsions:
REMARK  status: ('A' for Active; 'I' for Inactive)
REMARK    1  A    between atoms: C2_2  and  C3_3 
REMARK    2  A    between atoms: C4_4  and  C5_5 
REMARK       I    between atoms: C5_5  and  N1_6 
REMARK    3  A    between atoms: C7_11  and  C8_12 
REMARK    4  A    between atoms: C11_16  and  N5_17 
REMARK    5  A    between atoms: N5_17  and  C12_18 
REMARK       I    between atoms: N6_21  and  C15_22 
ROOT
HETATM    1  C8  UNL     1      23.610   5.633  48.608  1.00  0.00     0.106 A 
HETATM    2  C9  UNL     1      22.828   5.691  47.496  1.00  0.00     0.054 A 
HETATM    3  C10 UNL     1      22.223   4.505  47.143  1.00  0.00     0.139 A 
HETATM    4  N4  UNL     1      22.358   3.343  47.806  1.00  0.00    -0.075 NA
HETATM    5  C11 UNL     1      23.136   3.323  48.895  1.00  0.00     0.723 A 
HETATM    6  N7  UNL     1      23.734   4.464  49.259  1.00  0.00    -0.061 NA
ENDROOT
BRANCH   1   7
HETATM    7  C7  UNL     1      24.352   6.752  49.179  1.00  0.00     0.090 A 
HETATM    8  C3  UNL     1      25.662   7.178  48.997  1.00  0.00     0.008 A 
HETATM    9  C4  UNL     1      25.887   8.300  49.771  1.00  0.00     0.147 A 
HETATM   10  N2  UNL     1      24.722   8.536  50.404  1.00  0.00    -0.167 NA
HETATM   11  N3  UNL     1      23.812   7.634  50.065  1.00  0.00    -0.271 N 
HETATM   12  C6  UNL     1      22.439   7.619  50.587  1.00  0.00     0.180 C 
BRANCH   8  13
HETATM   13  C2  UNL     1      26.618   6.505  48.110  1.00  0.00     0.039 C 
HETATM   14  C1  UNL     1      27.244   5.270  48.725  1.00  0.00     0.010 C 
ENDBRANCH   8  13
BRANCH   9  15
HETATM   15  C5  UNL     1      27.123   9.065  49.878  1.00  0.00     0.249 C 
HETATM   16  N1  UNL     1      27.590   9.429  51.175  1.00  0.00    -0.267 NA
HETATM   17  H6  UNL     1      26.898  10.074  51.657  1.00  0.00     0.127 HD
HETATM   18  H7  UNL     1      26.917  10.068  51.670  1.00  0.00     0.127 HD
HETATM   19  O1  UNL     1      27.719   9.367  48.798  1.00  0.00    -0.272 OA
ENDBRANCH   9  15
ENDBRANCH   1   7
BRANCH   5  20
HETATM   20  N5  UNL     1      23.315   2.123  49.637  1.00  0.00    -0.218 N 
HETATM   21  H13 UNL     1      23.962   1.385  49.231  1.00  0.00     0.178 HD
BRANCH  20  22
HETATM   22  C12 UNL     1      22.648   1.907  50.893  1.00  0.00     0.102 C 
HETATM   23  C13 UNL     1      23.656   1.385  51.896  1.00  0.00     0.045 C 
HETATM   24  C14 UNL     1      23.061   1.004  53.211  1.00  0.00     0.127 C 
HETATM   25  N6  UNL     1      21.792   0.345  53.138  1.00  0.00    -0.352 N 
HETATM   26  C15 UNL     1      21.436  -0.740  53.972  1.00  0.00     0.215 C 
HETATM   27  C17 UNL     1      20.852   0.836  52.154  1.00  0.00     0.127 C 
HETATM   28  C16 UNL     1      22.346  -1.281  54.985  1.00  0.00     0.117 C 
HETATM   29  O2  UNL     1      20.305  -1.323  53.901  1.00  0.00    -0.274 OA
HETATM   30  C18 UNL     1      21.564   0.832  50.812  1.00  0.00     0.045 C 
ENDBRANCH  20  22
ENDBRANCH   5  20
TORSDOF 5
ENDMDL
MODEL 9
REMARK VINA RESULT:      -7.5      1.654      7.491
REMARK  5 active torsions:
REMARK  status: ('A' for Active; 'I' for Inactive)
REMARK    1  A    between atoms: C2_2  and  C3_3 
REMARK    2  A    between atoms: C4_4  and  C5_5 
REMARK       I    between atoms: C5_5  and  N1_6 
REMARK    3  A    between atoms: C7_11  and  C8_12 
REMARK    4  A    between atoms: C11_16  and  N5_17 
REMARK    5  A    between atoms: N5_17  and  C12_18 
REMARK       I    between atoms: N6_21  and  C15_22 
ROOT
HETATM    1  C8  UNL     1      23.754   2.544  52.109  1.00  0.00     0.106 A 
HETATM    2  C9  UNL     1      23.627   3.842  52.497  1.00  0.00     0.054 A 
HETATM    3  C10 UNL     1      22.375   4.389  52.312  1.00  0.00     0.139 A 
HETATM    4  N4  UNL     1      21.320   3.739  51.791  1.00  0.00    -0.075 NA
HETATM    5  C11 UNL     1      21.483   2.464  51.420  1.00  0.00     0.723 A 
HETATM    6  N7  UNL     1      22.690   1.910  51.591  1.00  0.00    -0.061 NA
ENDROOT
BRANCH   1   7
HETATM    7  C7  UNL     1      24.974   1.750  52.204  1.00  0.00     0.090 A 
HETATM    8  C3  UNL     1      25.317   0.680  53.021  1.00  0.00     0.008 A 
HETATM    9  C4  UNL     1      26.601   0.271  52.721  1.00  0.00     0.147 A 
HETATM   10  N2  UNL     1      27.016   1.092  51.738  1.00  0.00    -0.167 NA
HETATM   11  N3  UNL     1      26.070   1.965  51.424  1.00  0.00    -0.271 N 
HETATM   12  C6  UNL     1      26.217   2.995  50.387  1.00  0.00     0.180 C 
BRANCH   8  13
HETATM   13  C2  UNL     1      24.416   0.109  54.029  1.00  0.00     0.039 C 
HETATM   14  C1  UNL     1      23.449  -0.911  53.465  1.00  0.00     0.010 C 
ENDBRANCH   8  13
BRANCH   9  15
HETATM   15  C5  UNL     1      27.349  -0.817  53.340  1.00  0.00     0.249 C 
HETATM   16  N1  UNL     1      28.236  -0.512  54.415  1.00  0.00    -0.267 NA
HETATM   17  H6  UNL     1      29.019   0.126  54.087  1.00  0.00     0.127 HD
HETATM   18  H7  UNL     1      29.019   0.120  54.109  1.00  0.00     0.127 HD
HETATM   19  O1  UNL     1      27.166  -1.987  52.881  1.00  0.00    -0.272 OA
ENDBRANCH   9  15
ENDBRANCH   1   7
BRANCH   5  20
HETATM   20  N5  UNL     1      20.402   1.725  50.864  1.00  0.00    -0.218 N 
HETATM   21  H13 UNL     1      20.386   1.594  49.810  1.00  0.00     0.178 HD
BRANCH  20  22
HETATM   22  C12 UNL     1      19.360   1.176  51.689  1.00  0.00     0.102 C 
HETATM   23  C13 UNL     1      19.942   0.047  52.517  1.00  0.00     0.045 C 
HETATM   24  C14 UNL     1      18.930  -0.690  53.331  1.00  0.00     0.127 C 
HETATM   25  N6  UNL     1      17.674  -0.918  52.683  1.00  0.00    -0.352 N 
HETATM   26  C15 UNL     1      16.949  -2.125  52.805  1.00  0.00     0.215 C 
HETATM   27  C17 UNL     1      17.148   0.160  51.872  1.00  0.00     0.127 C 
HETATM   28  C16 UNL     1      17.431  -3.251  53.610  1.00  0.00     0.117 C 
HETATM   29  O2  UNL     1      15.831  -2.322  52.225  1.00  0.00    -0.274 OA
HETATM   30  C18 UNL     1      18.230   0.543  50.878  1.00  0.00     0.045 C 
ENDBRANCH  20  22
ENDBRANCH   5  20
TORSDOF 5
ENDMDL
