MODEL 1
REMARK VINA RESULT:      -7.6      0.000      0.000
REMARK  6 active torsions:
REMARK  status: ('A' for Active; 'I' for Inactive)
REMARK    1  A    between atoms: C2_2  and  N1_3 
REMARK    2  A    between atoms: N1_3  and  C3_4 
REMARK    3  A    between atoms: N1_3  and  C5_6 
REMARK    4  A    between atoms: C5_6  and  C6_7 
REMARK    5  A    between atoms: C6_7  and  N2_8 
REMARK       I    between atoms: N2_8  and  C7_9 
REMARK    6  A    between atoms: C7_9  and  C8_11 
ROOT
HETATM    1  C8  UNL     1      23.323   1.957  51.603  1.00  0.00     0.047 C 
HETATM    2  C9  UNL     1      24.071   2.467  50.653  1.00  0.00     0.074 C 
HETATM    3  N3  UNL     1      24.242   3.458  49.660  1.00  0.00    -0.292 NA
HETATM    4  C10 UNL     1      25.026   4.036  50.790  1.00  0.00     0.194 C 
HETATM    5  C11 UNL     1      26.101   3.024  50.949  1.00  0.00     0.235 C 
HETATM    6  O2  UNL     1      26.832   2.054  50.660  1.00  0.00    -0.272 OA
HETATM    7  N4  UNL     1      26.880   2.871  52.011  1.00  0.00    -0.326 N 
HETATM    8  C12 UNL     1      27.834   2.411  52.896  1.00  0.00     0.031 C 
HETATM    9  C13 UNL     1      27.326   1.120  52.737  1.00  0.00     0.008 C 
HETATM   10  C14 UNL     1      26.774   0.456  53.995  1.00  0.00     0.017 C 
HETATM   11  C15 UNL     1      27.988  -0.115  54.632  1.00  0.00     0.036 C 
HETATM   12  C16 UNL     1      29.122   0.851  54.288  1.00  0.00    -0.024 C 
HETATM   13  C17 UNL     1      28.860   2.093  53.813  1.00  0.00     0.025 C 
HETATM   14  C18 UNL     1      25.641  -0.475  53.665  1.00  0.00     0.036 C 
HETATM   15  C19 UNL     1      24.552   0.349  53.081  1.00  0.00    -0.018 C 
HETATM   16  C20 UNL     1      23.512   1.018  52.674  1.00  0.00    -0.049 C 
HETATM   17  C21 UNL     1      22.400   0.575  53.489  1.00  0.00     0.049 C 
HETATM   18  H17 UNL     1      23.663   2.893  49.012  1.00  0.00     0.127 HD
HETATM   19  H20 UNL     1      26.756   3.575  52.810  1.00  0.00     0.169 HD
ENDROOT
BRANCH   1  20
HETATM   20  C7  UNL     1      22.238   2.848  51.484  1.00  0.00     0.253 C 
HETATM   21  N2  UNL     1      21.289   3.158  50.520  1.00  0.00    -0.355 N 
HETATM   22  H15 UNL     1      21.246   2.654  49.581  1.00  0.00     0.162 HD
HETATM   23  O1  UNL     1      21.780   3.693  52.299  1.00  0.00    -0.268 OA
BRANCH  21  24
HETATM   24  C6  UNL     1      20.280   4.164  50.691  1.00  0.00     0.142 C 
BRANCH  24  25
HETATM   25  C5  UNL     1      20.190   5.214  49.627  1.00  0.00     0.136 C 
BRANCH  25  26
HETATM   26  N1  UNL     1      21.336   6.062  49.607  1.00  0.00    -0.412 N 
BRANCH  26  27
HETATM   27  C2  UNL     1      21.639   6.815  50.743  1.00  0.00     0.112 C 
HETATM   28  C1  UNL     1      23.072   7.320  50.692  1.00  0.00     0.026 C 
ENDBRANCH  26  27
BRANCH  26  29
HETATM   29  C3  UNL     1      22.093   6.164  48.442  1.00  0.00     0.112 C 
HETATM   30  C4  UNL     1      21.869   5.076  47.420  1.00  0.00     0.026 C 
ENDBRANCH  26  29
ENDBRANCH  25  26
ENDBRANCH  24  25
ENDBRANCH  21  24
ENDBRANCH   1  20
TORSDOF 6
ENDMDL
MODEL 2
REMARK VINA RESULT:      -7.5      2.908      5.917
REMARK  6 active torsions:
REMARK  status: ('A' for Active; 'I' for Inactive)
REMARK    1  A    between atoms: C2_2  and  N1_3 
REMARK    2  A    between atoms: N1_3  and  C3_4 
REMARK    3  A    between atoms: N1_3  and  C5_6 
REMARK    4  A    between atoms: C5_6  and  C6_7 
REMARK    5  A    between atoms: C6_7  and  N2_8 
REMARK       I    between atoms: N2_8  and  C7_9 
REMARK    6  A    between atoms: C7_9  and  C8_11 
ROOT
HETATM    1  C8  UNL     1      23.904   2.983  51.758  1.00  0.00     0.047 C 
HETATM    2  C9  UNL     1      22.955   3.889  51.790  1.00  0.00     0.074 C 
HETATM    3  N3  UNL     1      22.413   5.081  51.259  1.00  0.00    -0.292 NA
HETATM    4  C10 UNL     1      21.605   4.048  50.546  1.00  0.00     0.194 C 
HETATM    5  C11 UNL     1      20.887   3.406  51.676  1.00  0.00     0.235 C 
HETATM    6  O2  UNL     1      20.444   3.259  52.833  1.00  0.00    -0.272 OA
HETATM    7  N4  UNL     1      20.290   2.222  51.652  1.00  0.00    -0.326 N 
HETATM    8  C12 UNL     1      19.597   1.083  52.009  1.00  0.00     0.031 C 
HETATM    9  C13 UNL     1      20.438   0.947  53.115  1.00  0.00     0.008 C 
HETATM   10  C14 UNL     1      21.273  -0.329  53.168  1.00  0.00     0.017 C 
HETATM   11  C15 UNL     1      20.342  -1.315  53.772  1.00  0.00     0.036 C 
HETATM   12  C16 UNL     1      18.950  -0.915  53.280  1.00  0.00    -0.024 C 
HETATM   13  C17 UNL     1      18.797  -0.057  52.243  1.00  0.00     0.025 C 
HETATM   14  C18 UNL     1      22.591  -0.087  53.852  1.00  0.00     0.036 C 
HETATM   15  C19 UNL     1      23.336   0.901  53.031  1.00  0.00    -0.018 C 
HETATM   16  C20 UNL     1      24.096   1.669  52.304  1.00  0.00    -0.049 C 
HETATM   17  C21 UNL     1      25.360   0.976  52.167  1.00  0.00     0.049 C 
HETATM   18  H17 UNL     1      23.066   5.629  51.848  1.00  0.00     0.127 HD
HETATM   19  H20 UNL     1      20.281   1.702  50.715  1.00  0.00     0.169 HD
ENDROOT
BRANCH   1  20
HETATM   20  C7  UNL     1      24.670   3.554  50.722  1.00  0.00     0.253 C 
HETATM   21  N2  UNL     1      25.604   4.574  50.603  1.00  0.00    -0.355 N 
HETATM   22  H15 UNL     1      25.931   5.147  51.442  1.00  0.00     0.162 HD
HETATM   23  O1  UNL     1      24.729   3.270  49.496  1.00  0.00    -0.268 OA
BRANCH  21  24
HETATM   24  C6  UNL     1      26.223   4.945  49.363  1.00  0.00     0.142 C 
BRANCH  24  25
HETATM   25  C5  UNL     1      26.203   6.401  49.012  1.00  0.00     0.136 C 
BRANCH  25  26
HETATM   26  N1  UNL     1      27.504   6.902  48.711  1.00  0.00    -0.412 N 
BRANCH  26  27
HETATM   27  C2  UNL     1      28.467   6.022  48.212  1.00  0.00     0.112 C 
HETATM   28  C1  UNL     1      29.582   6.782  47.510  1.00  0.00     0.026 C 
ENDBRANCH  26  27
BRANCH  26  29
HETATM   29  C3  UNL     1      27.802   8.237  48.972  1.00  0.00     0.112 C 
HETATM   30  C4  UNL     1      27.014   8.876  50.090  1.00  0.00     0.026 C 
ENDBRANCH  26  29
ENDBRANCH  25  26
ENDBRANCH  24  25
ENDBRANCH  21  24
ENDBRANCH   1  20
TORSDOF 6
ENDMDL
MODEL 3
REMARK VINA RESULT:      -7.5      2.125      7.436
REMARK  6 active torsions:
REMARK  status: ('A' for Active; 'I' for Inactive)
REMARK    1  A    between atoms: C2_2  and  N1_3 
REMARK    2  A    between atoms: N1_3  and  C3_4 
REMARK    3  A    between atoms: N1_3  and  C5_6 
REMARK    4  A    between atoms: C5_6  and  C6_7 
REMARK    5  A    between atoms: C6_7  and  N2_8 
REMARK       I    between atoms: N2_8  and  C7_9 
REMARK    6  A    between atoms: C7_9  and  C8_11 
ROOT
HETATM    1  C8  UNL     1      23.728   1.793  52.785  1.00  0.00     0.047 C 
HETATM    2  C9  UNL     1      23.468   3.056  52.545  1.00  0.00     0.074 C 
HETATM    3  N3  UNL     1      23.943   4.328  52.152  1.00  0.00    -0.292 NA
HETATM    4  C10 UNL     1      23.379   3.815  50.868  1.00  0.00     0.194 C 
HETATM    5  C11 UNL     1      21.940   3.691  51.209  1.00  0.00     0.235 C 
HETATM    6  O2  UNL     1      20.883   3.853  51.854  1.00  0.00    -0.272 OA
HETATM    7  N4  UNL     1      21.038   2.978  50.548  1.00  0.00    -0.326 N 
HETATM    8  C12 UNL     1      19.862   2.373  50.150  1.00  0.00     0.031 C 
HETATM    9  C13 UNL     1      19.702   1.886  51.449  1.00  0.00     0.008 C 
HETATM   10  C14 UNL     1      19.674   0.368  51.596  1.00  0.00     0.017 C 
HETATM   11  C15 UNL     1      18.258   0.029  51.309  1.00  0.00     0.036 C 
HETATM   12  C16 UNL     1      17.794   1.057  50.275  1.00  0.00    -0.024 C 
HETATM   13  C17 UNL     1      18.689   1.815  49.597  1.00  0.00     0.025 C 
HETATM   14  C18 UNL     1      20.252  -0.061  52.917  1.00  0.00     0.036 C 
HETATM   15  C19 UNL     1      21.675   0.363  52.930  1.00  0.00    -0.018 C 
HETATM   16  C20 UNL     1      22.956   0.596  52.968  1.00  0.00    -0.049 C 
HETATM   17  C21 UNL     1      23.583  -0.651  53.352  1.00  0.00     0.049 C 
HETATM   18  H17 UNL     1      24.266   4.496  53.122  1.00  0.00     0.127 HD
HETATM   19  H20 UNL     1      21.368   2.487  49.654  1.00  0.00     0.169 HD
ENDROOT
BRANCH   1  20
HETATM   20  C7  UNL     1      25.113   1.836  52.526  1.00  0.00     0.253 C 
HETATM   21  N2  UNL     1      26.224   2.452  53.086  1.00  0.00    -0.355 N 
HETATM   22  H15 UNL     1      26.157   3.068  53.953  1.00  0.00     0.162 HD
HETATM   23  O1  UNL     1      25.796   1.274  51.629  1.00  0.00    -0.268 OA
BRANCH  21  24
HETATM   24  C6  UNL     1      27.556   2.311  52.568  1.00  0.00     0.142 C 
BRANCH  24  25
HETATM   25  C5  UNL     1      28.599   1.820  53.524  1.00  0.00     0.136 C 
BRANCH  25  26
HETATM   26  N1  UNL     1      28.364   0.475  53.935  1.00  0.00    -0.412 N 
BRANCH  26  27
HETATM   27  C2  UNL     1      28.520  -0.553  53.003  1.00  0.00     0.112 C 
HETATM   28  C1  UNL     1      29.632  -1.500  53.424  1.00  0.00     0.026 C 
ENDBRANCH  26  27
BRANCH  26  29
HETATM   29  C3  UNL     1      27.931   0.221  55.235  1.00  0.00     0.112 C 
HETATM   30  C4  UNL     1      26.454  -0.053  55.390  1.00  0.00     0.026 C 
ENDBRANCH  26  29
ENDBRANCH  25  26
ENDBRANCH  24  25
ENDBRANCH  21  24
ENDBRANCH   1  20
TORSDOF 6
ENDMDL
MODEL 4
REMARK VINA RESULT:      -7.5      4.958      6.737
REMARK  6 active torsions:
REMARK  status: ('A' for Active; 'I' for Inactive)
REMARK    1  A    between atoms: C2_2  and  N1_3 
REMARK    2  A    between atoms: N1_3  and  C3_4 
REMARK    3  A    between atoms: N1_3  and  C5_6 
REMARK    4  A    between atoms: C5_6  and  C6_7 
REMARK    5  A    between atoms: C6_7  and  N2_8 
REMARK       I    between atoms: N2_8  and  C7_9 
REMARK    6  A    between atoms: C7_9  and  C8_11 
ROOT
HETATM    1  C8  UNL     1      26.439   6.458  48.938  1.00  0.00     0.047 C 
HETATM    2  C9  UNL     1      26.400   7.750  48.714  1.00  0.00     0.074 C 
HETATM    3  N3  UNL     1      25.755   8.989  48.930  1.00  0.00    -0.292 NA
HETATM    4  C10 UNL     1      26.851   9.048  49.941  1.00  0.00     0.194 C 
HETATM    5  C11 UNL     1      28.054   9.039  49.070  1.00  0.00     0.235 C 
HETATM    6  O2  UNL     1      28.727   9.129  48.023  1.00  0.00    -0.272 OA
HETATM    7  N4  UNL     1      29.291   8.750  49.449  1.00  0.00    -0.326 N 
HETATM    8  C12 UNL     1      30.651   8.511  49.455  1.00  0.00     0.031 C 
HETATM    9  C13 UNL     1      30.478   7.634  48.382  1.00  0.00     0.008 C 
HETATM   10  C14 UNL     1      30.879   6.183  48.632  1.00  0.00     0.017 C 
HETATM   11  C15 UNL     1      32.340   6.190  48.372  1.00  0.00     0.036 C 
HETATM   12  C16 UNL     1      32.826   7.572  48.813  1.00  0.00    -0.024 C 
HETATM   13  C17 UNL     1      32.050   8.370  49.585  1.00  0.00     0.025 C 
HETATM   14  C18 UNL     1      30.022   5.238  47.835  1.00  0.00     0.036 C 
HETATM   15  C19 UNL     1      28.625   5.405  48.314  1.00  0.00    -0.018 C 
HETATM   16  C20 UNL     1      27.402   5.407  48.760  1.00  0.00    -0.049 C 
HETATM   17  C21 UNL     1      27.058   4.023  49.009  1.00  0.00     0.049 C 
HETATM   18  H17 UNL     1      25.080   8.757  48.178  1.00  0.00     0.127 HD
HETATM   19  H20 UNL     1      29.447   8.554  50.491  1.00  0.00     0.169 HD
ENDROOT
BRANCH   1  20
HETATM   20  C7  UNL     1      25.280   6.373  49.735  1.00  0.00     0.253 C 
HETATM   21  N2  UNL     1      24.978   6.010  51.040  1.00  0.00    -0.355 N 
HETATM   22  H15 UNL     1      25.729   5.711  51.735  1.00  0.00     0.162 HD
HETATM   23  O1  UNL     1      24.077   6.628  49.460  1.00  0.00    -0.268 OA
BRANCH  21  24
HETATM   24  C6  UNL     1      23.647   6.011  51.579  1.00  0.00     0.142 C 
BRANCH  24  25
HETATM   25  C5  UNL     1      23.223   4.783  52.322  1.00  0.00     0.136 C 
BRANCH  25  26
HETATM   26  N1  UNL     1      23.273   3.614  51.506  1.00  0.00    -0.412 N 
BRANCH  26  27
HETATM   27  C2  UNL     1      22.525   3.581  50.327  1.00  0.00     0.112 C 
HETATM   28  C1  UNL     1      23.382   3.125  49.157  1.00  0.00     0.026 C 
ENDBRANCH  26  27
BRANCH  26  29
HETATM   29  C3  UNL     1      24.016   2.514  51.929  1.00  0.00     0.112 C 
HETATM   30  C4  UNL     1      24.777   2.697  53.220  1.00  0.00     0.026 C 
ENDBRANCH  26  29
ENDBRANCH  25  26
ENDBRANCH  24  25
ENDBRANCH  21  24
ENDBRANCH   1  20
TORSDOF 6
ENDMDL
MODEL 5
REMARK VINA RESULT:      -7.2      1.721      2.536
REMARK  6 active torsions:
REMARK  status: ('A' for Active; 'I' for Inactive)
REMARK    1  A    between atoms: C2_2  and  N1_3 
REMARK    2  A    between atoms: N1_3  and  C3_4 
REMARK    3  A    between atoms: N1_3  and  C5_6 
REMARK    4  A    between atoms: C5_6  and  C6_7 
REMARK    5  A    between atoms: C6_7  and  N2_8 
REMARK       I    between atoms: N2_8  and  C7_9 
REMARK    6  A    between atoms: C7_9  and  C8_11 
ROOT
HETATM    1  C8  UNL     1      23.180   1.463  51.922  1.00  0.00     0.047 C 
HETATM    2  C9  UNL     1      23.784   2.121  50.961  1.00  0.00     0.074 C 
HETATM    3  N3  UNL     1      23.761   3.191  50.038  1.00  0.00    -0.292 NA
HETATM    4  C10 UNL     1      24.570   3.776  51.147  1.00  0.00     0.194 C 
HETATM    5  C11 UNL     1      25.759   2.886  51.142  1.00  0.00     0.235 C 
HETATM    6  O2  UNL     1      26.563   2.029  50.723  1.00  0.00    -0.272 OA
HETATM    7  N4  UNL     1      26.637   2.750  52.127  1.00  0.00    -0.326 N 
HETATM    8  C12 UNL     1      27.708   2.342  52.897  1.00  0.00     0.031 C 
HETATM    9  C13 UNL     1      27.332   1.016  52.675  1.00  0.00     0.008 C 
HETATM   10  C14 UNL     1      26.965   0.207  53.916  1.00  0.00     0.017 C 
HETATM   11  C15 UNL     1      28.283  -0.264  54.411  1.00  0.00     0.036 C 
HETATM   12  C16 UNL     1      29.272   0.848  54.058  1.00  0.00    -0.024 C 
HETATM   13  C17 UNL     1      28.837   2.081  53.705  1.00  0.00     0.025 C 
HETATM   14  C18 UNL     1      25.916  -0.824  53.602  1.00  0.00     0.036 C 
HETATM   15  C19 UNL     1      24.698  -0.091  53.170  1.00  0.00    -0.018 C 
HETATM   16  C20 UNL     1      23.560   0.480  52.898  1.00  0.00    -0.049 C 
HETATM   17  C21 UNL     1      22.577  -0.144  53.758  1.00  0.00     0.049 C 
HETATM   18  H17 UNL     1      23.193   2.610  49.394  1.00  0.00     0.127 HD
HETATM   19  H20 UNL     1      26.505   3.378  52.986  1.00  0.00     0.169 HD
ENDROOT
BRANCH   1  20
HETATM   20  C7  UNL     1      21.998   2.230  51.958  1.00  0.00     0.253 C 
HETATM   21  N2  UNL     1      20.768   2.217  51.313  1.00  0.00    -0.355 N 
HETATM   22  H15 UNL     1      20.514   1.477  50.589  1.00  0.00     0.162 HD
HETATM   23  O1  UNL     1      21.695   3.236  52.652  1.00  0.00    -0.268 OA
BRANCH  21  24
HETATM   24  C6  UNL     1      19.730   3.176  51.561  1.00  0.00     0.142 C 
BRANCH  24  25
HETATM   25  C5  UNL     1      19.163   3.877  50.366  1.00  0.00     0.136 C 
BRANCH  25  26
HETATM   26  N1  UNL     1      18.379   3.008  49.552  1.00  0.00    -0.412 N 
BRANCH  26  27
HETATM   27  C2  UNL     1      17.392   2.226  50.155  1.00  0.00     0.112 C 
HETATM   28  C1  UNL     1      17.650   0.747  49.911  1.00  0.00     0.026 C 
ENDBRANCH  26  27
BRANCH  26  29
HETATM   29  C3  UNL     1      18.650   2.916  48.188  1.00  0.00     0.112 C 
HETATM   30  C4  UNL     1      20.107   2.765  47.821  1.00  0.00     0.026 C 
ENDBRANCH  26  29
ENDBRANCH  25  26
ENDBRANCH  24  25
ENDBRANCH  21  24
ENDBRANCH   1  20
TORSDOF 6
ENDMDL
MODEL 6
REMARK VINA RESULT:      -7.0      3.479      6.700
REMARK  6 active torsions:
REMARK  status: ('A' for Active; 'I' for Inactive)
REMARK    1  A    between atoms: C2_2  and  N1_3 
REMARK    2  A    between atoms: N1_3  and  C3_4 
REMARK    3  A    between atoms: N1_3  and  C5_6 
REMARK    4  A    between atoms: C5_6  and  C6_7 
REMARK    5  A    between atoms: C6_7  and  N2_8 
REMARK       I    between atoms: N2_8  and  C7_9 
REMARK    6  A    between atoms: C7_9  and  C8_11 
ROOT
HETATM    1  C8  UNL     1      24.746   4.739  50.017  1.00  0.00     0.047 C 
HETATM    2  C9  UNL     1      23.913   5.753  50.027  1.00  0.00     0.074 C 
HETATM    3  N3  UNL     1      22.755   6.352  50.572  1.00  0.00    -0.292 NA
HETATM    4  C10 UNL     1      23.832   7.038  51.345  1.00  0.00     0.194 C 
HETATM    5  C11 UNL     1      24.546   7.769  50.267  1.00  0.00     0.235 C 
HETATM    6  O2  UNL     1      24.746   8.265  49.140  1.00  0.00    -0.272 OA
HETATM    7  N4  UNL     1      25.770   8.274  50.343  1.00  0.00    -0.326 N 
HETATM    8  C12 UNL     1      26.964   8.899  50.042  1.00  0.00     0.031 C 
HETATM    9  C13 UNL     1      27.058   8.114  48.891  1.00  0.00     0.008 C 
HETATM   10  C14 UNL     1      28.269   7.190  48.808  1.00  0.00     0.017 C 
HETATM   11  C15 UNL     1      29.332   8.077  48.273  1.00  0.00     0.036 C 
HETATM   12  C16 UNL     1      29.027   9.465  48.839  1.00  0.00    -0.024 C 
HETATM   13  C17 UNL     1      28.164   9.623  49.871  1.00  0.00     0.025 C 
HETATM   14  C18 UNL     1      27.943   5.935  48.046  1.00  0.00     0.036 C 
HETATM   15  C19 UNL     1      26.888   5.221  48.809  1.00  0.00    -0.018 C 
HETATM   16  C20 UNL     1      26.052   4.480  49.480  1.00  0.00    -0.049 C 
HETATM   17  C21 UNL     1      26.647   3.162  49.553  1.00  0.00     0.049 C 
HETATM   18  H17 UNL     1      22.172   5.776  49.939  1.00  0.00     0.127 HD
HETATM   19  H20 UNL     1      26.272   8.191  51.286  1.00  0.00     0.169 HD
ENDROOT
BRANCH   1  20
HETATM   20  C7  UNL     1      24.101   3.960  50.999  1.00  0.00     0.253 C 
HETATM   21  N2  UNL     1      23.064   3.038  51.034  1.00  0.00    -0.355 N 
HETATM   22  H15 UNL     1      22.542   2.736  50.154  1.00  0.00     0.162 HD
HETATM   23  O1  UNL     1      24.306   3.872  52.239  1.00  0.00    -0.268 OA
BRANCH  21  24
HETATM   24  C6  UNL     1      22.607   2.399  52.235  1.00  0.00     0.142 C 
BRANCH  24  25
HETATM   25  C5  UNL     1      22.221   0.957  52.124  1.00  0.00     0.136 C 
BRANCH  25  26
HETATM   26  N1  UNL     1      23.062   0.111  52.907  1.00  0.00    -0.412 N 
BRANCH  26  27
HETATM   27  C2  UNL     1      24.443   0.309  52.867  1.00  0.00     0.112 C 
HETATM   28  C1  UNL     1      25.112  -0.304  54.087  1.00  0.00     0.026 C 
ENDBRANCH  26  27
BRANCH  26  29
HETATM   29  C3  UNL     1      22.494  -0.924  53.646  1.00  0.00     0.112 C 
HETATM   30  C4  UNL     1      21.424  -0.516  54.629  1.00  0.00     0.026 C 
ENDBRANCH  26  29
ENDBRANCH  25  26
ENDBRANCH  24  25
ENDBRANCH  21  24
ENDBRANCH   1  20
TORSDOF 6
ENDMDL
MODEL 7
REMARK VINA RESULT:      -7.0      7.362      9.241
REMARK  6 active torsions:
REMARK  status: ('A' for Active; 'I' for Inactive)
REMARK    1  A    between atoms: C2_2  and  N1_3 
REMARK    2  A    between atoms: N1_3  and  C3_4 
REMARK    3  A    between atoms: N1_3  and  C5_6 
REMARK    4  A    between atoms: C5_6  and  C6_7 
REMARK    5  A    between atoms: C6_7  and  N2_8 
REMARK       I    between atoms: N2_8  and  C7_9 
REMARK    6  A    between atoms: C7_9  and  C8_11 
ROOT
HETATM    1  C8  UNL     1      30.971   7.827  47.749  1.00  0.00     0.047 C 
HETATM    2  C9  UNL     1      31.660   7.676  48.855  1.00  0.00     0.074 C 
HETATM    3  N3  UNL     1      31.669   7.617  50.267  1.00  0.00    -0.292 NA
HETATM    4  C10 UNL     1      31.638   6.168  49.913  1.00  0.00     0.194 C 
HETATM    5  C11 UNL     1      32.935   6.011  49.208  1.00  0.00     0.235 C 
HETATM    6  O2  UNL     1      34.087   6.297  48.823  1.00  0.00    -0.272 OA
HETATM    7  N4  UNL     1      33.271   5.012  48.403  1.00  0.00    -0.326 N 
HETATM    8  C12 UNL     1      33.958   4.186  47.535  1.00  0.00     0.031 C 
HETATM    9  C13 UNL     1      34.217   5.293  46.725  1.00  0.00     0.008 C 
HETATM   10  C14 UNL     1      33.653   5.233  45.308  1.00  0.00     0.017 C 
HETATM   11  C15 UNL     1      34.688   4.467  44.569  1.00  0.00     0.036 C 
HETATM   12  C16 UNL     1      35.263   3.476  45.582  1.00  0.00    -0.024 C 
HETATM   13  C17 UNL     1      34.623   3.221  46.748  1.00  0.00     0.025 C 
HETATM   14  C18 UNL     1      33.294   6.605  44.808  1.00  0.00     0.036 C 
HETATM   15  C19 UNL     1      32.222   7.127  45.694  1.00  0.00    -0.018 C 
HETATM   16  C20 UNL     1      31.202   7.603  46.349  1.00  0.00    -0.049 C 
HETATM   17  C21 UNL     1      30.234   8.009  45.353  1.00  0.00     0.049 C 
HETATM   18  H17 UNL     1      31.692   8.653  50.299  1.00  0.00     0.127 HD
HETATM   19  H20 UNL     1      32.560   4.217  48.292  1.00  0.00     0.169 HD
ENDROOT
BRANCH   1  20
HETATM   20  C7  UNL     1      29.710   8.034  48.342  1.00  0.00     0.253 C 
HETATM   21  N2  UNL     1      28.578   7.271  48.597  1.00  0.00    -0.355 N 
HETATM   22  H15 UNL     1      28.520   6.237  48.343  1.00  0.00     0.162 HD
HETATM   23  O1  UNL     1      29.208   9.067  48.858  1.00  0.00    -0.268 OA
BRANCH  21  24
HETATM   24  C6  UNL     1      27.397   7.787  49.228  1.00  0.00     0.142 C 
BRANCH  24  25
HETATM   25  C5  UNL     1      26.085   7.280  48.714  1.00  0.00     0.136 C 
BRANCH  25  26
HETATM   26  N1  UNL     1      25.435   6.421  49.648  1.00  0.00    -0.412 N 
BRANCH  26  27
HETATM   27  C2  UNL     1      24.915   6.969  50.822  1.00  0.00     0.112 C 
HETATM   28  C1  UNL     1      23.829   7.987  50.509  1.00  0.00     0.026 C 
ENDBRANCH  26  27
BRANCH  26  29
HETATM   29  C3  UNL     1      25.382   5.052  49.397  1.00  0.00     0.112 C 
HETATM   30  C4  UNL     1      26.715   4.346  49.336  1.00  0.00     0.026 C 
ENDBRANCH  26  29
ENDBRANCH  25  26
ENDBRANCH  24  25
ENDBRANCH  21  24
ENDBRANCH   1  20
TORSDOF 6
ENDMDL
MODEL 8
REMARK VINA RESULT:      -6.8      4.031      6.982
REMARK  6 active torsions:
REMARK  status: ('A' for Active; 'I' for Inactive)
REMARK    1  A    between atoms: C2_2  and  N1_3 
REMARK    2  A    between atoms: N1_3  and  C3_4 
REMARK    3  A    between atoms: N1_3  and  C5_6 
REMARK    4  A    between atoms: C5_6  and  C6_7 
REMARK    5  A    between atoms: C6_7  and  N2_8 
REMARK       I    between atoms: N2_8  and  C7_9 
REMARK    6  A    between atoms: C7_9  and  C8_11 
ROOT
HETATM    1  C8  UNL     1      25.179   5.711  50.407  1.00  0.00     0.047 C 
HETATM    2  C9  UNL     1      24.311   6.456  51.048  1.00  0.00     0.074 C 
HETATM    3  N3  UNL     1      23.800   7.747  51.315  1.00  0.00    -0.292 NA
HETATM    4  C10 UNL     1      22.841   7.260  50.281  1.00  0.00     0.194 C 
HETATM    5  C11 UNL     1      22.214   6.111  50.981  1.00  0.00     0.235 C 
HETATM    6  O2  UNL     1      21.898   5.364  51.929  1.00  0.00    -0.272 OA
HETATM    7  N4  UNL     1      21.531   5.126  50.411  1.00  0.00    -0.326 N 
HETATM    8  C12 UNL     1      20.801   3.974  50.197  1.00  0.00     0.031 C 
HETATM    9  C13 UNL     1      21.753   3.263  50.931  1.00  0.00     0.008 C 
HETATM   10  C14 UNL     1      22.492   2.160  50.180  1.00  0.00     0.017 C 
HETATM   11  C15 UNL     1      21.566   1.004  50.286  1.00  0.00     0.036 C 
HETATM   12  C16 UNL     1      20.160   1.606  50.282  1.00  0.00    -0.024 C 
HETATM   13  C17 UNL     1      19.952   2.888  49.894  1.00  0.00     0.025 C 
HETATM   14  C18 UNL     1      23.894   1.995  50.698  1.00  0.00     0.036 C 
HETATM   15  C19 UNL     1      24.610   3.270  50.436  1.00  0.00    -0.018 C 
HETATM   16  C20 UNL     1      25.335   4.309  50.135  1.00  0.00    -0.049 C 
HETATM   17  C21 UNL     1      26.520   3.798  49.477  1.00  0.00     0.049 C 
HETATM   18  H17 UNL     1      24.557   7.891  52.009  1.00  0.00     0.127 HD
HETATM   19  H20 UNL     1      21.375   5.193  49.353  1.00  0.00     0.169 HD
ENDROOT
BRANCH   1  20
HETATM   20  C7  UNL     1      25.861   6.749  49.741  1.00  0.00     0.253 C 
HETATM   21  N2  UNL     1      26.831   7.688  50.064  1.00  0.00    -0.355 N 
HETATM   22  H15 UNL     1      27.277   7.735  51.032  1.00  0.00     0.162 HD
HETATM   23  O1  UNL     1      25.772   7.155  48.552  1.00  0.00    -0.268 OA
BRANCH  21  24
HETATM   24  C6  UNL     1      27.333   8.664  49.139  1.00  0.00     0.142 C 
BRANCH  24  25
HETATM   25  C5  UNL     1      28.822   8.798  49.046  1.00  0.00     0.136 C 
BRANCH  25  26
HETATM   26  N1  UNL     1      29.320   8.414  47.766  1.00  0.00    -0.412 N 
BRANCH  26  27
HETATM   27  C2  UNL     1      28.947   7.175  47.241  1.00  0.00     0.112 C 
HETATM   28  C1  UNL     1      29.486   6.040  48.097  1.00  0.00     0.026 C 
ENDBRANCH  26  27
BRANCH  26  29
HETATM   29  C3  UNL     1      30.207   9.253  47.097  1.00  0.00     0.112 C 
HETATM   30  C4  UNL     1      31.672   8.999  47.360  1.00  0.00     0.026 C 
ENDBRANCH  26  29
ENDBRANCH  25  26
ENDBRANCH  24  25
ENDBRANCH  21  24
ENDBRANCH   1  20
TORSDOF 6
ENDMDL
MODEL 9
REMARK VINA RESULT:      -6.7      8.089      9.956
REMARK  6 active torsions:
REMARK  status: ('A' for Active; 'I' for Inactive)
REMARK    1  A    between atoms: C2_2  and  N1_3 
REMARK    2  A    between atoms: N1_3  and  C3_4 
REMARK    3  A    between atoms: N1_3  and  C5_6 
REMARK    4  A    between atoms: C5_6  and  C6_7 
REMARK    5  A    between atoms: C6_7  and  N2_8 
REMARK       I    between atoms: N2_8  and  C7_9 
REMARK    6  A    between atoms: C7_9  and  C8_11 
ROOT
HETATM    1  C8  UNL     1      32.079   8.738  48.364  1.00  0.00     0.047 C 
HETATM    2  C9  UNL     1      31.085   8.148  48.985  1.00  0.00     0.074 C 
HETATM    3  N3  UNL     1      29.727   8.173  49.375  1.00  0.00    -0.292 NA
HETATM    4  C10 UNL     1      29.666   7.317  48.154  1.00  0.00     0.194 C 
HETATM    5  C11 UNL     1      30.483   6.151  48.574  1.00  0.00     0.235 C 
HETATM    6  O2  UNL     1      31.094   5.379  49.341  1.00  0.00    -0.272 OA
HETATM    7  N4  UNL     1      31.027   5.247  47.769  1.00  0.00    -0.326 N 
HETATM    8  C12 UNL     1      31.729   4.164  47.279  1.00  0.00     0.031 C 
HETATM    9  C13 UNL     1      32.837   4.577  48.020  1.00  0.00     0.008 C 
HETATM   10  C14 UNL     1      34.087   4.926  47.217  1.00  0.00     0.017 C 
HETATM   11  C15 UNL     1      34.734   3.605  47.014  1.00  0.00     0.036 C 
HETATM   12  C16 UNL     1      33.585   2.601  46.906  1.00  0.00    -0.024 C 
HETATM   13  C17 UNL     1      32.313   3.018  46.696  1.00  0.00     0.025 C 
HETATM   14  C18 UNL     1      34.883   6.008  47.894  1.00  0.00     0.036 C 
HETATM   15  C19 UNL     1      34.026   7.221  47.936  1.00  0.00    -0.018 C 
HETATM   16  C20 UNL     1      33.383   8.353  47.903  1.00  0.00    -0.049 C 
HETATM   17  C21 UNL     1      34.301   9.324  47.346  1.00  0.00     0.049 C 
HETATM   18  H17 UNL     1      29.981   8.773  50.182  1.00  0.00     0.127 HD
HETATM   19  H20 UNL     1      30.814   5.339  46.722  1.00  0.00     0.169 HD
ENDROOT
BRANCH   1  20
HETATM   20  C7  UNL     1      31.387   9.901  47.969  1.00  0.00     0.253 C 
HETATM   21  N2  UNL     1      30.758  10.358  46.819  1.00  0.00    -0.355 N 
HETATM   22  H15 UNL     1      30.694   9.768  45.933  1.00  0.00     0.162 HD
HETATM   23  O1  UNL     1      31.119  10.951  48.610  1.00  0.00    -0.268 OA
BRANCH  21  24
HETATM   24  C6  UNL     1      30.131  11.645  46.714  1.00  0.00     0.142 C 
BRANCH  24  25
HETATM   25  C5  UNL     1      28.810  11.692  46.009  1.00  0.00     0.136 C 
BRANCH  25  26
HETATM   26  N1  UNL     1      27.803  10.957  46.701  1.00  0.00    -0.412 N 
BRANCH  26  27
HETATM   27  C2  UNL     1      27.642  11.159  48.073  1.00  0.00     0.112 C 
HETATM   28  C1  UNL     1      26.328  10.567  48.557  1.00  0.00     0.026 C 
ENDBRANCH  26  27
BRANCH  26  29
HETATM   29  C3  UNL     1      27.044  10.016  46.009  1.00  0.00     0.112 C 
HETATM   30  C4  UNL     1      27.824   8.914  45.335  1.00  0.00     0.026 C 
ENDBRANCH  26  29
ENDBRANCH  25  26
ENDBRANCH  24  25
ENDBRANCH  21  24
ENDBRANCH   1  20
TORSDOF 6
ENDMDL
