MODEL 1
REMARK VINA RESULT:      -8.5      0.000      0.000
REMARK  4 active torsions:
REMARK  status: ('A' for Active; 'I' for Inactive)
REMARK    1  A    between atoms: C2_2  and  C3_3 
REMARK    2  A    between atoms: N2_9  and  C8_10 
REMARK    3  A    between atoms: C16_18  and  N3_19 
REMARK       I    between atoms: N3_19  and  C17_20 
REMARK    4  A    between atoms: C17_20  and  C18_22 
ROOT
HETATM    1  C3  UNL     1      25.113   0.377  53.057  1.00  0.00    -0.031 A 
HETATM    2  C4  UNL     1      23.942   0.972  52.979  1.00  0.00     0.021 A 
HETATM    3  C5  UNL     1      23.808   2.288  52.381  1.00  0.00    -0.000 A 
HETATM    4  C6  UNL     1      22.754   3.014  52.095  1.00  0.00     0.090 C 
HETATM    5  N1  UNL     1      22.503   3.034  50.821  1.00  0.00    -0.267 NA
HETATM    6  C7  UNL     1      23.610   2.849  49.860  1.00  0.00     0.275 C 
HETATM    7  N2  UNL     1      24.772   3.438  50.549  1.00  0.00    -0.350 N 
HETATM    8  C14 UNL     1      24.995   3.089  51.936  1.00  0.00     0.147 A 
HETATM    9  C15 UNL     1      26.192   2.234  52.108  1.00  0.00     0.033 A 
HETATM   10  C16 UNL     1      26.331   1.021  52.598  1.00  0.00     0.039 A 
ENDROOT
BRANCH   7  11
HETATM   11  C8  UNL     1      25.652   4.323  49.872  1.00  0.00     0.032 A 
HETATM   12  C9  UNL     1      26.830   3.955  49.267  1.00  0.00     0.029 A 
HETATM   13  C10 UNL     1      27.663   4.831  48.604  1.00  0.00     0.002 A 
HETATM   14  C11 UNL     1      27.342   6.147  48.519  1.00  0.00     0.000 A 
HETATM   15  C12 UNL     1      26.164   6.578  49.112  1.00  0.00     0.002 A 
HETATM   16  C13 UNL     1      25.362   5.664  49.764  1.00  0.00     0.029 A 
ENDBRANCH   7  11
BRANCH  10  17
HETATM   17  N3  UNL     1      27.530   0.288  52.724  1.00  0.00    -0.327 N 
HETATM   18  C17 UNL     1      28.447   0.212  53.791  1.00  0.00     0.221 C 
HETATM   19  O1  UNL     1      28.219   0.874  54.817  1.00  0.00    -0.273 OA
HETATM   20  H16 UNL     1      27.855  -0.320  51.937  1.00  0.00     0.169 HD
BRANCH  18  21
HETATM   21  C18 UNL     1      29.681  -0.590  53.823  1.00  0.00     0.098 C 
HETATM   22  C19 UNL     1      29.396  -1.998  53.363  1.00  0.00     0.014 C 
ENDBRANCH  18  21
ENDBRANCH  10  17
BRANCH   1  23
HETATM   23  C2  UNL     1      25.141  -0.970  53.680  1.00  0.00     0.036 C 
HETATM   24  C1  UNL     1      24.930  -0.863  55.158  1.00  0.00     0.010 C 
ENDBRANCH   1  23
TORSDOF 4
ENDMDL
MODEL 2
REMARK VINA RESULT:      -7.9      2.918      6.546
REMARK  4 active torsions:
REMARK  status: ('A' for Active; 'I' for Inactive)
REMARK    1  A    between atoms: C2_2  and  C3_3 
REMARK    2  A    between atoms: N2_9  and  C8_10 
REMARK    3  A    between atoms: C16_18  and  N3_19 
REMARK       I    between atoms: N3_19  and  C17_20 
REMARK    4  A    between atoms: C17_20  and  C18_22 
ROOT
HETATM    1  C3  UNL     1      21.131   1.499  52.738  1.00  0.00    -0.031 A 
HETATM    2  C4  UNL     1      20.865   0.333  53.288  1.00  0.00     0.021 A 
HETATM    3  C5  UNL     1      21.913  -0.647  53.509  1.00  0.00    -0.000 A 
HETATM    4  C6  UNL     1      21.910  -1.803  54.129  1.00  0.00     0.090 C 
HETATM    5  N1  UNL     1      22.506  -1.743  55.281  1.00  0.00    -0.267 NA
HETATM    6  C7  UNL     1      23.571  -0.741  55.497  1.00  0.00     0.275 C 
HETATM    7  N2  UNL     1      24.188  -0.596  54.166  1.00  0.00    -0.350 N 
HETATM    8  C14 UNL     1      23.316  -0.442  53.021  1.00  0.00     0.147 A 
HETATM    9  C15 UNL     1      23.388   0.921  52.447  1.00  0.00     0.033 A 
HETATM   10  C16 UNL     1      22.466   1.845  52.283  1.00  0.00     0.039 A 
ENDROOT
BRANCH   7  11
HETATM   11  C8  UNL     1      25.599  -0.605  54.008  1.00  0.00     0.032 A 
HETATM   12  C9  UNL     1      26.278  -1.274  53.018  1.00  0.00     0.029 A 
HETATM   13  C10 UNL     1      27.650  -1.257  52.878  1.00  0.00     0.002 A 
HETATM   14  C11 UNL     1      28.417  -0.551  53.746  1.00  0.00     0.000 A 
HETATM   15  C12 UNL     1      27.786   0.145  54.767  1.00  0.00     0.002 A 
HETATM   16  C13 UNL     1      26.411   0.099  54.868  1.00  0.00     0.029 A 
ENDBRANCH   7  11
BRANCH  10  17
HETATM   17  N3  UNL     1      22.638   3.125  51.714  1.00  0.00    -0.327 N 
HETATM   18  C17 UNL     1      23.299   4.265  52.211  1.00  0.00     0.221 C 
HETATM   19  O1  UNL     1      23.840   4.197  53.327  1.00  0.00    -0.273 OA
HETATM   20  H16 UNL     1      22.235   3.335  50.770  1.00  0.00     0.169 HD
BRANCH  18  21
HETATM   21  C18 UNL     1      23.421   5.565  51.532  1.00  0.00     0.098 C 
HETATM   22  C19 UNL     1      22.054   6.102  51.189  1.00  0.00     0.014 C 
ENDBRANCH  18  21
ENDBRANCH  10  17
BRANCH   1  23
HETATM   23  C2  UNL     1      19.991   2.433  52.561  1.00  0.00     0.036 C 
HETATM   24  C1  UNL     1      18.964   1.832  51.652  1.00  0.00     0.010 C 
ENDBRANCH   1  23
TORSDOF 4
ENDMDL
MODEL 3
REMARK VINA RESULT:      -7.9      2.032      6.155
REMARK  4 active torsions:
REMARK  status: ('A' for Active; 'I' for Inactive)
REMARK    1  A    between atoms: C2_2  and  C3_3 
REMARK    2  A    between atoms: N2_9  and  C8_10 
REMARK    3  A    between atoms: C16_18  and  N3_19 
REMARK       I    between atoms: N3_19  and  C17_20 
REMARK    4  A    between atoms: C17_20  and  C18_22 
ROOT
HETATM    1  C3  UNL     1      23.180   2.597  52.285  1.00  0.00    -0.031 A 
HETATM    2  C4  UNL     1      22.708   1.448  52.720  1.00  0.00     0.021 A 
HETATM    3  C5  UNL     1      23.583   0.307  52.925  1.00  0.00    -0.000 A 
HETATM    4  C6  UNL     1      23.365  -0.877  53.446  1.00  0.00     0.090 C 
HETATM    5  N1  UNL     1      23.875  -0.991  54.635  1.00  0.00    -0.267 NA
HETATM    6  C7  UNL     1      25.056  -0.179  54.999  1.00  0.00     0.275 C 
HETATM    7  N2  UNL     1      25.785  -0.034  53.726  1.00  0.00    -0.350 N 
HETATM    8  C14 UNL     1      25.033   0.332  52.545  1.00  0.00     0.147 A 
HETATM    9  C15 UNL     1      25.345   1.707  52.091  1.00  0.00     0.033 A 
HETATM   10  C16 UNL     1      24.582   2.769  51.946  1.00  0.00     0.039 A 
ENDROOT
BRANCH   7  11
HETATM   11  C8  UNL     1      27.187  -0.243  53.658  1.00  0.00     0.032 A 
HETATM   12  C9  UNL     1      28.140   0.645  54.097  1.00  0.00     0.029 A 
HETATM   13  C10 UNL     1      29.498   0.413  54.032  1.00  0.00     0.002 A 
HETATM   14  C11 UNL     1      29.969  -0.747  53.510  1.00  0.00     0.000 A 
HETATM   15  C12 UNL     1      29.053  -1.683  53.050  1.00  0.00     0.002 A 
HETATM   16  C13 UNL     1      27.704  -1.407  53.136  1.00  0.00     0.029 A 
ENDBRANCH   7  11
BRANCH  10  17
HETATM   17  N3  UNL     1      24.980   4.046  51.496  1.00  0.00    -0.327 N 
HETATM   18  C17 UNL     1      25.273   4.508  50.199  1.00  0.00     0.221 C 
HETATM   19  O1  UNL     1      25.184   3.709  49.251  1.00  0.00    -0.273 OA
HETATM   20  H16 UNL     1      25.098   4.827  52.183  1.00  0.00     0.169 HD
BRANCH  18  21
HETATM   21  C18 UNL     1      25.685   5.873  49.833  1.00  0.00     0.098 C 
HETATM   22  C19 UNL     1      24.940   6.881  50.672  1.00  0.00     0.014 C 
ENDBRANCH  18  21
ENDBRANCH  10  17
BRANCH   1  23
HETATM   23  C2  UNL     1      22.205   3.702  52.114  1.00  0.00     0.036 C 
HETATM   24  C1  UNL     1      20.814   3.210  52.366  1.00  0.00     0.010 C 
ENDBRANCH   1  23
TORSDOF 4
ENDMDL
MODEL 4
REMARK VINA RESULT:      -7.8      1.457      1.995
REMARK  4 active torsions:
REMARK  status: ('A' for Active; 'I' for Inactive)
REMARK    1  A    between atoms: C2_2  and  C3_3 
REMARK    2  A    between atoms: N2_9  and  C8_10 
REMARK    3  A    between atoms: C16_18  and  N3_19 
REMARK       I    between atoms: N3_19  and  C17_20 
REMARK    4  A    between atoms: C17_20  and  C18_22 
ROOT
HETATM    1  C3  UNL     1      23.562   0.640  53.247  1.00  0.00    -0.031 A 
HETATM    2  C4  UNL     1      22.397   1.102  52.844  1.00  0.00     0.021 A 
HETATM    3  C5  UNL     1      22.285   2.406  52.214  1.00  0.00    -0.000 A 
HETATM    4  C6  UNL     1      21.274   3.014  51.641  1.00  0.00     0.090 C 
HETATM    5  N1  UNL     1      21.379   3.028  50.348  1.00  0.00    -0.267 NA
HETATM    6  C7  UNL     1      22.720   2.984  49.727  1.00  0.00     0.275 C 
HETATM    7  N2  UNL     1      23.576   3.687  50.699  1.00  0.00    -0.350 N 
HETATM    8  C14 UNL     1      23.451   3.341  52.098  1.00  0.00     0.147 A 
HETATM    9  C15 UNL     1      24.644   2.623  52.602  1.00  0.00     0.033 A 
HETATM   10  C16 UNL     1      24.779   1.424  53.128  1.00  0.00     0.039 A 
ENDROOT
BRANCH   7  11
HETATM   11  C8  UNL     1      24.502   4.677  50.275  1.00  0.00     0.032 A 
HETATM   12  C9  UNL     1      24.487   5.993  50.672  1.00  0.00     0.029 A 
HETATM   13  C10 UNL     1      25.406   6.933  50.257  1.00  0.00     0.002 A 
HETATM   14  C11 UNL     1      26.403   6.586  49.404  1.00  0.00     0.000 A 
HETATM   15  C12 UNL     1      26.469   5.270  48.969  1.00  0.00     0.002 A 
HETATM   16  C13 UNL     1      25.527   4.363  49.411  1.00  0.00     0.029 A 
ENDBRANCH   7  11
BRANCH  10  17
HETATM   17  N3  UNL     1      25.973   0.828  53.586  1.00  0.00    -0.327 N 
HETATM   18  C17 UNL     1      26.923   0.042  52.905  1.00  0.00     0.221 C 
HETATM   19  O1  UNL     1      26.737  -0.200  51.700  1.00  0.00    -0.273 OA
HETATM   20  H16 UNL     1      26.264   0.945  54.585  1.00  0.00     0.169 HD
BRANCH  18  21
HETATM   21  C18 UNL     1      28.146  -0.539  53.480  1.00  0.00     0.098 C 
HETATM   22  C19 UNL     1      28.459   0.117  54.803  1.00  0.00     0.014 C 
ENDBRANCH  18  21
ENDBRANCH  10  17
BRANCH   1  23
HETATM   23  C2  UNL     1      23.570  -0.705  53.872  1.00  0.00     0.036 C 
HETATM   24  C1  UNL     1      22.361  -0.884  54.735  1.00  0.00     0.010 C 
ENDBRANCH   1  23
TORSDOF 4
ENDMDL
MODEL 5
REMARK VINA RESULT:      -7.8      2.155      2.835
REMARK  4 active torsions:
REMARK  status: ('A' for Active; 'I' for Inactive)
REMARK    1  A    between atoms: C2_2  and  C3_3 
REMARK    2  A    between atoms: N2_9  and  C8_10 
REMARK    3  A    between atoms: C16_18  and  N3_19 
REMARK       I    between atoms: N3_19  and  C17_20 
REMARK    4  A    between atoms: C17_20  and  C18_22 
ROOT
HETATM    1  C3  UNL     1      24.653   0.462  53.331  1.00  0.00    -0.031 A 
HETATM    2  C4  UNL     1      23.454   0.159  52.882  1.00  0.00     0.021 A 
HETATM    3  C5  UNL     1      22.550   1.190  52.403  1.00  0.00    -0.000 A 
HETATM    4  C6  UNL     1      21.379   1.121  51.818  1.00  0.00     0.090 C 
HETATM    5  N1  UNL     1      21.448   1.389  50.549  1.00  0.00    -0.267 NA
HETATM    6  C7  UNL     1      22.521   2.277  50.053  1.00  0.00     0.275 C 
HETATM    7  N2  UNL     1      22.754   3.204  51.175  1.00  0.00    -0.350 N 
HETATM    8  C14 UNL     1      22.876   2.650  52.506  1.00  0.00     0.147 A 
HETATM    9  C15 UNL     1      24.258   2.757  53.028  1.00  0.00     0.033 A 
HETATM   10  C16 UNL     1      25.114   1.837  53.418  1.00  0.00     0.039 A 
ENDROOT
BRANCH   7  11
HETATM   11  C8  UNL     1      22.858   4.603  50.958  1.00  0.00     0.032 A 
HETATM   12  C9  UNL     1      23.979   5.247  50.489  1.00  0.00     0.029 A 
HETATM   13  C10 UNL     1      24.052   6.607  50.274  1.00  0.00     0.002 A 
HETATM   14  C11 UNL     1      22.979   7.399  50.527  1.00  0.00     0.000 A 
HETATM   15  C12 UNL     1      21.819   6.803  51.002  1.00  0.00     0.002 A 
HETATM   16  C13 UNL     1      21.792   5.438  51.202  1.00  0.00     0.029 A 
ENDBRANCH   7  11
BRANCH  10  17
HETATM   17  N3  UNL     1      26.420   2.045  53.909  1.00  0.00    -0.327 N 
HETATM   18  C17 UNL     1      27.630   2.269  53.223  1.00  0.00     0.221 C 
HETATM   19  O1  UNL     1      27.610   2.300  51.981  1.00  0.00    -0.273 OA
HETATM   20  H16 UNL     1      26.595   2.047  54.941  1.00  0.00     0.169 HD
BRANCH  18  21
HETATM   21  C18 UNL     1      28.952   2.476  53.835  1.00  0.00     0.098 C 
HETATM   22  C19 UNL     1      29.432   1.198  54.477  1.00  0.00     0.014 C 
ENDBRANCH  18  21
ENDBRANCH  10  17
BRANCH   1  23
HETATM   23  C2  UNL     1      25.502  -0.665  53.791  1.00  0.00     0.036 C 
HETATM   24  C1  UNL     1      26.322  -1.194  52.656  1.00  0.00     0.010 C 
ENDBRANCH   1  23
TORSDOF 4
ENDMDL
MODEL 6
REMARK VINA RESULT:      -7.7      2.918      5.554
REMARK  4 active torsions:
REMARK  status: ('A' for Active; 'I' for Inactive)
REMARK    1  A    between atoms: C2_2  and  C3_3 
REMARK    2  A    between atoms: N2_9  and  C8_10 
REMARK    3  A    between atoms: C16_18  and  N3_19 
REMARK       I    between atoms: N3_19  and  C17_20 
REMARK    4  A    between atoms: C17_20  and  C18_22 
ROOT
HETATM    1  C3  UNL     1      22.044   0.099  53.343  1.00  0.00    -0.031 A 
HETATM    2  C4  UNL     1      23.232  -0.240  53.797  1.00  0.00     0.021 A 
HETATM    3  C5  UNL     1      24.444   0.261  53.172  1.00  0.00    -0.000 A 
HETATM    4  C6  UNL     1      25.707   0.156  53.509  1.00  0.00     0.090 C 
HETATM    5  N1  UNL     1      26.178   1.264  53.996  1.00  0.00    -0.267 NA
HETATM    6  C7  UNL     1      25.583   2.551  53.581  1.00  0.00     0.275 C 
HETATM    7  N2  UNL     1      25.145   2.301  52.196  1.00  0.00    -0.350 N 
HETATM    8  C14 UNL     1      24.417   1.082  51.918  1.00  0.00     0.147 A 
HETATM    9  C15 UNL     1      22.996   1.344  51.594  1.00  0.00     0.033 A 
HETATM   10  C16 UNL     1      21.884   0.945  52.174  1.00  0.00     0.039 A 
ENDROOT
BRANCH   7  11
HETATM   11  C8  UNL     1      25.425   3.232  51.161  1.00  0.00     0.032 A 
HETATM   12  C9  UNL     1      24.688   4.361  50.894  1.00  0.00     0.029 A 
HETATM   13  C10 UNL     1      24.988   5.257  49.890  1.00  0.00     0.002 A 
HETATM   14  C11 UNL     1      26.065   5.055  49.091  1.00  0.00     0.000 A 
HETATM   15  C12 UNL     1      26.848   3.930  49.313  1.00  0.00     0.002 A 
HETATM   16  C13 UNL     1      26.509   3.060  50.330  1.00  0.00     0.029 A 
ENDBRANCH   7  11
BRANCH  10  17
HETATM   17  N3  UNL     1      20.564   1.250  51.779  1.00  0.00    -0.327 N 
HETATM   18  C17 UNL     1      19.761   2.372  52.063  1.00  0.00     0.221 C 
HETATM   19  O1  UNL     1      20.236   3.277  52.770  1.00  0.00    -0.273 OA
HETATM   20  H16 UNL     1      20.031   0.579  51.177  1.00  0.00     0.169 HD
BRANCH  18  21
HETATM   21  C18 UNL     1      18.382   2.596  51.599  1.00  0.00     0.098 C 
HETATM   22  C19 UNL     1      18.227   4.010  51.099  1.00  0.00     0.014 C 
ENDBRANCH  18  21
ENDBRANCH  10  17
BRANCH   1  23
HETATM   23  C2  UNL     1      20.869  -0.461  54.056  1.00  0.00     0.036 C 
HETATM   24  C1  UNL     1      21.129  -1.882  54.448  1.00  0.00     0.010 C 
ENDBRANCH   1  23
TORSDOF 4
ENDMDL
MODEL 7
REMARK VINA RESULT:      -7.5      1.972      5.650
REMARK  4 active torsions:
REMARK  status: ('A' for Active; 'I' for Inactive)
REMARK    1  A    between atoms: C2_2  and  C3_3 
REMARK    2  A    between atoms: N2_9  and  C8_10 
REMARK    3  A    between atoms: C16_18  and  N3_19 
REMARK       I    between atoms: N3_19  and  C17_20 
REMARK    4  A    between atoms: C17_20  and  C18_22 
ROOT
HETATM    1  C3  UNL     1      25.317   3.416  50.284  1.00  0.00    -0.031 A 
HETATM    2  C4  UNL     1      24.144   3.516  49.695  1.00  0.00     0.021 A 
HETATM    3  C5  UNL     1      23.063   2.601  50.017  1.00  0.00    -0.000 A 
HETATM    4  C6  UNL     1      21.803   2.576  49.653  1.00  0.00     0.090 C 
HETATM    5  N1  UNL     1      21.010   2.953  50.608  1.00  0.00    -0.267 NA
HETATM    6  C7  UNL     1      21.423   2.759  52.015  1.00  0.00     0.275 C 
HETATM    7  N2  UNL     1      22.249   1.539  51.970  1.00  0.00    -0.350 N 
HETATM    8  C14 UNL     1      23.253   1.430  50.933  1.00  0.00     0.147 A 
HETATM    9  C15 UNL     1      24.627   1.515  51.479  1.00  0.00     0.033 A 
HETATM   10  C16 UNL     1      25.604   2.363  51.243  1.00  0.00     0.039 A 
ENDROOT
BRANCH   7  11
HETATM   11  C8  UNL     1      22.068   0.498  52.918  1.00  0.00     0.032 A 
HETATM   12  C9  UNL     1      23.044   0.021  53.761  1.00  0.00     0.029 A 
HETATM   13  C10 UNL     1      22.841  -0.983  54.684  1.00  0.00     0.002 A 
HETATM   14  C11 UNL     1      21.621  -1.566  54.804  1.00  0.00     0.000 A 
HETATM   15  C12 UNL     1      20.597  -1.125  53.978  1.00  0.00     0.002 A 
HETATM   16  C13 UNL     1      20.846  -0.117  53.069  1.00  0.00     0.029 A 
ENDBRANCH   7  11
BRANCH  10  17
HETATM   17  N3  UNL     1      26.893   2.355  51.818  1.00  0.00    -0.327 N 
HETATM   18  C17 UNL     1      27.291   2.338  53.169  1.00  0.00     0.221 C 
HETATM   19  O1  UNL     1      26.411   2.327  54.046  1.00  0.00    -0.273 OA
HETATM   20  H16 UNL     1      27.740   2.363  51.202  1.00  0.00     0.169 HD
BRANCH  18  21
HETATM   21  C18 UNL     1      28.675   2.332  53.669  1.00  0.00     0.098 C 
HETATM   22  C19 UNL     1      29.123   0.916  53.937  1.00  0.00     0.014 C 
ENDBRANCH  18  21
ENDBRANCH  10  17
BRANCH   1  23
HETATM   23  C2  UNL     1      26.352   4.403  49.890  1.00  0.00     0.036 C 
HETATM   24  C1  UNL     1      25.709   5.654  49.379  1.00  0.00     0.010 C 
ENDBRANCH   1  23
TORSDOF 4
ENDMDL
MODEL 8
REMARK VINA RESULT:      -7.3      1.589      2.351
REMARK  4 active torsions:
REMARK  status: ('A' for Active; 'I' for Inactive)
REMARK    1  A    between atoms: C2_2  and  C3_3 
REMARK    2  A    between atoms: N2_9  and  C8_10 
REMARK    3  A    between atoms: C16_18  and  N3_19 
REMARK       I    between atoms: N3_19  and  C17_20 
REMARK    4  A    between atoms: C17_20  and  C18_22 
ROOT
HETATM    1  C3  UNL     1      22.959   2.027  52.252  1.00  0.00    -0.031 A 
HETATM    2  C4  UNL     1      22.118   2.943  51.820  1.00  0.00     0.021 A 
HETATM    3  C5  UNL     1      22.593   4.139  51.148  1.00  0.00    -0.000 A 
HETATM    4  C6  UNL     1      21.954   5.113  50.544  1.00  0.00     0.090 C 
HETATM    5  N1  UNL     1      22.050   5.034  49.252  1.00  0.00    -0.267 NA
HETATM    6  C7  UNL     1      23.232   4.381  48.650  1.00  0.00     0.275 C 
HETATM    7  N2  UNL     1      24.314   4.666  49.610  1.00  0.00    -0.350 N 
HETATM    8  C14 UNL     1      24.052   4.458  51.018  1.00  0.00     0.147 A 
HETATM    9  C15 UNL     1      24.805   3.304  51.559  1.00  0.00     0.033 A 
HETATM   10  C16 UNL     1      24.397   2.188  52.124  1.00  0.00     0.039 A 
ENDROOT
BRANCH   7  11
HETATM   11  C8  UNL     1      25.581   5.128  49.167  1.00  0.00     0.032 A 
HETATM   12  C9  UNL     1      26.713   4.354  49.069  1.00  0.00     0.029 A 
HETATM   13  C10 UNL     1      27.931   4.824  48.624  1.00  0.00     0.002 A 
HETATM   14  C11 UNL     1      28.069   6.121  48.250  1.00  0.00     0.000 A 
HETATM   15  C12 UNL     1      26.959   6.951  48.328  1.00  0.00     0.002 A 
HETATM   16  C13 UNL     1      25.761   6.436  48.780  1.00  0.00     0.029 A 
ENDBRANCH   7  11
BRANCH  10  17
HETATM   17  N3  UNL     1      25.205   1.140  52.617  1.00  0.00    -0.327 N 
HETATM   18  C17 UNL     1      26.109   1.114  53.696  1.00  0.00     0.221 C 
HETATM   19  O1  UNL     1      26.266   2.150  54.364  1.00  0.00    -0.273 OA
HETATM   20  H16 UNL     1      25.181   0.201  52.154  1.00  0.00     0.169 HD
BRANCH  18  21
HETATM   21  C18 UNL     1      26.912  -0.041  54.131  1.00  0.00     0.098 C 
HETATM   22  C19 UNL     1      28.138  -0.176  53.263  1.00  0.00     0.014 C 
ENDBRANCH  18  21
ENDBRANCH  10  17
BRANCH   1  23
HETATM   23  C2  UNL     1      22.373   0.839  52.920  1.00  0.00     0.036 C 
HETATM   24  C1  UNL     1      20.928   1.078  53.229  1.00  0.00     0.010 C 
ENDBRANCH   1  23
TORSDOF 4
ENDMDL
MODEL 9
REMARK VINA RESULT:      -7.2      2.328      5.511
REMARK  4 active torsions:
REMARK  status: ('A' for Active; 'I' for Inactive)
REMARK    1  A    between atoms: C2_2  and  C3_3 
REMARK    2  A    between atoms: N2_9  and  C8_10 
REMARK    3  A    between atoms: C16_18  and  N3_19 
REMARK       I    between atoms: N3_19  and  C17_20 
REMARK    4  A    between atoms: C17_20  and  C18_22 
ROOT
HETATM    1  C3  UNL     1      22.297   2.513  51.691  1.00  0.00    -0.031 A 
HETATM    2  C4  UNL     1      22.967   3.417  51.008  1.00  0.00     0.021 A 
HETATM    3  C5  UNL     1      24.381   3.645  51.252  1.00  0.00    -0.000 A 
HETATM    4  C6  UNL     1      25.263   4.393  50.634  1.00  0.00     0.090 C 
HETATM    5  N1  UNL     1      26.082   3.690  49.912  1.00  0.00    -0.267 NA
HETATM    6  C7  UNL     1      26.371   2.292  50.295  1.00  0.00     0.275 C 
HETATM    7  N2  UNL     1      26.263   2.304  51.765  1.00  0.00    -0.350 N 
HETATM    8  C14 UNL     1      25.121   2.962  52.362  1.00  0.00     0.147 A 
HETATM    9  C15 UNL     1      24.187   1.997  52.986  1.00  0.00     0.033 A 
HETATM   10  C16 UNL     1      22.919   1.736  52.748  1.00  0.00     0.039 A 
ENDROOT
BRANCH   7  11
HETATM   11  C8  UNL     1      27.251   1.684  52.575  1.00  0.00     0.032 A 
HETATM   12  C9  UNL     1      28.155   2.353  53.366  1.00  0.00     0.029 A 
HETATM   13  C10 UNL     1      29.097   1.728  54.156  1.00  0.00     0.002 A 
HETATM   14  C11 UNL     1      29.176   0.374  54.185  1.00  0.00     0.000 A 
HETATM   15  C12 UNL     1      28.288  -0.354  53.406  1.00  0.00     0.002 A 
HETATM   16  C13 UNL     1      27.362   0.314  52.632  1.00  0.00     0.029 A 
ENDBRANCH   7  11
BRANCH  10  17
HETATM   17  N3  UNL     1      22.108   0.789  53.410  1.00  0.00    -0.327 N 
HETATM   18  C17 UNL     1      22.302  -0.589  53.625  1.00  0.00     0.221 C 
HETATM   19  O1  UNL     1      23.338  -1.118  53.187  1.00  0.00    -0.273 OA
HETATM   20  H16 UNL     1      21.199   1.087  53.834  1.00  0.00     0.169 HD
BRANCH  18  21
HETATM   21  C18 UNL     1      21.386  -1.497  54.334  1.00  0.00     0.098 C 
HETATM   22  C19 UNL     1      19.969  -1.271  53.868  1.00  0.00     0.014 C 
ENDBRANCH  18  21
ENDBRANCH  10  17
BRANCH   1  23
HETATM   23  C2  UNL     1      20.859   2.353  51.361  1.00  0.00     0.036 C 
HETATM   24  C1  UNL     1      20.499   3.205  50.184  1.00  0.00     0.010 C 
ENDBRANCH   1  23
TORSDOF 4
ENDMDL
