MODEL 1
REMARK VINA RESULT:      -8.3      0.000      0.000
REMARK  4 active torsions:
REMARK  status: ('A' for Active; 'I' for Inactive)
REMARK    1  A    between atoms: C1_2  and  O2_3 
REMARK    2  A    between atoms: C1_2  and  C2_4 
REMARK    3  A    between atoms: C2_4  and  C3_5 
REMARK    4  A    between atoms: C3_5  and  C4_6 
ROOT
HETATM    1  C4  UNL     1      22.240   1.182  52.294  1.00  0.00    -0.048 C 
HETATM    2  C5  UNL     1      23.305   1.685  52.953  1.00  0.00     0.014 C 
HETATM    3  C6  UNL     1      24.381   2.649  53.287  1.00  0.00     0.179 C 
HETATM    4  C7  UNL     1      24.173   3.978  52.653  1.00  0.00     0.025 C 
HETATM    5  C8  UNL     1      24.418   4.175  51.365  1.00  0.00     0.016 C 
HETATM    6  C9  UNL     1      23.487   4.994  50.550  1.00  0.00     0.169 C 
HETATM    7  O3  UNL     1      22.902   5.974  51.112  1.00  0.00    -0.292 OA
HETATM    8  C10 UNL     1      23.724   4.167  49.337  1.00  0.00     0.112 C 
HETATM    9  C11 UNL     1      25.236   4.176  49.329  1.00  0.00    -0.004 C 
HETATM   10  C12 UNL     1      25.540   3.667  50.541  1.00  0.00    -0.038 C 
HETATM   11  C13 UNL     1      26.698   2.844  50.945  1.00  0.00     0.150 C 
HETATM   12  C14 UNL     1      26.341   1.774  51.875  1.00  0.00     0.264 C 
HETATM   13  O4  UNL     1      26.794   0.665  51.482  1.00  0.00    -0.265 OA
HETATM   14  O5  UNL     1      25.603   2.068  52.995  1.00  0.00    -0.308 OA
HETATM   15  C15 UNL     1      23.186   2.768  49.679  1.00  0.00     0.289 C 
HETATM   16  N1  UNL     1      22.097   2.940  50.576  1.00  0.00     0.098 N 
HETATM   17  C16 UNL     1      21.044   3.610  49.796  1.00  0.00     0.273 C 
HETATM   18  C17 UNL     1      20.617   2.748  48.635  1.00  0.00     0.030 C 
HETATM   19  C18 UNL     1      20.449   1.310  48.917  1.00  0.00     0.004 C 
HETATM   20  C19 UNL     1      21.079   0.736  50.122  1.00  0.00     0.040 C 
HETATM   21  C20 UNL     1      21.488   1.773  51.115  1.00  0.00     0.252 C 
ENDROOT
BRANCH   1  22
HETATM   22  C3  UNL     1      21.569  -0.144  52.611  1.00  0.00     0.046 C 
BRANCH  22  23
HETATM   23  C2  UNL     1      22.535  -1.141  53.202  1.00  0.00     0.114 C 
BRANCH  23  24
HETATM   24  C1  UNL     1      21.954  -1.504  54.549  1.00  0.00     0.139 C 
HETATM   25  O1  UNL     1      22.639  -1.624  55.594  1.00  0.00    -0.650 OA
BRANCH  24  26
HETATM   26  O2  UNL     1      20.589  -1.753  54.827  1.00  0.00    -0.776 OA
HETATM   27  H1  UNL     1      19.991  -0.982  55.158  1.00  0.00     0.167 HD
ENDBRANCH  24  26
ENDBRANCH  23  24
ENDBRANCH  22  23
ENDBRANCH   1  22
TORSDOF 4
ENDMDL
MODEL 2
REMARK VINA RESULT:      -8.1      2.253      4.951
REMARK  4 active torsions:
REMARK  status: ('A' for Active; 'I' for Inactive)
REMARK    1  A    between atoms: C1_2  and  O2_3 
REMARK    2  A    between atoms: C1_2  and  C2_4 
REMARK    3  A    between atoms: C2_4  and  C3_5 
REMARK    4  A    between atoms: C3_5  and  C4_6 
ROOT
HETATM    1  C4  UNL     1      24.053   1.563  51.874  1.00  0.00    -0.048 C 
HETATM    2  C5  UNL     1      23.824   2.570  51.004  1.00  0.00     0.014 C 
HETATM    3  C6  UNL     1      23.042   3.579  50.249  1.00  0.00     0.179 C 
HETATM    4  C7  UNL     1      21.681   3.783  50.810  1.00  0.00     0.025 C 
HETATM    5  C8  UNL     1      20.711   2.903  50.608  1.00  0.00     0.016 C 
HETATM    6  C9  UNL     1      19.794   2.543  51.718  1.00  0.00     0.169 C 
HETATM    7  O3  UNL     1      19.494   3.445  52.564  1.00  0.00    -0.292 OA
HETATM    8  C10 UNL     1      19.663   1.143  51.237  1.00  0.00     0.112 C 
HETATM    9  C11 UNL     1      19.324   1.413  49.789  1.00  0.00    -0.004 C 
HETATM   10  C12 UNL     1      20.373   2.155  49.374  1.00  0.00    -0.038 C 
HETATM   11  C13 UNL     1      21.000   2.222  48.040  1.00  0.00     0.150 C 
HETATM   12  C14 UNL     1      22.458   2.301  48.098  1.00  0.00     0.264 C 
HETATM   13  O4  UNL     1      22.987   1.438  47.344  1.00  0.00    -0.265 OA
HETATM   14  O5  UNL     1      23.055   3.235  48.907  1.00  0.00    -0.308 OA
HETATM   15  C15 UNL     1      21.066   0.529  51.366  1.00  0.00     0.289 C 
HETATM   16  N1  UNL     1      21.701   1.151  52.475  1.00  0.00     0.098 N 
HETATM   17  C16 UNL     1      20.946   0.713  53.660  1.00  0.00     0.273 C 
HETATM   18  C17 UNL     1      21.017  -0.785  53.808  1.00  0.00     0.030 C 
HETATM   19  C18 UNL     1      22.336  -1.403  53.570  1.00  0.00     0.004 C 
HETATM   20  C19 UNL     1      23.360  -0.645  52.824  1.00  0.00     0.040 C 
HETATM   21  C20 UNL     1      23.057   0.814  52.741  1.00  0.00     0.252 C 
ENDROOT
BRANCH   1  22
HETATM   22  C3  UNL     1      25.414   0.947  52.151  1.00  0.00     0.046 C 
BRANCH  22  23
HETATM   23  C2  UNL     1      26.517   1.977  52.129  1.00  0.00     0.114 C 
BRANCH  23  24
HETATM   24  C1  UNL     1      26.975   2.095  53.565  1.00  0.00     0.139 C 
HETATM   25  O1  UNL     1      26.393   1.540  54.530  1.00  0.00    -0.650 OA
BRANCH  24  26
HETATM   26  O2  UNL     1      28.097   2.825  54.024  1.00  0.00    -0.776 OA
HETATM   27  H1  UNL     1      28.206   3.002  55.033  1.00  0.00     0.167 HD
ENDBRANCH  24  26
ENDBRANCH  23  24
ENDBRANCH  22  23
ENDBRANCH   1  22
TORSDOF 4
ENDMDL
MODEL 3
REMARK VINA RESULT:      -7.6      2.042      5.261
REMARK  4 active torsions:
REMARK  status: ('A' for Active; 'I' for Inactive)
REMARK    1  A    between atoms: C1_2  and  O2_3 
REMARK    2  A    between atoms: C1_2  and  C2_4 
REMARK    3  A    between atoms: C2_4  and  C3_5 
REMARK    4  A    between atoms: C3_5  and  C4_6 
ROOT
HETATM    1  C4  UNL     1      23.982   2.192  52.678  1.00  0.00    -0.048 C 
HETATM    2  C5  UNL     1      23.532   0.923  52.785  1.00  0.00     0.014 C 
HETATM    3  C6  UNL     1      22.704  -0.268  52.482  1.00  0.00     0.179 C 
HETATM    4  C7  UNL     1      21.970  -0.140  51.195  1.00  0.00     0.025 C 
HETATM    5  C8  UNL     1      20.888   0.619  51.090  1.00  0.00     0.016 C 
HETATM    6  C9  UNL     1      20.693   1.468  49.889  1.00  0.00     0.169 C 
HETATM    7  O3  UNL     1      21.119   1.033  48.772  1.00  0.00    -0.292 OA
HETATM    8  C10 UNL     1      20.016   2.532  50.676  1.00  0.00     0.112 C 
HETATM    9  C11 UNL     1      18.997   1.686  51.404  1.00  0.00    -0.004 C 
HETATM   10  C12 UNL     1      19.768   0.784  52.047  1.00  0.00    -0.038 C 
HETATM   11  C13 UNL     1      19.542   0.119  53.345  1.00  0.00     0.150 C 
HETATM   12  C14 UNL     1      20.761  -0.005  54.142  1.00  0.00     0.264 C 
HETATM   13  O4  UNL     1      20.578   0.423  55.315  1.00  0.00    -0.265 OA
HETATM   14  O5  UNL     1      21.893  -0.533  53.572  1.00  0.00    -0.308 OA
HETATM   15  C15 UNL     1      21.080   3.067  51.648  1.00  0.00     0.289 C 
HETATM   16  N1  UNL     1      22.341   2.946  51.004  1.00  0.00     0.098 N 
HETATM   17  C16 UNL     1      22.301   3.889  49.874  1.00  0.00     0.273 C 
HETATM   18  C17 UNL     1      22.115   5.300  50.371  1.00  0.00     0.030 C 
HETATM   19  C18 UNL     1      22.906   5.686  51.555  1.00  0.00     0.004 C 
HETATM   20  C19 UNL     1      23.477   4.628  52.412  1.00  0.00     0.040 C 
HETATM   21  C20 UNL     1      23.504   3.292  51.747  1.00  0.00     0.252 C 
ENDROOT
BRANCH   1  22
HETATM   22  C3  UNL     1      25.094   2.794  53.520  1.00  0.00     0.046 C 
BRANCH  22  23
HETATM   23  C2  UNL     1      26.145   1.774  53.883  1.00  0.00     0.114 C 
BRANCH  23  24
HETATM   24  C1  UNL     1      27.454   2.375  53.426  1.00  0.00     0.139 C 
HETATM   25  O1  UNL     1      28.431   2.579  54.187  1.00  0.00    -0.650 OA
BRANCH  24  26
HETATM   26  O2  UNL     1      27.766   2.786  52.108  1.00  0.00    -0.776 OA
HETATM   27  H1  UNL     1      27.990   2.074  51.397  1.00  0.00     0.167 HD
ENDBRANCH  24  26
ENDBRANCH  23  24
ENDBRANCH  22  23
ENDBRANCH   1  22
TORSDOF 4
ENDMDL
MODEL 4
REMARK VINA RESULT:      -7.5      2.885      6.692
REMARK  4 active torsions:
REMARK  status: ('A' for Active; 'I' for Inactive)
REMARK    1  A    between atoms: C1_2  and  O2_3 
REMARK    2  A    between atoms: C1_2  and  C2_4 
REMARK    3  A    between atoms: C2_4  and  C3_5 
REMARK    4  A    between atoms: C3_5  and  C4_6 
ROOT
HETATM    1  C4  UNL     1      25.385   4.475  49.522  1.00  0.00    -0.048 C 
HETATM    2  C5  UNL     1      24.295   5.049  48.969  1.00  0.00     0.014 C 
HETATM    3  C6  UNL     1      22.864   5.396  48.803  1.00  0.00     0.179 C 
HETATM    4  C7  UNL     1      22.054   5.071  50.007  1.00  0.00     0.025 C 
HETATM    5  C8  UNL     1      21.703   3.824  50.287  1.00  0.00     0.016 C 
HETATM    6  C9  UNL     1      21.761   3.335  51.687  1.00  0.00     0.169 C 
HETATM    7  O3  UNL     1      21.500   4.158  52.620  1.00  0.00    -0.292 OA
HETATM    8  C10 UNL     1      22.139   1.963  51.256  1.00  0.00     0.112 C 
HETATM    9  C11 UNL     1      21.062   1.726  50.222  1.00  0.00    -0.004 C 
HETATM   10  C12 UNL     1      21.243   2.756  49.368  1.00  0.00    -0.038 C 
HETATM   11  C13 UNL     1      21.016   2.812  47.911  1.00  0.00     0.150 C 
HETATM   12  C14 UNL     1      22.051   3.560  47.200  1.00  0.00     0.264 C 
HETATM   13  O4  UNL     1      22.501   2.895  46.228  1.00  0.00    -0.265 OA
HETATM   14  O5  UNL     1      22.399   4.815  47.635  1.00  0.00    -0.308 OA
HETATM   15  C15 UNL     1      23.517   2.105  50.590  1.00  0.00     0.289 C 
HETATM   16  N1  UNL     1      24.194   3.173  51.239  1.00  0.00     0.098 N 
HETATM   17  C16 UNL     1      24.444   2.707  52.613  1.00  0.00     0.273 C 
HETATM   18  C17 UNL     1      25.319   1.480  52.603  1.00  0.00     0.030 C 
HETATM   19  C18 UNL     1      26.462   1.499  51.670  1.00  0.00     0.004 C 
HETATM   20  C19 UNL     1      26.456   2.460  50.549  1.00  0.00     0.040 C 
HETATM   21  C20 UNL     1      25.465   3.562  50.732  1.00  0.00     0.252 C 
ENDROOT
BRANCH   1  22
HETATM   22  C3  UNL     1      26.805   4.627  49.003  1.00  0.00     0.046 C 
BRANCH  22  23
HETATM   23  C2  UNL     1      27.084   6.030  48.521  1.00  0.00     0.114 C 
BRANCH  23  24
HETATM   24  C1  UNL     1      28.578   6.080  48.296  1.00  0.00     0.139 C 
HETATM   25  O1  UNL     1      29.118   6.682  47.335  1.00  0.00    -0.650 OA
BRANCH  24  26
HETATM   26  O2  UNL     1      29.564   5.474  49.111  1.00  0.00    -0.776 OA
HETATM   27  H1  UNL     1      30.298   6.060  49.535  1.00  0.00     0.167 HD
ENDBRANCH  24  26
ENDBRANCH  23  24
ENDBRANCH  22  23
ENDBRANCH   1  22
TORSDOF 4
ENDMDL
MODEL 5
REMARK VINA RESULT:      -7.5      1.980      4.239
REMARK  4 active torsions:
REMARK  status: ('A' for Active; 'I' for Inactive)
REMARK    1  A    between atoms: C1_2  and  O2_3 
REMARK    2  A    between atoms: C1_2  and  C2_4 
REMARK    3  A    between atoms: C2_4  and  C3_5 
REMARK    4  A    between atoms: C3_5  and  C4_6 
ROOT
HETATM    1  C4  UNL     1      23.120   0.227  52.009  1.00  0.00    -0.048 C 
HETATM    2  C5  UNL     1      22.197   0.718  51.154  1.00  0.00     0.014 C 
HETATM    3  C6  UNL     1      21.612   1.633  50.145  1.00  0.00     0.179 C 
HETATM    4  C7  UNL     1      22.630   2.520  49.521  1.00  0.00     0.025 C 
HETATM    5  C8  UNL     1      23.120   3.569  50.166  1.00  0.00     0.016 C 
HETATM    6  C9  UNL     1      24.569   3.877  50.086  1.00  0.00     0.169 C 
HETATM    7  O3  UNL     1      25.178   3.619  48.999  1.00  0.00    -0.292 OA
HETATM    8  C10 UNL     1      24.598   4.397  51.478  1.00  0.00     0.112 C 
HETATM    9  C11 UNL     1      23.429   5.353  51.406  1.00  0.00    -0.004 C 
HETATM   10  C12 UNL     1      22.414   4.549  51.026  1.00  0.00    -0.038 C 
HETATM   11  C13 UNL     1      20.978   4.637  51.357  1.00  0.00     0.150 C 
HETATM   12  C14 UNL     1      20.372   3.332  51.619  1.00  0.00     0.264 C 
HETATM   13  O4  UNL     1      19.733   3.343  52.707  1.00  0.00    -0.265 OA
HETATM   14  O5  UNL     1      20.551   2.309  50.722  1.00  0.00    -0.308 OA
HETATM   15  C15 UNL     1      24.267   3.193  52.375  1.00  0.00     0.289 C 
HETATM   16  N1  UNL     1      24.771   2.032  51.730  1.00  0.00     0.098 N 
HETATM   17  C16 UNL     1      26.236   2.173  51.749  1.00  0.00     0.273 C 
HETATM   18  C17 UNL     1      26.743   2.228  53.168  1.00  0.00     0.030 C 
HETATM   19  C18 UNL     1      26.136   1.274  54.115  1.00  0.00     0.004 C 
HETATM   20  C19 UNL     1      24.843   0.648  53.774  1.00  0.00     0.040 C 
HETATM   21  C20 UNL     1      24.503   0.769  52.325  1.00  0.00     0.252 C 
ENDROOT
BRANCH   1  22
HETATM   22  C3  UNL     1      22.935  -1.011  52.871  1.00  0.00     0.046 C 
BRANCH  22  23
HETATM   23  C2  UNL     1      21.500  -1.189  53.304  1.00  0.00     0.114 C 
BRANCH  23  24
HETATM   24  C1  UNL     1      21.453  -0.688  54.729  1.00  0.00     0.139 C 
HETATM   25  O1  UNL     1      22.192  -1.125  55.646  1.00  0.00    -0.650 OA
BRANCH  24  26
HETATM   26  O2  UNL     1      20.596   0.321  55.229  1.00  0.00    -0.776 OA
HETATM   27  H1  UNL     1      19.676   0.466  54.788  1.00  0.00     0.167 HD
ENDBRANCH  24  26
ENDBRANCH  23  24
ENDBRANCH  22  23
ENDBRANCH   1  22
TORSDOF 4
ENDMDL
MODEL 6
REMARK VINA RESULT:      -7.3      2.196      4.805
REMARK  4 active torsions:
REMARK  status: ('A' for Active; 'I' for Inactive)
REMARK    1  A    between atoms: C1_2  and  O2_3 
REMARK    2  A    between atoms: C1_2  and  C2_4 
REMARK    3  A    between atoms: C2_4  and  C3_5 
REMARK    4  A    between atoms: C3_5  and  C4_6 
ROOT
HETATM    1  C4  UNL     1      20.902   0.975  50.758  1.00  0.00    -0.048 C 
HETATM    2  C5  UNL     1      21.572   1.911  50.052  1.00  0.00     0.014 C 
HETATM    3  C6  UNL     1      22.717   2.755  49.635  1.00  0.00     0.179 C 
HETATM    4  C7  UNL     1      24.014   2.262  50.170  1.00  0.00     0.025 C 
HETATM    5  C8  UNL     1      24.356   2.452  51.437  1.00  0.00     0.016 C 
HETATM    6  C9  UNL     1      25.014   1.362  52.198  1.00  0.00     0.169 C 
HETATM    7  O3  UNL     1      25.800   0.583  51.571  1.00  0.00    -0.292 OA
HETATM    8  C10 UNL     1      24.352   1.766  53.466  1.00  0.00     0.112 C 
HETATM    9  C11 UNL     1      24.686   3.240  53.458  1.00  0.00    -0.004 C 
HETATM   10  C12 UNL     1      24.164   3.653  52.284  1.00  0.00    -0.038 C 
HETATM   11  C13 UNL     1      23.582   4.963  51.930  1.00  0.00     0.150 C 
HETATM   12  C14 UNL     1      22.394   4.850  51.087  1.00  0.00     0.264 C 
HETATM   13  O4  UNL     1      21.441   5.529  51.557  1.00  0.00    -0.265 OA
HETATM   14  O5  UNL     1      22.437   4.072  49.956  1.00  0.00    -0.308 OA
HETATM   15  C15 UNL     1      22.848   1.544  53.236  1.00  0.00     0.289 C 
HETATM   16  N1  UNL     1      22.713   0.448  52.341  1.00  0.00     0.098 N 
HETATM   17  C16 UNL     1      23.198  -0.729  53.081  1.00  0.00     0.273 C 
HETATM   18  C17 UNL     1      22.354  -0.966  54.307  1.00  0.00     0.030 C 
HETATM   19  C18 UNL     1      20.896  -0.819  54.136  1.00  0.00     0.004 C 
HETATM   20  C19 UNL     1      20.382  -0.073  52.970  1.00  0.00     0.040 C 
HETATM   21  C20 UNL     1      21.405   0.107  51.898  1.00  0.00     0.252 C 
ENDROOT
BRANCH   1  22
HETATM   22  C3  UNL     1      19.443   0.607  50.549  1.00  0.00     0.046 C 
BRANCH  22  23
HETATM   23  C2  UNL     1      18.641   1.763  50.002  1.00  0.00     0.114 C 
BRANCH  23  24
HETATM   24  C1  UNL     1      18.198   2.546  51.216  1.00  0.00     0.139 C 
HETATM   25  O1  UNL     1      17.047   2.471  51.712  1.00  0.00    -0.650 OA
BRANCH  24  26
HETATM   26  O2  UNL     1      18.992   3.454  51.957  1.00  0.00    -0.776 OA
HETATM   27  H1  UNL     1      19.204   3.251  52.945  1.00  0.00     0.167 HD
ENDBRANCH  24  26
ENDBRANCH  23  24
ENDBRANCH  22  23
ENDBRANCH   1  22
TORSDOF 4
ENDMDL
MODEL 7
REMARK VINA RESULT:      -7.3      7.472     10.203
REMARK  4 active torsions:
REMARK  status: ('A' for Active; 'I' for Inactive)
REMARK    1  A    between atoms: C1_2  and  O2_3 
REMARK    2  A    between atoms: C1_2  and  C2_4 
REMARK    3  A    between atoms: C2_4  and  C3_5 
REMARK    4  A    between atoms: C3_5  and  C4_6 
ROOT
HETATM    1  C4  UNL     1      29.564   6.687  48.012  1.00  0.00    -0.048 C 
HETATM    2  C5  UNL     1      30.536   5.938  48.575  1.00  0.00     0.014 C 
HETATM    3  C6  UNL     1      31.913   5.502  48.905  1.00  0.00     0.179 C 
HETATM    4  C7  UNL     1      32.934   6.527  48.560  1.00  0.00     0.025 C 
HETATM    5  C8  UNL     1      33.315   6.728  47.306  1.00  0.00     0.016 C 
HETATM    6  C9  UNL     1      33.520   8.110  46.807  1.00  0.00     0.169 C 
HETATM    7  O3  UNL     1      33.967   8.980  47.620  1.00  0.00    -0.292 OA
HETATM    8  C10 UNL     1      33.046   7.753  45.444  1.00  0.00     0.112 C 
HETATM    9  C11 UNL     1      33.901   6.530  45.201  1.00  0.00    -0.004 C 
HETATM   10  C12 UNL     1      33.575   5.732  46.239  1.00  0.00    -0.038 C 
HETATM   11  C13 UNL     1      33.518   4.258  46.303  1.00  0.00     0.150 C 
HETATM   12  C14 UNL     1      32.377   3.764  47.071  1.00  0.00     0.264 C 
HETATM   13  O4  UNL     1      31.738   2.893  46.419  1.00  0.00    -0.265 OA
HETATM   14  O5  UNL     1      32.136   4.264  48.327  1.00  0.00    -0.308 OA
HETATM   15  C15 UNL     1      31.568   7.365  45.609  1.00  0.00     0.289 C 
HETATM   16  N1  UNL     1      31.044   8.137  46.680  1.00  0.00     0.098 N 
HETATM   17  C16 UNL     1      31.056   9.531  46.207  1.00  0.00     0.273 C 
HETATM   18  C17 UNL     1      30.178   9.684  44.992  1.00  0.00     0.030 C 
HETATM   19  C18 UNL     1      28.878   8.988  45.034  1.00  0.00     0.004 C 
HETATM   20  C19 UNL     1      28.681   7.892  46.003  1.00  0.00     0.040 C 
HETATM   21  C20 UNL     1      29.705   7.886  47.090  1.00  0.00     0.252 C 
ENDROOT
BRANCH   1  22
HETATM   22  C3  UNL     1      28.073   6.453  48.186  1.00  0.00     0.046 C 
BRANCH  22  23
HETATM   23  C2  UNL     1      27.767   5.027  48.577  1.00  0.00     0.114 C 
BRANCH  23  24
HETATM   24  C1  UNL     1      26.413   5.084  49.247  1.00  0.00     0.139 C 
HETATM   25  O1  UNL     1      25.418   5.674  48.759  1.00  0.00    -0.650 OA
BRANCH  24  26
HETATM   26  O2  UNL     1      26.073   4.496  50.489  1.00  0.00    -0.776 OA
HETATM   27  H1  UNL     1      26.766   4.490  51.252  1.00  0.00     0.167 HD
ENDBRANCH  24  26
ENDBRANCH  23  24
ENDBRANCH  22  23
ENDBRANCH   1  22
TORSDOF 4
ENDMDL
MODEL 8
REMARK VINA RESULT:      -7.3      6.883      9.982
REMARK  4 active torsions:
REMARK  status: ('A' for Active; 'I' for Inactive)
REMARK    1  A    between atoms: C1_2  and  O2_3 
REMARK    2  A    between atoms: C1_2  and  C2_4 
REMARK    3  A    between atoms: C2_4  and  C3_5 
REMARK    4  A    between atoms: C3_5  and  C4_6 
ROOT
HETATM    1  C4  UNL     1      28.757   6.528  47.827  1.00  0.00    -0.048 C 
HETATM    2  C5  UNL     1      27.952   7.535  47.427  1.00  0.00     0.014 C 
HETATM    3  C6  UNL     1      27.586   8.859  46.868  1.00  0.00     0.179 C 
HETATM    4  C7  UNL     1      28.719   9.513  46.161  1.00  0.00     0.025 C 
HETATM    5  C8  UNL     1      29.711  10.086  46.827  1.00  0.00     0.016 C 
HETATM    6  C9  UNL     1      31.111   9.912  46.367  1.00  0.00     0.169 C 
HETATM    7  O3  UNL     1      31.323   9.824  45.116  1.00  0.00    -0.292 OA
HETATM    8  C10 UNL     1      31.635   9.929  47.757  1.00  0.00     0.112 C 
HETATM    9  C11 UNL     1      30.960  11.186  48.257  1.00  0.00    -0.004 C 
HETATM   10  C12 UNL     1      29.653  10.920  48.051  1.00  0.00    -0.038 C 
HETATM   11  C13 UNL     1      28.476  11.363  48.824  1.00  0.00     0.150 C 
HETATM   12  C14 UNL     1      27.468  10.316  48.980  1.00  0.00     0.264 C 
HETATM   13  O4  UNL     1      27.129  10.194  50.189  1.00  0.00    -0.265 OA
HETATM   14  O5  UNL     1      27.030   9.627  47.877  1.00  0.00    -0.308 OA
HETATM   15  C15 UNL     1      31.045   8.683  48.436  1.00  0.00     0.289 C 
HETATM   16  N1  UNL     1      30.895   7.685  47.435  1.00  0.00     0.098 N 
HETATM   17  C16 UNL     1      32.262   7.326  47.026  1.00  0.00     0.273 C 
HETATM   18  C17 UNL     1      33.033   6.764  48.194  1.00  0.00     0.030 C 
HETATM   19  C18 UNL     1      32.307   5.815  49.059  1.00  0.00     0.004 C 
HETATM   20  C19 UNL     1      30.832   5.787  49.014  1.00  0.00     0.040 C 
HETATM   21  C20 UNL     1      30.274   6.460  47.804  1.00  0.00     0.252 C 
ENDROOT
BRANCH   1  22
HETATM   22  C3  UNL     1      28.276   5.215  48.421  1.00  0.00     0.046 C 
BRANCH  22  23
HETATM   23  C2  UNL     1      26.818   5.268  48.806  1.00  0.00     0.114 C 
BRANCH  23  24
HETATM   24  C1  UNL     1      26.577   4.012  49.612  1.00  0.00     0.139 C 
HETATM   25  O1  UNL     1      25.676   3.178  49.350  1.00  0.00    -0.650 OA
BRANCH  24  26
HETATM   26  O2  UNL     1      27.310   3.600  50.751  1.00  0.00    -0.776 OA
HETATM   27  H1  UNL     1      26.807   3.210  51.561  1.00  0.00     0.167 HD
ENDBRANCH  24  26
ENDBRANCH  23  24
ENDBRANCH  22  23
ENDBRANCH   1  22
TORSDOF 4
ENDMDL
MODEL 9
REMARK VINA RESULT:      -7.2      2.266      4.694
REMARK  4 active torsions:
REMARK  status: ('A' for Active; 'I' for Inactive)
REMARK    1  A    between atoms: C1_2  and  O2_3 
REMARK    2  A    between atoms: C1_2  and  C2_4 
REMARK    3  A    between atoms: C2_4  and  C3_5 
REMARK    4  A    between atoms: C3_5  and  C4_6 
ROOT
HETATM    1  C4  UNL     1      21.696   0.840  52.303  1.00  0.00    -0.048 C 
HETATM    2  C5  UNL     1      20.562   0.756  51.573  1.00  0.00     0.014 C 
HETATM    3  C6  UNL     1      19.665   0.939  50.408  1.00  0.00     0.179 C 
HETATM    4  C7  UNL     1      20.401   1.332  49.177  1.00  0.00     0.025 C 
HETATM    5  C8  UNL     1      20.851   2.567  49.005  1.00  0.00     0.016 C 
HETATM    6  C9  UNL     1      22.196   2.791  48.421  1.00  0.00     0.169 C 
HETATM    7  O3  UNL     1      22.611   1.972  47.540  1.00  0.00    -0.292 OA
HETATM    8  C10 UNL     1      22.421   4.004  49.250  1.00  0.00     0.112 C 
HETATM    9  C11 UNL     1      21.135   4.742  48.957  1.00  0.00    -0.004 C 
HETATM   10  C12 UNL     1      20.193   3.853  49.336  1.00  0.00    -0.038 C 
HETATM   11  C13 UNL     1      18.852   4.098  49.903  1.00  0.00     0.150 C 
HETATM   12  C14 UNL     1      18.505   3.161  50.970  1.00  0.00     0.264 C 
HETATM   13  O4  UNL     1      18.096   3.775  51.994  1.00  0.00    -0.265 OA
HETATM   14  O5  UNL     1      18.650   1.812  50.762  1.00  0.00    -0.308 OA
HETATM   15  C15 UNL     1      22.450   3.510  50.705  1.00  0.00     0.289 C 
HETATM   16  N1  UNL     1      22.981   2.192  50.695  1.00  0.00     0.098 N 
HETATM   17  C16 UNL     1      24.385   2.334  50.277  1.00  0.00     0.273 C 
HETATM   18  C17 UNL     1      25.147   3.182  51.264  1.00  0.00     0.030 C 
HETATM   19  C18 UNL     1      24.881   2.921  52.692  1.00  0.00     0.004 C 
HETATM   20  C19 UNL     1      23.651   2.199  53.072  1.00  0.00     0.040 C 
HETATM   21  C20 UNL     1      23.020   1.480  51.926  1.00  0.00     0.252 C 
ENDROOT
BRANCH   1  22
HETATM   22  C3  UNL     1      21.864   0.300  53.712  1.00  0.00     0.046 C 
BRANCH  22  23
HETATM   23  C2  UNL     1      22.259  -1.157  53.717  1.00  0.00     0.114 C 
BRANCH  23  24
HETATM   24  C1  UNL     1      23.323  -1.275  54.783  1.00  0.00     0.139 C 
HETATM   25  O1  UNL     1      24.490  -0.830  54.655  1.00  0.00    -0.650 OA
BRANCH  24  26
HETATM   26  O2  UNL     1      23.169  -1.885  56.051  1.00  0.00    -0.776 OA
HETATM   27  H1  UNL     1      22.899  -2.878  56.104  1.00  0.00     0.167 HD
ENDBRANCH  24  26
ENDBRANCH  23  24
ENDBRANCH  22  23
ENDBRANCH   1  22
TORSDOF 4
ENDMDL
