MODEL 1
REMARK VINA RESULT:      -8.3      0.000      0.000
REMARK  7 active torsions:
REMARK  status: ('A' for Active; 'I' for Inactive)
REMARK    1  A    between atoms: N1_2  and  C3_4 
REMARK    2  A    between atoms: C3_4  and  C4_5 
REMARK    3  A    between atoms: C5_6  and  C6_7 
REMARK       I    between atoms: C6_7  and  N2_9 
REMARK    4  A    between atoms: N2_9  and  C7_10 
REMARK    5  A    between atoms: C10_13  and  C11_15 
REMARK    6  A    between atoms: C19_24  and  O2_25 
REMARK    7  A    between atoms: O2_25  and  C20_26 
ROOT
HETATM    1  C7  UNL     1      26.175   2.546  51.263  1.00  0.00     0.069 A 
HETATM    2  C8  UNL     1      24.884   2.211  51.113  1.00  0.00     0.043 A 
HETATM    3  C9  UNL     1      24.169   1.410  52.096  1.00  0.00    -0.013 A 
HETATM    4  C10 UNL     1      22.942   1.089  51.746  1.00  0.00     0.133 C 
HETATM    5  F1  UNL     1      22.451   1.516  50.533  1.00  0.00    -0.205 F 
HETATM    6  C17 UNL     1      24.833   1.012  53.339  1.00  0.00     0.071 A 
HETATM    7  C18 UNL     1      26.273   1.455  53.362  1.00  0.00     0.017 A 
HETATM    8  C19 UNL     1      26.922   2.151  52.447  1.00  0.00     0.092 A 
ENDROOT
BRANCH   1   9
HETATM    9  N2  UNL     1      26.876   3.324  50.304  1.00  0.00    -0.321 N 
HETATM   10  C6  UNL     1      26.523   4.506  49.599  1.00  0.00     0.245 C 
HETATM   11  O1  UNL     1      25.452   5.157  49.677  1.00  0.00    -0.268 OA
HETATM   12  H11 UNL     1      27.831   2.891  50.124  1.00  0.00     0.169 HD
BRANCH  10  13
HETATM   13  C5  UNL     1      27.479   5.075  48.657  1.00  0.00     0.072 C 
HETATM   14  C4  UNL     1      27.395   6.371  48.448  1.00  0.00    -0.002 C 
BRANCH  14  15
HETATM   15  C3  UNL     1      28.284   7.118  47.523  1.00  0.00     0.143 C 
BRANCH  15  16
HETATM   16  N1  UNL     1      28.896   8.189  48.235  1.00  0.00    -0.418 N 
HETATM   17  C1  UNL     1      30.238   7.985  48.671  1.00  0.00     0.142 C 
HETATM   18  C2  UNL     1      28.041   8.853  49.189  1.00  0.00     0.142 C 
ENDBRANCH  15  16
ENDBRANCH  14  15
ENDBRANCH  10  13
ENDBRANCH   1   9
BRANCH   8  19
HETATM   19  O2  UNL     1      28.252   2.418  52.732  1.00  0.00    -0.349 OA
BRANCH  19  20
HETATM   20  C20 UNL     1      28.815   1.889  53.916  1.00  0.00     0.171 C 
HETATM   21  C21 UNL     1      29.562   0.590  53.613  1.00  0.00     0.034 C 
ENDBRANCH  19  20
ENDBRANCH   8  19
BRANCH   4  22
HETATM   22  C11 UNL     1      21.900   0.329  52.415  1.00  0.00     0.005 A 
HETATM   23  C12 UNL     1      22.183  -0.557  53.462  1.00  0.00     0.014 A 
HETATM   24  C13 UNL     1      21.249  -1.312  54.134  1.00  0.00     0.003 A 
HETATM   25  C14 UNL     1      19.917  -1.196  53.753  1.00  0.00     0.024 A 
HETATM   26  C15 UNL     1      19.575  -0.343  52.732  1.00  0.00     0.035 A 
HETATM   27 CL1  UNL     1      17.875  -0.203  52.257  1.00  0.00    -0.084 Cl
HETATM   28  C16 UNL     1      20.560   0.380  52.106  1.00  0.00     0.038 A 
ENDBRANCH   4  22
TORSDOF 7
ENDMDL
MODEL 2
REMARK VINA RESULT:      -8.3      5.248      8.765
REMARK  7 active torsions:
REMARK  status: ('A' for Active; 'I' for Inactive)
REMARK    1  A    between atoms: N1_2  and  C3_4 
REMARK    2  A    between atoms: C3_4  and  C4_5 
REMARK    3  A    between atoms: C5_6  and  C6_7 
REMARK       I    between atoms: C6_7  and  N2_9 
REMARK    4  A    between atoms: N2_9  and  C7_10 
REMARK    5  A    between atoms: C10_13  and  C11_15 
REMARK    6  A    between atoms: C19_24  and  O2_25 
REMARK    7  A    between atoms: O2_25  and  C20_26 
ROOT
HETATM    1  C7  UNL     1      21.715   0.866  52.461  1.00  0.00     0.069 A 
HETATM    2  C8  UNL     1      22.987   1.067  52.082  1.00  0.00     0.043 A 
HETATM    3  C9  UNL     1      24.113   0.490  52.801  1.00  0.00    -0.013 A 
HETATM    4  C10 UNL     1      25.293   0.868  52.356  1.00  0.00     0.133 C 
HETATM    5  F1  UNL     1      25.367   1.740  51.294  1.00  0.00    -0.205 F 
HETATM    6  C17 UNL     1      23.878  -0.410  53.931  1.00  0.00     0.071 A 
HETATM    7  C18 UNL     1      22.408  -0.534  54.240  1.00  0.00     0.017 A 
HETATM    8  C19 UNL     1      21.395   0.023  53.603  1.00  0.00     0.092 A 
ENDROOT
BRANCH   1   9
HETATM    9  N2  UNL     1      20.615   1.430  51.764  1.00  0.00    -0.321 N 
HETATM   10  C6  UNL     1      19.934   2.669  51.909  1.00  0.00     0.245 C 
HETATM   11  O1  UNL     1      20.174   3.588  52.730  1.00  0.00    -0.268 OA
HETATM   12  H11 UNL     1      20.286   0.755  51.012  1.00  0.00     0.169 HD
BRANCH  10  13
HETATM   13  C5  UNL     1      18.813   2.963  51.024  1.00  0.00     0.072 C 
HETATM   14  C4  UNL     1      17.722   3.425  51.595  1.00  0.00    -0.002 C 
BRANCH  14  15
HETATM   15  C3  UNL     1      16.485   3.777  50.852  1.00  0.00     0.143 C 
BRANCH  15  16
HETATM   16  N1  UNL     1      15.355   3.380  51.621  1.00  0.00    -0.418 N 
HETATM   17  C1  UNL     1      15.204   3.990  52.901  1.00  0.00     0.142 C 
HETATM   18  C2  UNL     1      15.055   1.969  51.581  1.00  0.00     0.142 C 
ENDBRANCH  15  16
ENDBRANCH  14  15
ENDBRANCH  10  13
ENDBRANCH   1   9
BRANCH   8  19
HETATM   19  O2  UNL     1      20.138  -0.267  54.109  1.00  0.00    -0.349 OA
BRANCH  19  20
HETATM   20  C20 UNL     1      19.449  -1.400  53.616  1.00  0.00     0.171 C 
HETATM   21  C21 UNL     1      18.178  -0.969  52.884  1.00  0.00     0.034 C 
ENDBRANCH  19  20
ENDBRANCH   8  19
BRANCH   4  22
HETATM   22  C11 UNL     1      26.646   0.536  52.765  1.00  0.00     0.005 A 
HETATM   23  C12 UNL     1      27.565   1.517  53.159  1.00  0.00     0.014 A 
HETATM   24  C13 UNL     1      28.862   1.275  53.551  1.00  0.00     0.003 A 
HETATM   25  C14 UNL     1      29.308  -0.042  53.561  1.00  0.00     0.024 A 
HETATM   26  C15 UNL     1      28.454  -1.050  53.185  1.00  0.00     0.035 A 
HETATM   27 CL1  UNL     1      29.033  -2.723  53.203  1.00  0.00    -0.084 Cl
HETATM   28  C16 UNL     1      27.173  -0.735  52.806  1.00  0.00     0.038 A 
ENDBRANCH   4  22
TORSDOF 7
ENDMDL
MODEL 3
REMARK VINA RESULT:      -8.2      4.882      8.861
REMARK  7 active torsions:
REMARK  status: ('A' for Active; 'I' for Inactive)
REMARK    1  A    between atoms: N1_2  and  C3_4 
REMARK    2  A    between atoms: C3_4  and  C4_5 
REMARK    3  A    between atoms: C5_6  and  C6_7 
REMARK       I    between atoms: C6_7  and  N2_9 
REMARK    4  A    between atoms: N2_9  and  C7_10 
REMARK    5  A    between atoms: C10_13  and  C11_15 
REMARK    6  A    between atoms: C19_24  and  O2_25 
REMARK    7  A    between atoms: O2_25  and  C20_26 
ROOT
HETATM    1  C7  UNL     1      22.509   1.566  51.331  1.00  0.00     0.069 A 
HETATM    2  C8  UNL     1      23.320   0.828  52.105  1.00  0.00     0.043 A 
HETATM    3  C9  UNL     1      24.758   1.048  52.155  1.00  0.00    -0.013 A 
HETATM    4  C10 UNL     1      25.416   0.173  52.885  1.00  0.00     0.133 C 
HETATM    5  F1  UNL     1      24.725  -0.837  53.517  1.00  0.00    -0.205 F 
HETATM    6  C17 UNL     1      25.356   2.157  51.410  1.00  0.00     0.071 A 
HETATM    7  C18 UNL     1      24.326   2.889  50.590  1.00  0.00     0.017 A 
HETATM    8  C19 UNL     1      23.029   2.658  50.523  1.00  0.00     0.092 A 
ENDROOT
BRANCH   1   9
HETATM    9  N2  UNL     1      21.106   1.352  51.277  1.00  0.00    -0.321 N 
HETATM   10  C6  UNL     1      20.018   2.027  51.894  1.00  0.00     0.245 C 
HETATM   11  O1  UNL     1      20.065   3.018  52.664  1.00  0.00    -0.268 OA
HETATM   12  H11 UNL     1      20.897   0.524  50.645  1.00  0.00     0.169 HD
BRANCH  10  13
HETATM   13  C5  UNL     1      18.663   1.555  51.640  1.00  0.00     0.072 C 
HETATM   14  C4  UNL     1      18.536   0.289  51.306  1.00  0.00    -0.002 C 
BRANCH  14  15
HETATM   15  C3  UNL     1      17.235  -0.362  51.012  1.00  0.00     0.143 C 
BRANCH  15  16
HETATM   16  N1  UNL     1      16.708  -0.908  52.216  1.00  0.00    -0.418 N 
HETATM   17  C1  UNL     1      15.606  -0.221  52.804  1.00  0.00     0.142 C 
HETATM   18  C2  UNL     1      17.698  -1.384  53.153  1.00  0.00     0.142 C 
ENDBRANCH  15  16
ENDBRANCH  14  15
ENDBRANCH  10  13
ENDBRANCH   1   9
BRANCH   8  19
HETATM   19  O2  UNL     1      22.315   3.495  49.678  1.00  0.00    -0.349 OA
BRANCH  19  20
HETATM   20  C20 UNL     1      22.663   3.538  48.308  1.00  0.00     0.171 C 
HETATM   21  C21 UNL     1      22.418   2.177  47.656  1.00  0.00     0.034 C 
ENDBRANCH  19  20
ENDBRANCH   8  19
BRANCH   4  22
HETATM   22  C11 UNL     1      26.825   0.028  53.208  1.00  0.00     0.005 A 
HETATM   23  C12 UNL     1      27.524  -1.160  52.962  1.00  0.00     0.014 A 
HETATM   24  C13 UNL     1      28.854  -1.369  53.248  1.00  0.00     0.003 A 
HETATM   25  C14 UNL     1      29.571  -0.327  53.827  1.00  0.00     0.024 A 
HETATM   26  C15 UNL     1      28.941   0.864  54.093  1.00  0.00     0.035 A 
HETATM   27 CL1  UNL     1      29.864   2.183  54.828  1.00  0.00    -0.084 Cl
HETATM   28  C16 UNL     1      27.611   1.002  53.780  1.00  0.00     0.038 A 
ENDBRANCH   4  22
TORSDOF 7
ENDMDL
MODEL 4
REMARK VINA RESULT:      -8.2      3.527      6.090
REMARK  7 active torsions:
REMARK  status: ('A' for Active; 'I' for Inactive)
REMARK    1  A    between atoms: N1_2  and  C3_4 
REMARK    2  A    between atoms: C3_4  and  C4_5 
REMARK    3  A    between atoms: C5_6  and  C6_7 
REMARK       I    between atoms: C6_7  and  N2_9 
REMARK    4  A    between atoms: N2_9  and  C7_10 
REMARK    5  A    between atoms: C10_13  and  C11_15 
REMARK    6  A    between atoms: C19_24  and  O2_25 
REMARK    7  A    between atoms: O2_25  and  C20_26 
ROOT
HETATM    1  C7  UNL     1      28.361   6.015  48.328  1.00  0.00     0.069 A 
HETATM    2  C8  UNL     1      27.734   4.862  48.611  1.00  0.00     0.043 A 
HETATM    3  C9  UNL     1      26.401   4.826  49.195  1.00  0.00    -0.013 A 
HETATM    4  C10 UNL     1      25.976   3.619  49.501  1.00  0.00     0.133 C 
HETATM    5  F1  UNL     1      26.787   2.533  49.257  1.00  0.00    -0.205 F 
HETATM    6  C17 UNL     1      25.663   6.070  49.415  1.00  0.00     0.071 A 
HETATM    7  C18 UNL     1      26.494   7.275  49.056  1.00  0.00     0.017 A 
HETATM    8  C19 UNL     1      27.717   7.298  48.561  1.00  0.00     0.092 A 
ENDROOT
BRANCH   1   9
HETATM    9  N2  UNL     1      29.663   6.055  47.763  1.00  0.00    -0.321 N 
HETATM   10  C6  UNL     1      30.946   5.791  48.314  1.00  0.00     0.245 C 
HETATM   11  O1  UNL     1      31.222   5.443  49.488  1.00  0.00    -0.268 OA
HETATM   12  H11 UNL     1      29.598   6.340  46.741  1.00  0.00     0.169 HD
BRANCH  10  13
HETATM   13  C5  UNL     1      32.119   5.925  47.460  1.00  0.00     0.072 C 
HETATM   14  C4  UNL     1      33.240   5.410  47.918  1.00  0.00    -0.002 C 
BRANCH  14  15
HETATM   15  C3  UNL     1      34.530   5.453  47.185  1.00  0.00     0.143 C 
BRANCH  15  16
HETATM   16  N1  UNL     1      34.972   4.121  46.946  1.00  0.00    -0.418 N 
HETATM   17  C1  UNL     1      34.994   3.686  45.589  1.00  0.00     0.142 C 
HETATM   18  C2  UNL     1      34.491   3.142  47.892  1.00  0.00     0.142 C 
ENDBRANCH  15  16
ENDBRANCH  14  15
ENDBRANCH  10  13
ENDBRANCH   1   9
BRANCH   8  19
HETATM   19  O2  UNL     1      28.242   8.559  48.324  1.00  0.00    -0.349 OA
BRANCH  19  20
HETATM   20  C20 UNL     1      28.809   9.276  49.404  1.00  0.00     0.171 C 
HETATM   21  C21 UNL     1      30.331   9.321  49.270  1.00  0.00     0.034 C 
ENDBRANCH  19  20
ENDBRANCH   8  19
BRANCH   4  22
HETATM   22  C11 UNL     1      24.734   3.135  50.078  1.00  0.00     0.005 A 
HETATM   23  C12 UNL     1      24.521   3.104  51.462  1.00  0.00     0.014 A 
HETATM   24  C13 UNL     1      23.376   2.653  52.077  1.00  0.00     0.003 A 
HETATM   25  C14 UNL     1      22.340   2.190  51.273  1.00  0.00     0.024 A 
HETATM   26  C15 UNL     1      22.487   2.195  49.907  1.00  0.00     0.035 A 
HETATM   27 CL1  UNL     1      21.161   1.604  48.894  1.00  0.00    -0.084 Cl
HETATM   28  C16 UNL     1      23.658   2.659  49.363  1.00  0.00     0.038 A 
ENDBRANCH   4  22
TORSDOF 7
ENDMDL
MODEL 5
REMARK VINA RESULT:      -8.2      5.466      8.810
REMARK  7 active torsions:
REMARK  status: ('A' for Active; 'I' for Inactive)
REMARK    1  A    between atoms: N1_2  and  C3_4 
REMARK    2  A    between atoms: C3_4  and  C4_5 
REMARK    3  A    between atoms: C5_6  and  C6_7 
REMARK       I    between atoms: C6_7  and  N2_9 
REMARK    4  A    between atoms: N2_9  and  C7_10 
REMARK    5  A    between atoms: C10_13  and  C11_15 
REMARK    6  A    between atoms: C19_24  and  O2_25 
REMARK    7  A    between atoms: O2_25  and  C20_26 
ROOT
HETATM    1  C7  UNL     1      21.439   0.766  52.439  1.00  0.00     0.069 A 
HETATM    2  C8  UNL     1      22.719   0.953  52.078  1.00  0.00     0.043 A 
HETATM    3  C9  UNL     1      23.828   0.356  52.808  1.00  0.00    -0.013 A 
HETATM    4  C10 UNL     1      25.018   0.723  52.381  1.00  0.00     0.133 C 
HETATM    5  F1  UNL     1      25.117   1.602  51.327  1.00  0.00    -0.205 F 
HETATM    6  C17 UNL     1      23.566  -0.550  53.927  1.00  0.00     0.071 A 
HETATM    7  C18 UNL     1      22.091  -0.658  54.215  1.00  0.00     0.017 A 
HETATM    8  C19 UNL     1      21.094  -0.082  53.570  1.00  0.00     0.092 A 
ENDROOT
BRANCH   1   9
HETATM    9  N2  UNL     1      20.356   1.350  51.733  1.00  0.00    -0.321 N 
HETATM   10  C6  UNL     1      19.726   2.619  51.840  1.00  0.00     0.245 C 
HETATM   11  O1  UNL     1      20.010   3.554  52.628  1.00  0.00    -0.268 OA
HETATM   12  H11 UNL     1      19.993   0.663  51.007  1.00  0.00     0.169 HD
BRANCH  10  13
HETATM   13  C5  UNL     1      18.609   2.928  50.956  1.00  0.00     0.072 C 
HETATM   14  C4  UNL     1      17.638   3.651  51.469  1.00  0.00    -0.002 C 
BRANCH  14  15
HETATM   15  C3  UNL     1      16.425   4.060  50.716  1.00  0.00     0.143 C 
BRANCH  15  16
HETATM   16  N1  UNL     1      15.271   3.636  51.434  1.00  0.00    -0.418 N 
HETATM   17  C1  UNL     1      15.221   3.966  52.820  1.00  0.00     0.142 C 
HETATM   18  C2  UNL     1      14.803   2.311  51.107  1.00  0.00     0.142 C 
ENDBRANCH  15  16
ENDBRANCH  14  15
ENDBRANCH  10  13
ENDBRANCH   1   9
BRANCH   8  19
HETATM   19  O2  UNL     1      19.826  -0.360  54.057  1.00  0.00    -0.349 OA
BRANCH  19  20
HETATM   20  C20 UNL     1      19.131  -1.482  53.548  1.00  0.00     0.171 C 
HETATM   21  C21 UNL     1      17.866  -1.034  52.816  1.00  0.00     0.034 C 
ENDBRANCH  19  20
ENDBRANCH   8  19
BRANCH   4  22
HETATM   22  C11 UNL     1      26.362   0.369  52.805  1.00  0.00     0.005 A 
HETATM   23  C12 UNL     1      26.879  -0.921  52.633  1.00  0.00     0.014 A 
HETATM   24  C13 UNL     1      28.137  -1.326  53.016  1.00  0.00     0.003 A 
HETATM   25  C14 UNL     1      28.970  -0.391  53.622  1.00  0.00     0.024 A 
HETATM   26  C15 UNL     1      28.520   0.892  53.819  1.00  0.00     0.035 A 
HETATM   27 CL1  UNL     1      29.589   2.072  54.590  1.00  0.00    -0.084 Cl
HETATM   28  C16 UNL     1      27.253   1.225  53.411  1.00  0.00     0.038 A 
ENDBRANCH   4  22
TORSDOF 7
ENDMDL
MODEL 6
REMARK VINA RESULT:      -8.2      2.194      3.583
REMARK  7 active torsions:
REMARK  status: ('A' for Active; 'I' for Inactive)
REMARK    1  A    between atoms: N1_2  and  C3_4 
REMARK    2  A    between atoms: C3_4  and  C4_5 
REMARK    3  A    between atoms: C5_6  and  C6_7 
REMARK       I    between atoms: C6_7  and  N2_9 
REMARK    4  A    between atoms: N2_9  and  C7_10 
REMARK    5  A    between atoms: C10_13  and  C11_15 
REMARK    6  A    between atoms: C19_24  and  O2_25 
REMARK    7  A    between atoms: O2_25  and  C20_26 
ROOT
HETATM    1  C7  UNL     1      24.797   4.534  50.896  1.00  0.00     0.069 A 
HETATM    2  C8  UNL     1      24.647   3.223  51.142  1.00  0.00     0.043 A 
HETATM    3  C9  UNL     1      23.569   2.707  51.973  1.00  0.00    -0.013 A 
HETATM    4  C10 UNL     1      23.626   1.411  52.194  1.00  0.00     0.133 C 
HETATM    5  F1  UNL     1      24.655   0.677  51.648  1.00  0.00    -0.205 F 
HETATM    6  C17 UNL     1      22.552   3.617  52.503  1.00  0.00     0.071 A 
HETATM    7  C18 UNL     1      22.855   5.049  52.148  1.00  0.00     0.017 A 
HETATM    8  C19 UNL     1      23.858   5.511  51.424  1.00  0.00     0.092 A 
ENDROOT
BRANCH   1   9
HETATM    9  N2  UNL     1      25.850   5.041  50.089  1.00  0.00    -0.321 N 
HETATM   10  C6  UNL     1      26.848   4.392  49.313  1.00  0.00     0.245 C 
HETATM   11  O1  UNL     1      27.024   3.158  49.163  1.00  0.00    -0.268 OA
HETATM   12  H11 UNL     1      25.835   6.103  50.112  1.00  0.00     0.169 HD
BRANCH  10  13
HETATM   13  C5  UNL     1      27.812   5.207  48.584  1.00  0.00     0.072 C 
HETATM   14  C4  UNL     1      27.464   6.453  48.346  1.00  0.00    -0.002 C 
BRANCH  14  15
HETATM   15  C3  UNL     1      28.318   7.425  47.618  1.00  0.00     0.143 C 
BRANCH  15  16
HETATM   16  N1  UNL     1      29.185   8.065  48.548  1.00  0.00    -0.418 N 
HETATM   17  C1  UNL     1      28.636   9.146  49.298  1.00  0.00     0.142 C 
HETATM   18  C2  UNL     1      30.534   8.275  48.079  1.00  0.00     0.142 C 
ENDBRANCH  15  16
ENDBRANCH  14  15
ENDBRANCH  10  13
ENDBRANCH   1   9
BRANCH   8  19
HETATM   19  O2  UNL     1      23.891   6.886  51.256  1.00  0.00    -0.349 OA
BRANCH  19  20
HETATM   20  C20 UNL     1      22.829   7.515  50.567  1.00  0.00     0.171 C 
HETATM   21  C21 UNL     1      23.342   8.163  49.281  1.00  0.00     0.034 C 
ENDBRANCH  19  20
ENDBRANCH   8  19
BRANCH   4  22
HETATM   22  C11 UNL     1      22.770   0.505  52.940  1.00  0.00     0.005 A 
HETATM   23  C12 UNL     1      23.259  -0.282  53.991  1.00  0.00     0.014 A 
HETATM   24  C13 UNL     1      22.509  -1.164  54.734  1.00  0.00     0.003 A 
HETATM   25  C14 UNL     1      21.158  -1.293  54.430  1.00  0.00     0.024 A 
HETATM   26  C15 UNL     1      20.618  -0.547  53.410  1.00  0.00     0.035 A 
HETATM   27 CL1  UNL     1      18.897  -0.720  53.032  1.00  0.00    -0.084 Cl
HETATM   28  C16 UNL     1      21.427   0.313  52.710  1.00  0.00     0.038 A 
ENDBRANCH   4  22
TORSDOF 7
ENDMDL
MODEL 7
REMARK VINA RESULT:      -8.0      5.231      7.774
REMARK  7 active torsions:
REMARK  status: ('A' for Active; 'I' for Inactive)
REMARK    1  A    between atoms: N1_2  and  C3_4 
REMARK    2  A    between atoms: C3_4  and  C4_5 
REMARK    3  A    between atoms: C5_6  and  C6_7 
REMARK       I    between atoms: C6_7  and  N2_9 
REMARK    4  A    between atoms: N2_9  and  C7_10 
REMARK    5  A    between atoms: C10_13  and  C11_15 
REMARK    6  A    between atoms: C19_24  and  O2_25 
REMARK    7  A    between atoms: O2_25  and  C20_26 
ROOT
HETATM    1  C7  UNL     1      21.754   0.994  52.217  1.00  0.00     0.069 A 
HETATM    2  C8  UNL     1      23.041   1.138  51.866  1.00  0.00     0.043 A 
HETATM    3  C9  UNL     1      24.130   0.592  52.663  1.00  0.00    -0.013 A 
HETATM    4  C10 UNL     1      25.332   0.910  52.230  1.00  0.00     0.133 C 
HETATM    5  F1  UNL     1      25.460   1.699  51.109  1.00  0.00    -0.205 F 
HETATM    6  C17 UNL     1      23.838  -0.216  53.848  1.00  0.00     0.071 A 
HETATM    7  C18 UNL     1      22.357  -0.285  54.116  1.00  0.00     0.017 A 
HETATM    8  C19 UNL     1      21.378   0.245  53.407  1.00  0.00     0.092 A 
ENDROOT
BRANCH   1   9
HETATM    9  N2  UNL     1      20.689   1.528  51.445  1.00  0.00    -0.321 N 
HETATM   10  C6  UNL     1      19.812   2.623  51.667  1.00  0.00     0.245 C 
HETATM   11  O1  UNL     1      19.788   3.402  52.651  1.00  0.00    -0.268 OA
HETATM   12  H11 UNL     1      20.579   0.962  50.551  1.00  0.00     0.169 HD
BRANCH  10  13
HETATM   13  C5  UNL     1      18.795   2.925  50.666  1.00  0.00     0.072 C 
HETATM   14  C4  UNL     1      19.176   2.863  49.408  1.00  0.00    -0.002 C 
BRANCH  14  15
HETATM   15  C3  UNL     1      18.278   3.138  48.258  1.00  0.00     0.143 C 
BRANCH  15  16
HETATM   16  N1  UNL     1      18.925   4.046  47.373  1.00  0.00    -0.418 N 
HETATM   17  C1  UNL     1      20.093   3.571  46.709  1.00  0.00     0.142 C 
HETATM   18  C2  UNL     1      19.006   5.406  47.848  1.00  0.00     0.142 C 
ENDBRANCH  15  16
ENDBRANCH  14  15
ENDBRANCH  10  13
ENDBRANCH   1   9
BRANCH   8  19
HETATM   19  O2  UNL     1      20.099   0.021  53.891  1.00  0.00    -0.349 OA
BRANCH  19  20
HETATM   20  C20 UNL     1      19.415  -1.152  53.493  1.00  0.00     0.171 C 
HETATM   21  C21 UNL     1      18.200  -0.792  52.638  1.00  0.00     0.034 C 
ENDBRANCH  19  20
ENDBRANCH   8  19
BRANCH   4  22
HETATM   22  C11 UNL     1      26.664   0.580  52.707  1.00  0.00     0.005 A 
HETATM   23  C12 UNL     1      27.550   1.560  53.172  1.00  0.00     0.014 A 
HETATM   24  C13 UNL     1      28.825   1.321  53.629  1.00  0.00     0.003 A 
HETATM   25  C14 UNL     1      29.282   0.007  53.637  1.00  0.00     0.024 A 
HETATM   26  C15 UNL     1      28.460  -1.000  53.193  1.00  0.00     0.035 A 
HETATM   27 CL1  UNL     1      29.052  -2.668  53.208  1.00  0.00    -0.084 Cl
HETATM   28  C16 UNL     1      27.199  -0.687  52.750  1.00  0.00     0.038 A 
ENDBRANCH   4  22
TORSDOF 7
ENDMDL
MODEL 8
REMARK VINA RESULT:      -7.7      4.640      6.911
REMARK  7 active torsions:
REMARK  status: ('A' for Active; 'I' for Inactive)
REMARK    1  A    between atoms: N1_2  and  C3_4 
REMARK    2  A    between atoms: C3_4  and  C4_5 
REMARK    3  A    between atoms: C5_6  and  C6_7 
REMARK       I    between atoms: C6_7  and  N2_9 
REMARK    4  A    between atoms: N2_9  and  C7_10 
REMARK    5  A    between atoms: C10_13  and  C11_15 
REMARK    6  A    between atoms: C19_24  and  O2_25 
REMARK    7  A    between atoms: O2_25  and  C20_26 
ROOT
HETATM    1  C7  UNL     1      22.715   2.332  51.311  1.00  0.00     0.069 A 
HETATM    2  C8  UNL     1      24.049   2.213  51.221  1.00  0.00     0.043 A 
HETATM    3  C9  UNL     1      24.822   1.397  52.145  1.00  0.00    -0.013 A 
HETATM    4  C10 UNL     1      26.124   1.471  51.977  1.00  0.00     0.133 C 
HETATM    5  F1  UNL     1      26.634   2.278  50.985  1.00  0.00    -0.205 F 
HETATM    6  C17 UNL     1      24.138   0.602  53.168  1.00  0.00     0.071 A 
HETATM    7  C18 UNL     1      22.651   0.841  53.149  1.00  0.00     0.017 A 
HETATM    8  C19 UNL     1      21.963   1.613  52.328  1.00  0.00     0.092 A 
ENDROOT
BRANCH   1   9
HETATM    9  N2  UNL     1      21.959   3.130  50.413  1.00  0.00    -0.321 N 
HETATM   10  C6  UNL     1      21.430   4.444  50.526  1.00  0.00     0.245 C 
HETATM   11  O1  UNL     1      21.523   5.229  51.501  1.00  0.00    -0.268 OA
HETATM   12  H11 UNL     1      21.792   2.591  49.512  1.00  0.00     0.169 HD
BRANCH  10  13
HETATM   13  C5  UNL     1      20.677   4.998  49.407  1.00  0.00     0.072 C 
HETATM   14  C4  UNL     1      20.908   4.466  48.226  1.00  0.00    -0.002 C 
BRANCH  14  15
HETATM   15  C3  UNL     1      20.234   4.903  46.977  1.00  0.00     0.143 C 
BRANCH  15  16
HETATM   16  N1  UNL     1      21.203   5.002  45.939  1.00  0.00    -0.418 N 
HETATM   17  C1  UNL     1      21.812   3.786  45.512  1.00  0.00     0.142 C 
HETATM   18  C2  UNL     1      22.102   6.126  46.051  1.00  0.00     0.142 C 
ENDBRANCH  15  16
ENDBRANCH  14  15
ENDBRANCH  10  13
ENDBRANCH   1   9
BRANCH   8  19
HETATM   19  O2  UNL     1      20.594   1.644  52.542  1.00  0.00    -0.349 OA
BRANCH  19  20
HETATM   20  C20 UNL     1      19.839   0.473  52.298  1.00  0.00     0.171 C 
HETATM   21  C21 UNL     1      19.063   0.607  50.987  1.00  0.00     0.034 C 
ENDBRANCH  19  20
ENDBRANCH   8  19
BRANCH   4  22
HETATM   22  C11 UNL     1      27.238   0.831  52.656  1.00  0.00     0.005 A 
HETATM   23  C12 UNL     1      28.165   1.560  53.412  1.00  0.00     0.014 A 
HETATM   24  C13 UNL     1      29.245   1.021  54.073  1.00  0.00     0.003 A 
HETATM   25  C14 UNL     1      29.442  -0.353  53.995  1.00  0.00     0.024 A 
HETATM   26  C15 UNL     1      28.566  -1.124  53.269  1.00  0.00     0.035 A 
HETATM   27 CL1  UNL     1      28.827  -2.872  53.176  1.00  0.00    -0.084 Cl
HETATM   28  C16 UNL     1      27.511  -0.518  52.634  1.00  0.00     0.038 A 
ENDBRANCH   4  22
TORSDOF 7
ENDMDL
MODEL 9
REMARK VINA RESULT:      -7.6      1.726      2.498
REMARK  7 active torsions:
REMARK  status: ('A' for Active; 'I' for Inactive)
REMARK    1  A    between atoms: N1_2  and  C3_4 
REMARK    2  A    between atoms: C3_4  and  C4_5 
REMARK    3  A    between atoms: C5_6  and  C6_7 
REMARK       I    between atoms: C6_7  and  N2_9 
REMARK    4  A    between atoms: N2_9  and  C7_10 
REMARK    5  A    between atoms: C10_13  and  C11_15 
REMARK    6  A    between atoms: C19_24  and  O2_25 
REMARK    7  A    between atoms: O2_25  and  C20_26 
ROOT
HETATM    1  C7  UNL     1      24.430   1.304  51.870  1.00  0.00     0.069 A 
HETATM    2  C8  UNL     1      23.144   1.426  51.501  1.00  0.00     0.043 A 
HETATM    3  C9  UNL     1      22.091   0.595  52.067  1.00  0.00    -0.013 A 
HETATM    4  C10 UNL     1      20.907   0.775  51.523  1.00  0.00     0.133 C 
HETATM    5  F1  UNL     1      20.761   1.694  50.508  1.00  0.00    -0.205 F 
HETATM    6  C17 UNL     1      22.403  -0.358  53.134  1.00  0.00     0.071 A 
HETATM    7  C18 UNL     1      23.879  -0.385  53.435  1.00  0.00     0.017 A 
HETATM    8  C19 UNL     1      24.832   0.348  52.890  1.00  0.00     0.092 A 
ENDROOT
BRANCH   1   9
HETATM    9  N2  UNL     1      25.459   2.110  51.318  1.00  0.00    -0.321 N 
HETATM   10  C6  UNL     1      25.483   2.985  50.198  1.00  0.00     0.245 C 
HETATM   11  O1  UNL     1      24.542   3.252  49.411  1.00  0.00    -0.268 OA
HETATM   12  H11 UNL     1      26.348   1.993  51.889  1.00  0.00     0.169 HD
BRANCH  10  13
HETATM   13  C5  UNL     1      26.722   3.683  49.877  1.00  0.00     0.072 C 
HETATM   14  C4  UNL     1      26.633   4.662  49.003  1.00  0.00    -0.002 C 
BRANCH  14  15
HETATM   15  C3  UNL     1      27.790   5.480  48.558  1.00  0.00     0.143 C 
BRANCH  15  16
HETATM   16  N1  UNL     1      27.326   6.774  48.189  1.00  0.00    -0.418 N 
HETATM   17  C1  UNL     1      28.178   7.545  47.346  1.00  0.00     0.142 C 
HETATM   18  C2  UNL     1      26.685   7.516  49.249  1.00  0.00     0.142 C 
ENDBRANCH  15  16
ENDBRANCH  14  15
ENDBRANCH  10  13
ENDBRANCH   1   9
BRANCH   8  19
HETATM   19  O2  UNL     1      26.113   0.111  53.363  1.00  0.00    -0.349 OA
BRANCH  19  20
HETATM   20  C20 UNL     1      26.841  -0.985  52.841  1.00  0.00     0.171 C 
HETATM   21  C21 UNL     1      28.313  -0.878  53.236  1.00  0.00     0.034 C 
ENDBRANCH  19  20
ENDBRANCH   8  19
BRANCH   4  22
HETATM   22  C11 UNL     1      19.608   0.178  51.783  1.00  0.00     0.005 A 
HETATM   23  C12 UNL     1      19.324  -0.486  52.983  1.00  0.00     0.014 A 
HETATM   24  C13 UNL     1      18.122  -1.080  53.293  1.00  0.00     0.003 A 
HETATM   25  C14 UNL     1      17.101  -1.023  52.350  1.00  0.00     0.024 A 
HETATM   26  C15 UNL     1      17.319  -0.385  51.152  1.00  0.00     0.035 A 
HETATM   27 CL1  UNL     1      16.012  -0.319  49.960  1.00  0.00    -0.084 Cl
HETATM   28  C16 UNL     1      18.543   0.185  50.911  1.00  0.00     0.038 A 
ENDBRANCH   4  22
TORSDOF 7
ENDMDL
