MODEL 1
REMARK VINA RESULT:      -8.5      0.000      0.000
REMARK  7 active torsions:
REMARK  status: ('A' for Active; 'I' for Inactive)
REMARK    1  A    between atoms: O1_2  and  C2_3 
REMARK    2  A    between atoms: C2_3  and  C3_4 
REMARK    3  A    between atoms: C6_7  and  N1_8 
REMARK    4  A    between atoms: N1_8  and  C7_9 
REMARK    5  A    between atoms: C11_13  and  O2_14 
REMARK    6  A    between atoms: C17_23  and  N4_24 
REMARK    7  A    between atoms: N4_24  and  O4_25 
ROOT
HETATM    1  C3  UNL     1      24.414  -0.369  53.654  1.00  0.00    -0.005 A 
HETATM    2  C4  UNL     1      24.983   0.490  52.736  1.00  0.00     0.029 A 
HETATM    3  C5  UNL     1      26.203   1.063  53.028  1.00  0.00     0.039 A 
HETATM    4  C6  UNL     1      26.702   1.908  52.062  1.00  0.00     0.142 A 
HETATM    5  N2  UNL     1      27.893   2.493  52.302  1.00  0.00    -0.224 NA
HETATM    6  C14 UNL     1      28.591   2.280  53.431  1.00  0.00     0.236 A 
HETATM    7  N3  UNL     1      28.086   1.447  54.370  1.00  0.00    -0.241 NA
HETATM    8  C15 UNL     1      26.901   0.831  54.193  1.00  0.00     0.074 A 
HETATM    9  C16 UNL     1      26.313  -0.029  55.090  1.00  0.00     0.064 A 
HETATM   10  C17 UNL     1      25.094  -0.627  54.844  1.00  0.00     0.065 A 
ENDROOT
BRANCH   4  11
HETATM   11  N1  UNL     1      26.111   2.251  50.815  1.00  0.00    -0.340 N 
HETATM   12  H7  UNL     1      25.619   1.644  50.132  1.00  0.00     0.167 HD
BRANCH  11  13
HETATM   13  C7  UNL     1      26.090   3.568  50.253  1.00  0.00     0.032 A 
HETATM   14  C8  UNL     1      27.006   3.911  49.358  1.00  0.00     0.008 A 
HETATM   15  C9  UNL     1      27.188   5.191  48.648  1.00  0.00     0.076 A 
HETATM   16  C10 UNL     1      26.139   6.155  49.072  1.00  0.00     0.038 A 
HETATM   17  C11 UNL     1      25.621   7.365  48.960  1.00  0.00     0.193 A 
HETATM   18  C12 UNL     1      25.112   5.795  50.064  1.00  0.00     0.091 A 
HETATM   19  O3  UNL     1      24.625   7.089  49.889  1.00  0.00    -0.287 OA
HETATM   20  C13 UNL     1      25.100   4.601  50.600  1.00  0.00     0.067 A 
BRANCH  17  21
HETATM   21  O2  UNL     1      26.003   8.459  48.168  1.00  0.00    -0.340 OA
HETATM   22  H11 UNL     1      26.412   9.259  48.633  1.00  0.00     0.220 HD
ENDBRANCH  17  21
ENDBRANCH  11  13
ENDBRANCH   4  11
BRANCH   1  23
HETATM   23  C2  UNL     1      23.087  -0.999  53.348  1.00  0.00     0.208 C 
BRANCH  23  24
HETATM   24  O1  UNL     1      22.138  -0.535  54.224  1.00  0.00    -0.391 OA
HETATM   25  C1  UNL     1      21.155  -1.515  54.351  1.00  0.00     0.201 C 
ENDBRANCH  23  24
ENDBRANCH   1  23
BRANCH  10  26
HETATM   26  N4  UNL     1      24.515  -1.514  55.799  1.00  0.00    -0.269 N 
HETATM   27  H15 UNL     1      23.785  -1.992  55.227  1.00  0.00     0.194 HD
BRANCH  26  28
HETATM   28  O4  UNL     1      25.218  -1.260  56.931  1.00  0.00    -0.289 OA
HETATM   29  H16 UNL     1      25.760  -2.036  57.212  1.00  0.00     0.244 HD
ENDBRANCH  26  28
ENDBRANCH  10  26
TORSDOF 7
ENDMDL
MODEL 2
REMARK VINA RESULT:      -8.1      2.670      4.553
REMARK  7 active torsions:
REMARK  status: ('A' for Active; 'I' for Inactive)
REMARK    1  A    between atoms: O1_2  and  C2_3 
REMARK    2  A    between atoms: C2_3  and  C3_4 
REMARK    3  A    between atoms: C6_7  and  N1_8 
REMARK    4  A    between atoms: N1_8  and  C7_9 
REMARK    5  A    between atoms: C11_13  and  O2_14 
REMARK    6  A    between atoms: C17_23  and  N4_24 
REMARK    7  A    between atoms: N4_24  and  O4_25 
ROOT
HETATM    1  C3  UNL     1      24.816  -0.332  53.995  1.00  0.00    -0.005 A 
HETATM    2  C4  UNL     1      23.954   0.211  53.065  1.00  0.00     0.029 A 
HETATM    3  C5  UNL     1      22.600  -0.023  53.195  1.00  0.00     0.039 A 
HETATM    4  C6  UNL     1      21.808   0.553  52.228  1.00  0.00     0.142 A 
HETATM    5  N2  UNL     1      20.477   0.352  52.312  1.00  0.00    -0.224 NA
HETATM    6  C14 UNL     1      19.915  -0.378  53.291  1.00  0.00     0.236 A 
HETATM    7  N3  UNL     1      20.709  -0.937  54.235  1.00  0.00    -0.241 NA
HETATM    8  C15 UNL     1      22.045  -0.776  54.208  1.00  0.00     0.074 A 
HETATM    9  C16 UNL     1      22.926  -1.305  55.121  1.00  0.00     0.064 A 
HETATM   10  C17 UNL     1      24.288  -1.099  55.033  1.00  0.00     0.065 A 
ENDROOT
BRANCH   4  11
HETATM   11  N1  UNL     1      22.220   1.351  51.125  1.00  0.00    -0.340 N 
HETATM   12  H7  UNL     1      22.298   1.096  50.122  1.00  0.00     0.167 HD
BRANCH  11  13
HETATM   13  C7  UNL     1      22.622   2.723  51.212  1.00  0.00     0.032 A 
HETATM   14  C8  UNL     1      21.870   3.582  51.885  1.00  0.00     0.008 A 
HETATM   15  C9  UNL     1      22.073   5.026  52.111  1.00  0.00     0.076 A 
HETATM   16  C10 UNL     1      23.327   5.468  51.447  1.00  0.00     0.038 A 
HETATM   17  C11 UNL     1      24.160   6.457  51.175  1.00  0.00     0.193 A 
HETATM   18  C12 UNL     1      24.177   4.530  50.695  1.00  0.00     0.091 A 
HETATM   19  O3  UNL     1      25.005   5.624  50.451  1.00  0.00    -0.287 OA
HETATM   20  C13 UNL     1      23.842   3.269  50.593  1.00  0.00     0.067 A 
BRANCH  17  21
HETATM   21  O2  UNL     1      24.123   7.815  51.529  1.00  0.00    -0.340 OA
HETATM   22  H11 UNL     1      24.019   8.044  52.509  1.00  0.00     0.220 HD
ENDBRANCH  17  21
ENDBRANCH  11  13
ENDBRANCH   4  11
BRANCH   1  23
HETATM   23  C2  UNL     1      26.290  -0.085  53.864  1.00  0.00     0.208 C 
BRANCH  23  24
HETATM   24  O1  UNL     1      26.782   0.432  55.035  1.00  0.00    -0.391 OA
HETATM   25  C1  UNL     1      28.160   0.221  55.053  1.00  0.00     0.201 C 
ENDBRANCH  23  24
ENDBRANCH   1  23
BRANCH  10  26
HETATM   26  N4  UNL     1      25.171  -1.665  55.999  1.00  0.00    -0.269 N 
HETATM   27  H15 UNL     1      25.645  -2.408  55.442  1.00  0.00     0.194 HD
BRANCH  26  28
HETATM   28  O4  UNL     1      24.921  -0.938  57.117  1.00  0.00    -0.289 OA
HETATM   29  H16 UNL     1      25.674  -0.971  57.757  1.00  0.00     0.244 HD
ENDBRANCH  26  28
ENDBRANCH  10  26
TORSDOF 7
ENDMDL
MODEL 3
REMARK VINA RESULT:      -8.0      4.385      6.536
REMARK  7 active torsions:
REMARK  status: ('A' for Active; 'I' for Inactive)
REMARK    1  A    between atoms: O1_2  and  C2_3 
REMARK    2  A    between atoms: C2_3  and  C3_4 
REMARK    3  A    between atoms: C6_7  and  N1_8 
REMARK    4  A    between atoms: N1_8  and  C7_9 
REMARK    5  A    between atoms: C11_13  and  O2_14 
REMARK    6  A    between atoms: C17_23  and  N4_24 
REMARK    7  A    between atoms: N4_24  and  O4_25 
ROOT
HETATM    1  C3  UNL     1      19.731   0.360  51.758  1.00  0.00    -0.005 A 
HETATM    2  C4  UNL     1      21.075   0.439  52.059  1.00  0.00     0.029 A 
HETATM    3  C5  UNL     1      21.555  -0.254  53.151  1.00  0.00     0.039 A 
HETATM    4  C6  UNL     1      22.905  -0.123  53.385  1.00  0.00     0.142 A 
HETATM    5  N2  UNL     1      23.421  -0.783  54.442  1.00  0.00    -0.224 NA
HETATM    6  C14 UNL     1      22.672  -1.547  55.255  1.00  0.00     0.236 A 
HETATM    7  N3  UNL     1      21.345  -1.666  55.011  1.00  0.00    -0.241 NA
HETATM    8  C15 UNL     1      20.767  -1.033  53.972  1.00  0.00     0.074 A 
HETATM    9  C16 UNL     1      19.433  -1.095  53.649  1.00  0.00     0.064 A 
HETATM   10  C17 UNL     1      18.906  -0.419  52.568  1.00  0.00     0.065 A 
ENDROOT
BRANCH   4  11
HETATM   11  N1  UNL     1      23.849   0.636  52.639  1.00  0.00    -0.340 N 
HETATM   12  H7  UNL     1      23.690   1.281  51.842  1.00  0.00     0.167 HD
BRANCH  11  13
HETATM   13  C7  UNL     1      25.262   0.642  52.871  1.00  0.00     0.032 A 
HETATM   14  C8  UNL     1      25.983  -0.417  52.533  1.00  0.00     0.008 A 
HETATM   15  C9  UNL     1      27.435  -0.644  52.671  1.00  0.00     0.076 A 
HETATM   16  C10 UNL     1      28.074   0.549  53.285  1.00  0.00     0.038 A 
HETATM   17  C11 UNL     1      29.181   1.130  53.713  1.00  0.00     0.193 A 
HETATM   18  C12 UNL     1      27.291   1.737  53.667  1.00  0.00     0.091 A 
HETATM   19  O3  UNL     1      28.501   2.279  54.096  1.00  0.00    -0.287 OA
HETATM   20  C13 UNL     1      25.997   1.767  53.472  1.00  0.00     0.067 A 
BRANCH  17  21
HETATM   21  O2  UNL     1      30.509   0.675  53.732  1.00  0.00    -0.340 OA
HETATM   22  H11 UNL     1      30.850   0.178  52.920  1.00  0.00     0.220 HD
ENDBRANCH  17  21
ENDBRANCH  11  13
ENDBRANCH   4  11
BRANCH   1  23
HETATM   23  C2  UNL     1      19.198   1.110  50.573  1.00  0.00     0.208 C 
BRANCH  23  24
HETATM   24  O1  UNL     1      18.330   2.086  50.992  1.00  0.00    -0.391 OA
HETATM   25  C1  UNL     1      17.446   2.352  49.948  1.00  0.00     0.201 C 
ENDBRANCH  23  24
ENDBRANCH   1  23
BRANCH  10  26
HETATM   26  N4  UNL     1      17.515  -0.508  52.264  1.00  0.00    -0.269 N 
HETATM   27  H15 UNL     1      17.505  -0.264  51.250  1.00  0.00     0.194 HD
BRANCH  26  28
HETATM   28  O4  UNL     1      16.956  -0.859  53.449  1.00  0.00    -0.289 OA
HETATM   29  H16 UNL     1      17.227  -1.766  53.732  1.00  0.00     0.244 HD
ENDBRANCH  26  28
ENDBRANCH  10  26
TORSDOF 7
ENDMDL
MODEL 4
REMARK VINA RESULT:      -7.9      2.241      2.601
REMARK  7 active torsions:
REMARK  status: ('A' for Active; 'I' for Inactive)
REMARK    1  A    between atoms: O1_2  and  C2_3 
REMARK    2  A    between atoms: C2_3  and  C3_4 
REMARK    3  A    between atoms: C6_7  and  N1_8 
REMARK    4  A    between atoms: N1_8  and  C7_9 
REMARK    5  A    between atoms: C11_13  and  O2_14 
REMARK    6  A    between atoms: C17_23  and  N4_24 
REMARK    7  A    between atoms: N4_24  and  O4_25 
ROOT
HETATM    1  C3  UNL     1      24.379  -0.332  53.679  1.00  0.00    -0.005 A 
HETATM    2  C4  UNL     1      24.934   0.555  52.780  1.00  0.00     0.029 A 
HETATM    3  C5  UNL     1      26.167   1.106  53.062  1.00  0.00     0.039 A 
HETATM    4  C6  UNL     1      26.651   1.981  52.116  1.00  0.00     0.142 A 
HETATM    5  N2  UNL     1      27.853   2.546  52.348  1.00  0.00    -0.224 NA
HETATM    6  C14 UNL     1      28.576   2.284  53.450  1.00  0.00     0.236 A 
HETATM    7  N3  UNL     1      28.085   1.421  54.371  1.00  0.00    -0.241 NA
HETATM    8  C15 UNL     1      26.891   0.824  54.201  1.00  0.00     0.074 A 
HETATM    9  C16 UNL     1      26.316  -0.063  55.079  1.00  0.00     0.064 A 
HETATM   10  C17 UNL     1      25.085  -0.640  54.841  1.00  0.00     0.065 A 
ENDROOT
BRANCH   4  11
HETATM   11  N1  UNL     1      26.033   2.376  50.897  1.00  0.00    -0.340 N 
HETATM   12  H7  UNL     1      26.385   2.291  49.925  1.00  0.00     0.167 HD
BRANCH  11  13
HETATM   13  C7  UNL     1      24.745   2.995  50.794  1.00  0.00     0.032 A 
HETATM   14  C8  UNL     1      23.919   2.623  49.827  1.00  0.00     0.008 A 
HETATM   15  C9  UNL     1      22.559   3.107  49.520  1.00  0.00     0.076 A 
HETATM   16  C10 UNL     1      22.167   4.156  50.497  1.00  0.00     0.038 A 
HETATM   17  C11 UNL     1      21.250   5.012  50.911  1.00  0.00     0.193 A 
HETATM   18  C12 UNL     1      23.069   4.583  51.579  1.00  0.00     0.091 A 
HETATM   19  O3  UNL     1      22.053   5.460  51.952  1.00  0.00    -0.287 OA
HETATM   20  C13 UNL     1      24.254   4.041  51.705  1.00  0.00     0.067 A 
BRANCH  17  21
HETATM   21  O2  UNL     1      19.966   5.295  50.417  1.00  0.00    -0.340 OA
HETATM   22  H11 UNL     1      19.429   6.016  50.882  1.00  0.00     0.220 HD
ENDBRANCH  17  21
ENDBRANCH  11  13
ENDBRANCH   4  11
BRANCH   1  23
HETATM   23  C2  UNL     1      23.039  -0.937  53.383  1.00  0.00     0.208 C 
BRANCH  23  24
HETATM   24  O1  UNL     1      22.178  -0.696  54.423  1.00  0.00    -0.391 OA
HETATM   25  C1  UNL     1      21.205   0.197  53.978  1.00  0.00     0.201 C 
ENDBRANCH  23  24
ENDBRANCH   1  23
BRANCH  10  26
HETATM   26  N4  UNL     1      24.520  -1.557  55.777  1.00  0.00    -0.269 N 
HETATM   27  H15 UNL     1      23.791  -2.027  55.197  1.00  0.00     0.194 HD
BRANCH  26  28
HETATM   28  O4  UNL     1      25.228  -1.325  56.911  1.00  0.00    -0.289 OA
HETATM   29  H16 UNL     1      24.899  -0.530  57.397  1.00  0.00     0.244 HD
ENDBRANCH  26  28
ENDBRANCH  10  26
TORSDOF 7
ENDMDL
MODEL 5
REMARK VINA RESULT:      -7.8      2.281      3.833
REMARK  7 active torsions:
REMARK  status: ('A' for Active; 'I' for Inactive)
REMARK    1  A    between atoms: O1_2  and  C2_3 
REMARK    2  A    between atoms: C2_3  and  C3_4 
REMARK    3  A    between atoms: C6_7  and  N1_8 
REMARK    4  A    between atoms: N1_8  and  C7_9 
REMARK    5  A    between atoms: C11_13  and  O2_14 
REMARK    6  A    between atoms: C17_23  and  N4_24 
REMARK    7  A    between atoms: N4_24  and  O4_25 
ROOT
HETATM    1  C3  UNL     1      25.956   0.304  52.720  1.00  0.00    -0.005 A 
HETATM    2  C4  UNL     1      25.374   1.190  51.837  1.00  0.00     0.029 A 
HETATM    3  C5  UNL     1      24.013   1.401  51.904  1.00  0.00     0.039 A 
HETATM    4  C6  UNL     1      23.510   2.298  50.989  1.00  0.00     0.142 A 
HETATM    5  N2  UNL     1      22.183   2.538  51.016  1.00  0.00    -0.224 NA
HETATM    6  C14 UNL     1      21.356   1.939  51.891  1.00  0.00     0.236 A 
HETATM    7  N3  UNL     1      21.867   1.060  52.784  1.00  0.00    -0.241 NA
HETATM    8  C15 UNL     1      23.183   0.775  52.810  1.00  0.00     0.074 A 
HETATM    9  C16 UNL     1      23.788  -0.101  53.679  1.00  0.00     0.064 A 
HETATM   10  C17 UNL     1      25.146  -0.346  53.650  1.00  0.00     0.065 A 
ENDROOT
BRANCH   4  11
HETATM   11  N1  UNL     1      24.225   3.023  49.996  1.00  0.00    -0.340 N 
HETATM   12  H7  UNL     1      24.547   2.711  49.060  1.00  0.00     0.167 HD
BRANCH  11  13
HETATM   13  C7  UNL     1      24.649   4.385  50.121  1.00  0.00     0.032 A 
HETATM   14  C8  UNL     1      24.004   5.196  50.947  1.00  0.00     0.008 A 
HETATM   15  C9  UNL     1      24.250   6.620  51.243  1.00  0.00     0.076 A 
HETATM   16  C10 UNL     1      25.407   7.106  50.446  1.00  0.00     0.038 A 
HETATM   17  C11 UNL     1      26.206   8.111  50.132  1.00  0.00     0.193 A 
HETATM   18  C12 UNL     1      26.138   6.222  49.523  1.00  0.00     0.091 A 
HETATM   19  O3  UNL     1      26.936   7.330  49.245  1.00  0.00    -0.287 OA
HETATM   20  C13 UNL     1      25.779   4.971  49.382  1.00  0.00     0.067 A 
BRANCH  17  21
HETATM   21  O2  UNL     1      26.231   9.441  50.581  1.00  0.00    -0.340 OA
HETATM   22  H11 UNL     1      25.347   9.923  50.678  1.00  0.00     0.220 HD
ENDBRANCH  17  21
ENDBRANCH  11  13
ENDBRANCH   4  11
BRANCH   1  23
HETATM   23  C2  UNL     1      27.435   0.066  52.655  1.00  0.00     0.208 C 
BRANCH  23  24
HETATM   24  O1  UNL     1      28.019   0.437  53.840  1.00  0.00    -0.391 OA
HETATM   25  C1  UNL     1      29.209  -0.277  53.976  1.00  0.00     0.201 C 
ENDBRANCH  23  24
ENDBRANCH   1  23
BRANCH  10  26
HETATM   26  N4  UNL     1      25.737  -1.263  54.568  1.00  0.00    -0.269 N 
HETATM   27  H15 UNL     1      25.797  -2.130  53.990  1.00  0.00     0.194 HD
BRANCH  26  28
HETATM   28  O4  UNL     1      25.902  -0.521  55.692  1.00  0.00    -0.289 OA
HETATM   29  H16 UNL     1      25.056  -0.107  55.990  1.00  0.00     0.244 HD
ENDBRANCH  26  28
ENDBRANCH  10  26
TORSDOF 7
ENDMDL
MODEL 6
REMARK VINA RESULT:      -7.7      3.705      7.275
REMARK  7 active torsions:
REMARK  status: ('A' for Active; 'I' for Inactive)
REMARK    1  A    between atoms: O1_2  and  C2_3 
REMARK    2  A    between atoms: C2_3  and  C3_4 
REMARK    3  A    between atoms: C6_7  and  N1_8 
REMARK    4  A    between atoms: N1_8  and  C7_9 
REMARK    5  A    between atoms: C11_13  and  O2_14 
REMARK    6  A    between atoms: C17_23  and  N4_24 
REMARK    7  A    between atoms: N4_24  and  O4_25 
ROOT
HETATM    1  C3  UNL     1      25.050   0.610  53.257  1.00  0.00    -0.005 A 
HETATM    2  C4  UNL     1      23.902   0.694  52.496  1.00  0.00     0.029 A 
HETATM    3  C5  UNL     1      23.375   1.939  52.222  1.00  0.00     0.039 A 
HETATM    4  C6  UNL     1      22.230   1.938  51.458  1.00  0.00     0.142 A 
HETATM    5  N2  UNL     1      21.677   3.132  51.164  1.00  0.00    -0.224 NA
HETATM    6  C14 UNL     1      22.200   4.297  51.585  1.00  0.00     0.236 A 
HETATM    7  N3  UNL     1      23.326   4.280  52.336  1.00  0.00    -0.241 NA
HETATM    8  C15 UNL     1      23.928   3.122  52.665  1.00  0.00     0.074 A 
HETATM    9  C16 UNL     1      25.071   3.009  53.420  1.00  0.00     0.064 A 
HETATM   10  C17 UNL     1      25.636   1.787  53.722  1.00  0.00     0.065 A 
ENDROOT
BRANCH   4  11
HETATM   11  N1  UNL     1      21.538   0.815  50.926  1.00  0.00    -0.340 N 
HETATM   12  H7  UNL     1      21.842   0.141  50.198  1.00  0.00     0.167 HD
BRANCH  11  13
HETATM   13  C7  UNL     1      20.229   0.395  51.325  1.00  0.00     0.032 A 
HETATM   14  C8  UNL     1      19.207   0.570  50.499  1.00  0.00     0.008 A 
HETATM   15  C9  UNL     1      17.785   0.224  50.683  1.00  0.00     0.076 A 
HETATM   16  C10 UNL     1      17.588  -0.404  52.015  1.00  0.00     0.038 A 
HETATM   17  C11 UNL     1      16.753  -0.945  52.885  1.00  0.00     0.193 A 
HETATM   18  C12 UNL     1      18.709  -0.609  52.948  1.00  0.00     0.091 A 
HETATM   19  O3  UNL     1      17.766  -1.166  53.810  1.00  0.00    -0.287 OA
HETATM   20  C13 UNL     1      19.920  -0.237  52.619  1.00  0.00     0.067 A 
BRANCH  17  21
HETATM   21  O2  UNL     1      15.369  -1.171  52.813  1.00  0.00    -0.340 OA
HETATM   22  H11 UNL     1      15.038  -1.864  52.154  1.00  0.00     0.220 HD
ENDBRANCH  17  21
ENDBRANCH  11  13
ENDBRANCH   4  11
BRANCH   1  23
HETATM   23  C2  UNL     1      25.632  -0.738  53.562  1.00  0.00     0.208 C 
BRANCH  23  24
HETATM   24  O1  UNL     1      25.769  -0.891  54.919  1.00  0.00    -0.391 OA
HETATM   25  C1  UNL     1      24.532  -1.271  55.436  1.00  0.00     0.201 C 
ENDBRANCH  23  24
ENDBRANCH   1  23
BRANCH  10  26
HETATM   26  N4  UNL     1      26.823   1.710  54.509  1.00  0.00    -0.269 N 
HETATM   27  H15 UNL     1      26.664   0.829  55.044  1.00  0.00     0.194 HD
BRANCH  26  28
HETATM   28  O4  UNL     1      27.516   2.817  54.142  1.00  0.00    -0.289 OA
HETATM   29  H16 UNL     1      27.825   2.768  53.205  1.00  0.00     0.244 HD
ENDBRANCH  26  28
ENDBRANCH  10  26
TORSDOF 7
ENDMDL
MODEL 7
REMARK VINA RESULT:      -7.7      3.492      6.686
REMARK  7 active torsions:
REMARK  status: ('A' for Active; 'I' for Inactive)
REMARK    1  A    between atoms: O1_2  and  C2_3 
REMARK    2  A    between atoms: C2_3  and  C3_4 
REMARK    3  A    between atoms: C6_7  and  N1_8 
REMARK    4  A    between atoms: N1_8  and  C7_9 
REMARK    5  A    between atoms: C11_13  and  O2_14 
REMARK    6  A    between atoms: C17_23  and  N4_24 
REMARK    7  A    between atoms: N4_24  and  O4_25 
ROOT
HETATM    1  C3  UNL     1      21.921   2.181  50.699  1.00  0.00    -0.005 A 
HETATM    2  C4  UNL     1      22.688   1.266  51.390  1.00  0.00     0.029 A 
HETATM    3  C5  UNL     1      22.169   0.685  52.528  1.00  0.00     0.039 A 
HETATM    4  C6  UNL     1      22.996  -0.216  53.159  1.00  0.00     0.142 A 
HETATM    5  N2  UNL     1      22.532  -0.811  54.277  1.00  0.00    -0.224 NA
HETATM    6  C14 UNL     1      21.313  -0.554  54.781  1.00  0.00     0.236 A 
HETATM    7  N3  UNL     1      20.511   0.334  54.148  1.00  0.00    -0.241 NA
HETATM    8  C15 UNL     1      20.914   0.963  53.028  1.00  0.00     0.074 A 
HETATM    9  C16 UNL     1      20.171   1.877  52.321  1.00  0.00     0.064 A 
HETATM   10  C17 UNL     1      20.647   2.485  51.177  1.00  0.00     0.065 A 
ENDROOT
BRANCH   4  11
HETATM   11  N1  UNL     1      24.308  -0.611  52.776  1.00  0.00    -0.340 N 
HETATM   12  H7  UNL     1      24.606  -1.399  52.171  1.00  0.00     0.167 HD
BRANCH  11  13
HETATM   13  C7  UNL     1      25.514   0.047  53.182  1.00  0.00     0.032 A 
HETATM   14  C8  UNL     1      26.067  -0.264  54.345  1.00  0.00     0.008 A 
HETATM   15  C9  UNL     1      27.291   0.270  54.972  1.00  0.00     0.076 A 
HETATM   16  C10 UNL     1      27.906   1.291  54.084  1.00  0.00     0.038 A 
HETATM   17  C11 UNL     1      28.884   2.156  53.884  1.00  0.00     0.193 A 
HETATM   18  C12 UNL     1      27.308   1.651  52.788  1.00  0.00     0.091 A 
HETATM   19  O3  UNL     1      28.371   2.541  52.652  1.00  0.00    -0.287 OA
HETATM   20  C13 UNL     1      26.206   1.072  52.383  1.00  0.00     0.067 A 
BRANCH  17  21
HETATM   21  O2  UNL     1      29.991   2.494  54.680  1.00  0.00    -0.340 OA
HETATM   22  H11 UNL     1      30.294   3.459  54.682  1.00  0.00     0.220 HD
ENDBRANCH  17  21
ENDBRANCH  11  13
ENDBRANCH   4  11
BRANCH   1  23
HETATM   23  C2  UNL     1      22.475   2.820  49.461  1.00  0.00     0.208 C 
BRANCH  23  24
HETATM   24  O1  UNL     1      22.593   4.174  49.646  1.00  0.00    -0.391 OA
HETATM   25  C1  UNL     1      23.540   4.652  48.742  1.00  0.00     0.201 C 
ENDBRANCH  23  24
ENDBRANCH   1  23
BRANCH  10  26
HETATM   26  N4  UNL     1      19.846   3.430  50.470  1.00  0.00    -0.269 N 
HETATM   27  H15 UNL     1      19.434   2.836  49.717  1.00  0.00     0.194 HD
BRANCH  26  28
HETATM   28  O4  UNL     1      20.049   4.586  51.150  1.00  0.00    -0.289 OA
HETATM   29  H16 UNL     1      20.353   5.316  50.557  1.00  0.00     0.244 HD
ENDBRANCH  26  28
ENDBRANCH  10  26
TORSDOF 7
ENDMDL
MODEL 8
REMARK VINA RESULT:      -7.5      3.177      4.678
REMARK  7 active torsions:
REMARK  status: ('A' for Active; 'I' for Inactive)
REMARK    1  A    between atoms: O1_2  and  C2_3 
REMARK    2  A    between atoms: C2_3  and  C3_4 
REMARK    3  A    between atoms: C6_7  and  N1_8 
REMARK    4  A    between atoms: N1_8  and  C7_9 
REMARK    5  A    between atoms: C11_13  and  O2_14 
REMARK    6  A    between atoms: C17_23  and  N4_24 
REMARK    7  A    between atoms: N4_24  and  O4_25 
ROOT
HETATM    1  C3  UNL     1      20.273  -0.053  52.438  1.00  0.00    -0.005 A 
HETATM    2  C4  UNL     1      21.624   0.220  52.401  1.00  0.00     0.029 A 
HETATM    3  C5  UNL     1      22.435  -0.288  53.395  1.00  0.00     0.039 A 
HETATM    4  C6  UNL     1      23.769   0.030  53.287  1.00  0.00     0.142 A 
HETATM    5  N2  UNL     1      24.601  -0.444  54.236  1.00  0.00    -0.224 NA
HETATM    6  C14 UNL     1      24.175  -1.201  55.261  1.00  0.00     0.236 A 
HETATM    7  N3  UNL     1      22.859  -1.505  55.353  1.00  0.00    -0.241 NA
HETATM    8  C15 UNL     1      21.975  -1.063  54.438  1.00  0.00     0.074 A 
HETATM    9  C16 UNL     1      20.625  -1.321  54.451  1.00  0.00     0.064 A 
HETATM   10  C17 UNL     1      19.774  -0.834  53.480  1.00  0.00     0.065 A 
ENDROOT
BRANCH   4  11
HETATM   11  N1  UNL     1      24.400   0.812  52.280  1.00  0.00    -0.340 N 
HETATM   12  H7  UNL     1      25.101   0.527  51.570  1.00  0.00     0.167 HD
BRANCH  11  13
HETATM   13  C7  UNL     1      24.163   2.207  52.058  1.00  0.00     0.032 A 
HETATM   14  C8  UNL     1      24.061   3.025  53.096  1.00  0.00     0.008 A 
HETATM   15  C9  UNL     1      23.822   4.481  53.120  1.00  0.00     0.076 A 
HETATM   16  C10 UNL     1      23.696   4.993  51.731  1.00  0.00     0.038 A 
HETATM   17  C11 UNL     1      23.502   6.029  50.933  1.00  0.00     0.193 A 
HETATM   18  C12 UNL     1      23.807   4.102  50.564  1.00  0.00     0.091 A 
HETATM   19  O3  UNL     1      23.596   5.243  49.792  1.00  0.00    -0.287 OA
HETATM   20  C13 UNL     1      24.022   2.821  50.727  1.00  0.00     0.067 A 
BRANCH  17  21
HETATM   21  O2  UNL     1      23.288   7.386  51.224  1.00  0.00    -0.340 OA
HETATM   22  H11 UNL     1      22.741   7.612  52.045  1.00  0.00     0.220 HD
ENDBRANCH  17  21
ENDBRANCH  11  13
ENDBRANCH   4  11
BRANCH   1  23
HETATM   23  C2  UNL     1      19.382   0.495  51.363  1.00  0.00     0.208 C 
BRANCH  23  24
HETATM   24  O1  UNL     1      18.430   1.312  51.917  1.00  0.00    -0.391 OA
HETATM   25  C1  UNL     1      18.778   2.632  51.633  1.00  0.00     0.201 C 
ENDBRANCH  23  24
ENDBRANCH   1  23
BRANCH  10  26
HETATM   26  N4  UNL     1      18.378  -1.123  53.526  1.00  0.00    -0.269 N 
HETATM   27  H15 UNL     1      17.972  -0.270  53.086  1.00  0.00     0.194 HD
BRANCH  26  28
HETATM   28  O4  UNL     1      18.329  -2.344  54.117  1.00  0.00    -0.289 OA
HETATM   29  H16 UNL     1      17.403  -2.616  54.328  1.00  0.00     0.244 HD
ENDBRANCH  26  28
ENDBRANCH  10  26
TORSDOF 7
ENDMDL
MODEL 9
REMARK VINA RESULT:      -7.4      4.885      8.805
REMARK  7 active torsions:
REMARK  status: ('A' for Active; 'I' for Inactive)
REMARK    1  A    between atoms: O1_2  and  C2_3 
REMARK    2  A    between atoms: C2_3  and  C3_4 
REMARK    3  A    between atoms: C6_7  and  N1_8 
REMARK    4  A    between atoms: N1_8  and  C7_9 
REMARK    5  A    between atoms: C11_13  and  O2_14 
REMARK    6  A    between atoms: C17_23  and  N4_24 
REMARK    7  A    between atoms: N4_24  and  O4_25 
ROOT
HETATM    1  C3  UNL     1      31.553   5.500  47.727  1.00  0.00    -0.005 A 
HETATM    2  C4  UNL     1      30.232   5.887  47.825  1.00  0.00     0.029 A 
HETATM    3  C5  UNL     1      29.937   7.112  48.386  1.00  0.00     0.039 A 
HETATM    4  C6  UNL     1      28.598   7.425  48.448  1.00  0.00     0.142 A 
HETATM    5  N2  UNL     1      28.260   8.613  48.990  1.00  0.00    -0.224 NA
HETATM    6  C14 UNL     1      29.172   9.481  49.459  1.00  0.00     0.236 A 
HETATM    7  N3  UNL     1      30.485   9.158  49.391  1.00  0.00    -0.241 NA
HETATM    8  C15 UNL     1      30.890   7.988  48.863  1.00  0.00     0.074 A 
HETATM    9  C16 UNL     1      32.197   7.578  48.752  1.00  0.00     0.064 A 
HETATM   10  C17 UNL     1      32.542   6.362  48.199  1.00  0.00     0.065 A 
ENDROOT
BRANCH   4  11
HETATM   11  N1  UNL     1      27.499   6.639  48.005  1.00  0.00    -0.340 N 
HETATM   12  H7  UNL     1      27.067   6.586  47.063  1.00  0.00     0.167 HD
BRANCH  11  13
HETATM   13  C7  UNL     1      26.755   5.732  48.828  1.00  0.00     0.032 A 
HETATM   14  C8  UNL     1      27.137   4.466  48.914  1.00  0.00     0.008 A 
HETATM   15  C9  UNL     1      26.540   3.359  49.685  1.00  0.00     0.076 A 
HETATM   16  C10 UNL     1      25.351   3.849  50.431  1.00  0.00     0.038 A 
HETATM   17  C11 UNL     1      24.356   3.574  51.256  1.00  0.00     0.193 A 
HETATM   18  C12 UNL     1      24.910   5.252  50.349  1.00  0.00     0.091 A 
HETATM   19  O3  UNL     1      23.888   4.882  51.221  1.00  0.00    -0.287 OA
HETATM   20  C13 UNL     1      25.564   6.109  49.607  1.00  0.00     0.067 A 
BRANCH  17  21
HETATM   21  O2  UNL     1      23.988   2.374  51.884  1.00  0.00    -0.340 OA
HETATM   22  H11 UNL     1      24.058   2.328  52.893  1.00  0.00     0.220 HD
ENDBRANCH  17  21
ENDBRANCH  11  13
ENDBRANCH   4  11
BRANCH   1  23
HETATM   23  C2  UNL     1      31.885   4.170  47.119  1.00  0.00     0.208 C 
BRANCH  23  24
HETATM   24  O1  UNL     1      32.464   3.358  48.061  1.00  0.00    -0.391 OA
HETATM   25  C1  UNL     1      33.215   2.392  47.394  1.00  0.00     0.201 C 
ENDBRANCH  23  24
ENDBRANCH   1  23
BRANCH  10  26
HETATM   26  N4  UNL     1      33.910   5.970  48.101  1.00  0.00    -0.269 N 
HETATM   27  H15 UNL     1      34.148   6.276  47.133  1.00  0.00     0.194 HD
BRANCH  26  28
HETATM   28  O4  UNL     1      34.164   5.412  49.311  1.00  0.00    -0.289 OA
HETATM   29  H16 UNL     1      34.688   6.014  49.894  1.00  0.00     0.244 HD
ENDBRANCH  26  28
ENDBRANCH  10  26
TORSDOF 7
ENDMDL
