MODEL 1
REMARK VINA RESULT:      -6.7      0.000      0.000
REMARK  4 active torsions:
REMARK  status: ('A' for Active; 'I' for Inactive)
REMARK    1  A    between atoms: O1_2  and  C2_3 
REMARK    2  A    between atoms: C4_5  and  N1_6 
REMARK       I    between atoms: N2_9  and  C7_10 
REMARK    3  A    between atoms: C13_17  and  N3_18 
REMARK    4  A    between atoms: N3_18  and  C14_19 
ROOT
HETATM    1  C2  UNL     1      26.206   1.837  53.618  1.00  0.00     0.096 A 
HETATM    2  C3  UNL     1      25.303   2.564  52.941  1.00  0.00     0.068 A 
HETATM    3  C4  UNL     1      24.293   1.792  52.437  1.00  0.00     0.033 A 
HETATM    4  C11 UNL     1      24.294   0.410  52.658  1.00  0.00     0.031 A 
HETATM    5  C12 UNL     1      25.417  -0.069  53.431  1.00  0.00     0.034 A 
HETATM    6  C13 UNL     1      26.599   0.652  54.050  1.00  0.00     0.062 A 
ENDROOT
BRANCH   3   7
HETATM    7  N1  UNL     1      23.403   2.621  51.732  1.00  0.00    -0.378 N 
HETATM    8  C5  UNL     1      22.360   3.415  52.299  1.00  0.00     0.143 C 
HETATM    9  C6  UNL     1      22.407   4.857  51.830  1.00  0.00     0.145 C 
HETATM   10  N2  UNL     1      23.203   5.053  50.648  1.00  0.00    -0.349 N 
HETATM   11  C7  UNL     1      24.138   6.074  50.340  1.00  0.00     0.215 C 
HETATM   12  C9  UNL     1      22.878   3.959  49.759  1.00  0.00     0.145 C 
HETATM   13  C8  UNL     1      24.789   5.976  48.996  1.00  0.00     0.117 C 
HETATM   14  O2  UNL     1      24.355   6.974  51.191  1.00  0.00    -0.274 OA
HETATM   15  C10 UNL     1      23.480   2.706  50.312  1.00  0.00     0.143 C 
ENDBRANCH   3   7
BRANCH   1  16
HETATM   16  O1  UNL     1      27.391   2.313  54.285  1.00  0.00    -0.354 OA
HETATM   17  C1  UNL     1      28.528   2.511  53.509  1.00  0.00     0.210 C 
ENDBRANCH   1  16
BRANCH   6  18
HETATM   18  N3  UNL     1      27.011  -0.594  54.504  1.00  0.00    -0.378 N 
HETATM   19  H18 UNL     1      27.079  -1.311  55.209  1.00  0.00     0.160 HD
BRANCH  18  20
HETATM   20  C14 UNL     1      27.695  -1.075  53.304  1.00  0.00     0.205 C 
HETATM   21 BR1  UNL     1      29.632  -1.117  53.528  1.00  0.00    -0.075 Br
ENDBRANCH  18  20
ENDBRANCH   6  18
TORSDOF 4
ENDMDL
MODEL 2
REMARK VINA RESULT:      -6.7      1.655      2.242
REMARK  4 active torsions:
REMARK  status: ('A' for Active; 'I' for Inactive)
REMARK    1  A    between atoms: O1_2  and  C2_3 
REMARK    2  A    between atoms: C4_5  and  N1_6 
REMARK       I    between atoms: N2_9  and  C7_10 
REMARK    3  A    between atoms: C13_17  and  N3_18 
REMARK    4  A    between atoms: N3_18  and  C14_19 
ROOT
HETATM    1  C2  UNL     1      26.180   1.719  53.822  1.00  0.00     0.096 A 
HETATM    2  C3  UNL     1      25.191   2.492  53.344  1.00  0.00     0.068 A 
HETATM    3  C4  UNL     1      24.115   1.756  52.931  1.00  0.00     0.033 A 
HETATM    4  C11 UNL     1      24.142   0.360  53.036  1.00  0.00     0.031 A 
HETATM    5  C12 UNL     1      25.363  -0.172  53.596  1.00  0.00     0.034 A 
HETATM    6  C13 UNL     1      26.626   0.505  54.094  1.00  0.00     0.062 A 
ENDROOT
BRANCH   3   7
HETATM    7  N1  UNL     1      23.136   2.633  52.433  1.00  0.00    -0.378 N 
HETATM    8  C5  UNL     1      23.321   4.012  52.112  1.00  0.00     0.143 C 
HETATM    9  C6  UNL     1      22.823   4.358  50.722  1.00  0.00     0.145 C 
HETATM   10  N2  UNL     1      21.932   3.374  50.168  1.00  0.00    -0.349 N 
HETATM   11  C7  UNL     1      21.876   2.831  48.859  1.00  0.00     0.215 C 
HETATM   12  C9  UNL     1      21.038   2.994  51.239  1.00  0.00     0.145 C 
HETATM   13  C8  UNL     1      20.801   1.819  48.619  1.00  0.00     0.117 C 
HETATM   14  O2  UNL     1      22.711   3.225  48.003  1.00  0.00    -0.274 OA
HETATM   15  C10 UNL     1      21.804   2.171  52.225  1.00  0.00     0.143 C 
ENDBRANCH   3   7
BRANCH   1  16
HETATM   16  O1  UNL     1      27.451   2.148  54.346  1.00  0.00    -0.354 OA
HETATM   17  C1  UNL     1      28.424   2.535  53.431  1.00  0.00     0.210 C 
ENDBRANCH   1  16
BRANCH   6  18
HETATM   18  N3  UNL     1      27.093  -0.770  54.380  1.00  0.00    -0.378 N 
HETATM   19  H18 UNL     1      27.164  -1.586  54.968  1.00  0.00     0.160 HD
BRANCH  18  20
HETATM   20  C14 UNL     1      27.892  -1.010  53.178  1.00  0.00     0.205 C 
HETATM   21 BR1  UNL     1      29.808  -0.977  53.548  1.00  0.00    -0.075 Br
ENDBRANCH  18  20
ENDBRANCH   6  18
TORSDOF 4
ENDMDL
MODEL 3
REMARK VINA RESULT:      -6.5      1.503      2.132
REMARK  4 active torsions:
REMARK  status: ('A' for Active; 'I' for Inactive)
REMARK    1  A    between atoms: O1_2  and  C2_3 
REMARK    2  A    between atoms: C4_5  and  N1_6 
REMARK       I    between atoms: N2_9  and  C7_10 
REMARK    3  A    between atoms: C13_17  and  N3_18 
REMARK    4  A    between atoms: N3_18  and  C14_19 
ROOT
HETATM    1  C2  UNL     1      24.660   0.055  53.443  1.00  0.00     0.096 A 
HETATM    2  C3  UNL     1      23.898   1.047  52.955  1.00  0.00     0.068 A 
HETATM    3  C4  UNL     1      24.528   1.736  51.956  1.00  0.00     0.033 A 
HETATM    4  C11 UNL     1      25.820   1.371  51.561  1.00  0.00     0.031 A 
HETATM    5  C12 UNL     1      26.370   0.250  52.290  1.00  0.00     0.034 A 
HETATM    6  C13 UNL     1      25.804  -0.604  53.408  1.00  0.00     0.062 A 
ENDROOT
BRANCH   3   7
HETATM    7  N1  UNL     1      23.675   2.762  51.511  1.00  0.00    -0.378 N 
HETATM    8  C5  UNL     1      22.973   3.693  52.335  1.00  0.00     0.143 C 
HETATM    9  C6  UNL     1      23.189   5.131  51.902  1.00  0.00     0.145 C 
HETATM   10  N2  UNL     1      23.704   5.259  50.565  1.00  0.00    -0.349 N 
HETATM   11  C7  UNL     1      24.720   6.108  50.058  1.00  0.00     0.215 C 
HETATM   12  C9  UNL     1      22.969   4.308  49.759  1.00  0.00     0.145 C 
HETATM   13  C8  UNL     1      25.001   5.986  48.594  1.00  0.00     0.117 C 
HETATM   14  O2  UNL     1      25.305   6.892  50.850  1.00  0.00    -0.274 OA
HETATM   15  C10 UNL     1      23.427   2.930  50.118  1.00  0.00     0.143 C 
ENDBRANCH   3   7
BRANCH   1  16
HETATM   16  O1  UNL     1      24.322  -0.874  54.491  1.00  0.00    -0.354 OA
HETATM   17  C1  UNL     1      22.973  -1.053  54.779  1.00  0.00     0.210 C 
ENDBRANCH   1  16
BRANCH   6  18
HETATM   18  N3  UNL     1      27.006  -1.298  53.369  1.00  0.00    -0.378 N 
HETATM   19  H18 UNL     1      27.565  -2.108  53.150  1.00  0.00     0.160 HD
BRANCH  18  20
HETATM   20  C14 UNL     1      27.884  -0.293  53.968  1.00  0.00     0.205 C 
HETATM   21 BR1  UNL     1      29.770  -0.684  53.659  1.00  0.00    -0.075 Br
ENDBRANCH  18  20
ENDBRANCH   6  18
TORSDOF 4
ENDMDL
MODEL 4
REMARK VINA RESULT:      -6.5      4.079      6.565
REMARK  4 active torsions:
REMARK  status: ('A' for Active; 'I' for Inactive)
REMARK    1  A    between atoms: O1_2  and  C2_3 
REMARK    2  A    between atoms: C4_5  and  N1_6 
REMARK       I    between atoms: N2_9  and  C7_10 
REMARK    3  A    between atoms: C13_17  and  N3_18 
REMARK    4  A    between atoms: N3_18  and  C14_19 
ROOT
HETATM    1  C2  UNL     1      21.455   1.215  53.121  1.00  0.00     0.096 A 
HETATM    2  C3  UNL     1      22.705   1.589  52.806  1.00  0.00     0.068 A 
HETATM    3  C4  UNL     1      23.638   0.685  53.234  1.00  0.00     0.033 A 
HETATM    4  C11 UNL     1      23.231  -0.468  53.916  1.00  0.00     0.031 A 
HETATM    5  C12 UNL     1      21.802  -0.578  54.099  1.00  0.00     0.034 A 
HETATM    6  C13 UNL     1      20.657   0.328  53.688  1.00  0.00     0.062 A 
ENDROOT
BRANCH   3   7
HETATM    7  N1  UNL     1      24.915   1.155  52.881  1.00  0.00    -0.378 N 
HETATM    8  C5  UNL     1      25.570   2.304  53.419  1.00  0.00     0.143 C 
HETATM    9  C6  UNL     1      26.977   2.000  53.899  1.00  0.00     0.145 C 
HETATM   10  N2  UNL     1      27.510   0.769  53.379  1.00  0.00    -0.349 N 
HETATM   11  C7  UNL     1      28.246  -0.251  54.031  1.00  0.00     0.215 C 
HETATM   12  C9  UNL     1      27.143   0.734  51.980  1.00  0.00     0.145 C 
HETATM   13  C8  UNL     1      28.658  -1.406  53.174  1.00  0.00     0.117 C 
HETATM   14  O2  UNL     1      28.502  -0.125  55.257  1.00  0.00    -0.274 OA
HETATM   15  C10 UNL     1      25.673   0.479  51.882  1.00  0.00     0.143 C 
ENDBRANCH   3   7
BRANCH   1  16
HETATM   16  O1  UNL     1      20.231   1.915  52.826  1.00  0.00    -0.354 OA
HETATM   17  C1  UNL     1      20.336   3.207  52.324  1.00  0.00     0.210 C 
ENDBRANCH   1  16
BRANCH   6  18
HETATM   18  N3  UNL     1      19.819  -0.605  54.283  1.00  0.00    -0.378 N 
HETATM   19  H18 UNL     1      19.500  -1.147  55.071  1.00  0.00     0.160 HD
BRANCH  18  20
HETATM   20  C14 UNL     1      18.987  -0.952  53.131  1.00  0.00     0.205 C 
HETATM   21 BR1  UNL     1      17.777  -2.434  53.516  1.00  0.00    -0.075 Br
ENDBRANCH  18  20
ENDBRANCH   6  18
TORSDOF 4
ENDMDL
MODEL 5
REMARK VINA RESULT:      -6.4      2.405      3.522
REMARK  4 active torsions:
REMARK  status: ('A' for Active; 'I' for Inactive)
REMARK    1  A    between atoms: O1_2  and  C2_3 
REMARK    2  A    between atoms: C4_5  and  N1_6 
REMARK       I    between atoms: N2_9  and  C7_10 
REMARK    3  A    between atoms: C13_17  and  N3_18 
REMARK    4  A    between atoms: N3_18  and  C14_19 
ROOT
HETATM    1  C2  UNL     1      26.156   0.277  54.159  1.00  0.00     0.096 A 
HETATM    2  C3  UNL     1      25.278   1.016  53.463  1.00  0.00     0.068 A 
HETATM    3  C4  UNL     1      25.887   2.030  52.777  1.00  0.00     0.033 A 
HETATM    4  C11 UNL     1      27.275   2.193  52.857  1.00  0.00     0.031 A 
HETATM    5  C12 UNL     1      27.941   1.224  53.698  1.00  0.00     0.034 A 
HETATM    6  C13 UNL     1      27.410   0.059  54.513  1.00  0.00     0.062 A 
ENDROOT
BRANCH   3   7
HETATM    7  N1  UNL     1      24.903   2.763  52.091  1.00  0.00    -0.378 N 
HETATM    8  C5  UNL     1      24.773   2.880  50.673  1.00  0.00     0.143 C 
HETATM    9  C6  UNL     1      23.368   2.569  50.191  1.00  0.00     0.145 C 
HETATM   10  N2  UNL     1      22.379   2.608  51.234  1.00  0.00    -0.349 N 
HETATM   11  C7  UNL     1      21.302   1.725  51.500  1.00  0.00     0.215 C 
HETATM   12  C9  UNL     1      22.683   3.775  52.033  1.00  0.00     0.145 C 
HETATM   13  C8  UNL     1      20.449   2.075  52.679  1.00  0.00     0.117 C 
HETATM   14  O2  UNL     1      21.133   0.731  50.747  1.00  0.00    -0.274 OA
HETATM   15  C10 UNL     1      23.925   3.500  52.819  1.00  0.00     0.143 C 
ENDBRANCH   3   7
BRANCH   1  16
HETATM   16  O1  UNL     1      25.875  -0.867  54.988  1.00  0.00    -0.354 OA
HETATM   17  C1  UNL     1      24.542  -1.133  55.284  1.00  0.00     0.210 C 
ENDBRANCH   1  16
BRANCH   6  18
HETATM   18  N3  UNL     1      28.729  -0.169  54.883  1.00  0.00    -0.378 N 
HETATM   19  H18 UNL     1      29.475  -0.200  55.560  1.00  0.00     0.160 HD
BRANCH  18  20
HETATM   20  C14 UNL     1      29.278  -0.569  53.588  1.00  0.00     0.205 C 
HETATM   21 BR1  UNL     1      28.888  -2.434  53.166  1.00  0.00    -0.075 Br
ENDBRANCH  18  20
ENDBRANCH   6  18
TORSDOF 4
ENDMDL
MODEL 6
REMARK VINA RESULT:      -6.3      2.191      3.197
REMARK  4 active torsions:
REMARK  status: ('A' for Active; 'I' for Inactive)
REMARK    1  A    between atoms: O1_2  and  C2_3 
REMARK    2  A    between atoms: C4_5  and  N1_6 
REMARK       I    between atoms: N2_9  and  C7_10 
REMARK    3  A    between atoms: C13_17  and  N3_18 
REMARK    4  A    between atoms: N3_18  and  C14_19 
ROOT
HETATM    1  C2  UNL     1      24.895   0.339  53.180  1.00  0.00     0.096 A 
HETATM    2  C3  UNL     1      24.314   1.425  52.643  1.00  0.00     0.068 A 
HETATM    3  C4  UNL     1      25.125   2.046  51.734  1.00  0.00     0.033 A 
HETATM    4  C11 UNL     1      26.398   1.529  51.465  1.00  0.00     0.031 A 
HETATM    5  C12 UNL     1      26.729   0.339  52.216  1.00  0.00     0.034 A 
HETATM    6  C13 UNL     1      25.948  -0.455  53.245  1.00  0.00     0.062 A 
ENDROOT
BRANCH   3   7
HETATM    7  N1  UNL     1      24.455   3.175  51.232  1.00  0.00    -0.378 N 
HETATM    8  C5  UNL     1      24.458   3.625  49.877  1.00  0.00     0.143 C 
HETATM    9  C6  UNL     1      23.060   3.872  49.342  1.00  0.00     0.145 C 
HETATM   10  N2  UNL     1      22.063   3.992  50.372  1.00  0.00    -0.349 N 
HETATM   11  C7  UNL     1      20.755   3.449  50.439  1.00  0.00     0.215 C 
HETATM   12  C9  UNL     1      22.653   4.811  51.409  1.00  0.00     0.145 C 
HETATM   13  C8  UNL     1      19.972   3.786  51.670  1.00  0.00     0.117 C 
HETATM   14  O2  UNL     1      20.343   2.740  49.485  1.00  0.00    -0.274 OA
HETATM   15  C10 UNL     1      23.700   4.005  52.110  1.00  0.00     0.143 C 
ENDBRANCH   3   7
BRANCH   1  16
HETATM   16  O1  UNL     1      24.338  -0.556  54.162  1.00  0.00    -0.354 OA
HETATM   17  C1  UNL     1      22.978  -0.836  54.076  1.00  0.00     0.210 C 
ENDBRANCH   1  16
BRANCH   6  18
HETATM   18  N3  UNL     1      27.055  -1.291  53.313  1.00  0.00    -0.378 N 
HETATM   19  H18 UNL     1      27.525  -2.168  53.149  1.00  0.00     0.160 HD
BRANCH  18  20
HETATM   20  C14 UNL     1      28.001  -0.387  53.966  1.00  0.00     0.205 C 
HETATM   21 BR1  UNL     1      29.855  -0.893  53.630  1.00  0.00    -0.075 Br
ENDBRANCH  18  20
ENDBRANCH   6  18
TORSDOF 4
ENDMDL
MODEL 7
REMARK VINA RESULT:      -6.2      3.274      6.725
REMARK  4 active torsions:
REMARK  status: ('A' for Active; 'I' for Inactive)
REMARK    1  A    between atoms: O1_2  and  C2_3 
REMARK    2  A    between atoms: C4_5  and  N1_6 
REMARK       I    between atoms: N2_9  and  C7_10 
REMARK    3  A    between atoms: C13_17  and  N3_18 
REMARK    4  A    between atoms: N3_18  and  C14_19 
ROOT
HETATM    1  C2  UNL     1      26.121   3.081  50.198  1.00  0.00     0.096 A 
HETATM    2  C3  UNL     1      26.757   2.680  51.311  1.00  0.00     0.068 A 
HETATM    3  C4  UNL     1      25.886   2.285  52.288  1.00  0.00     0.033 A 
HETATM    4  C11 UNL     1      24.506   2.332  52.055  1.00  0.00     0.031 A 
HETATM    5  C12 UNL     1      24.140   2.817  50.744  1.00  0.00     0.034 A 
HETATM    6  C13 UNL     1      24.977   3.286  49.569  1.00  0.00     0.062 A 
ENDROOT
BRANCH   3   7
HETATM    7  N1  UNL     1      26.625   1.897  53.419  1.00  0.00    -0.378 N 
HETATM    8  C5  UNL     1      26.132   1.158  54.537  1.00  0.00     0.143 C 
HETATM    9  C6  UNL     1      27.001  -0.040  54.870  1.00  0.00     0.145 C 
HETATM   10  N2  UNL     1      28.314   0.020  54.286  1.00  0.00    -0.349 N 
HETATM   11  C7  UNL     1      29.072  -0.994  53.647  1.00  0.00     0.215 C 
HETATM   12  C9  UNL     1      28.770   1.381  54.462  1.00  0.00     0.145 C 
HETATM   13  C8  UNL     1      30.425  -0.583  53.157  1.00  0.00     0.117 C 
HETATM   14  O2  UNL     1      28.575  -2.144  53.536  1.00  0.00    -0.274 OA
HETATM   15  C10 UNL     1      27.997   2.263  53.534  1.00  0.00     0.143 C 
ENDBRANCH   3   7
BRANCH   1  16
HETATM   16  O1  UNL     1      26.714   3.555  48.974  1.00  0.00    -0.354 OA
HETATM   17  C1  UNL     1      27.361   4.785  49.009  1.00  0.00     0.210 C 
ENDBRANCH   1  16
BRANCH   6  18
HETATM   18  N3  UNL     1      23.775   3.500  48.909  1.00  0.00    -0.378 N 
HETATM   19  H18 UNL     1      23.051   3.233  48.260  1.00  0.00     0.160 HD
BRANCH  18  20
HETATM   20  C14 UNL     1      23.410   4.794  49.485  1.00  0.00     0.205 C 
HETATM   21 BR1  UNL     1      23.911   6.283  48.329  1.00  0.00    -0.075 Br
ENDBRANCH  18  20
ENDBRANCH   6  18
TORSDOF 4
ENDMDL
MODEL 8
REMARK VINA RESULT:      -6.2      2.948      6.647
REMARK  4 active torsions:
REMARK  status: ('A' for Active; 'I' for Inactive)
REMARK    1  A    between atoms: O1_2  and  C2_3 
REMARK    2  A    between atoms: C4_5  and  N1_6 
REMARK       I    between atoms: N2_9  and  C7_10 
REMARK    3  A    between atoms: C13_17  and  N3_18 
REMARK    4  A    between atoms: N3_18  and  C14_19 
ROOT
HETATM    1  C2  UNL     1      24.077   4.369  51.253  1.00  0.00     0.096 A 
HETATM    2  C3  UNL     1      24.260   3.452  52.217  1.00  0.00     0.068 A 
HETATM    3  C4  UNL     1      25.269   2.581  51.914  1.00  0.00     0.033 A 
HETATM    4  C11 UNL     1      25.972   2.716  50.711  1.00  0.00     0.031 A 
HETATM    5  C12 UNL     1      25.528   3.814  49.882  1.00  0.00     0.034 A 
HETATM    6  C13 UNL     1      24.439   4.851  50.077  1.00  0.00     0.062 A 
ENDROOT
BRANCH   3   7
HETATM    7  N1  UNL     1      25.386   1.648  52.960  1.00  0.00    -0.378 N 
HETATM    8  C5  UNL     1      24.418   0.664  53.325  1.00  0.00     0.143 C 
HETATM    9  C6  UNL     1      25.016  -0.726  53.437  1.00  0.00     0.145 C 
HETATM   10  N2  UNL     1      26.450  -0.729  53.548  1.00  0.00    -0.349 N 
HETATM   11  C7  UNL     1      27.409  -1.562  52.918  1.00  0.00     0.215 C 
HETATM   12  C9  UNL     1      26.784   0.335  54.469  1.00  0.00     0.145 C 
HETATM   13  C8  UNL     1      28.838  -1.293  53.272  1.00  0.00     0.117 C 
HETATM   14  O2  UNL     1      27.010  -2.453  52.123  1.00  0.00    -0.274 OA
HETATM   15  C10 UNL     1      26.547   1.644  53.786  1.00  0.00     0.143 C 
ENDBRANCH   3   7
BRANCH   1  16
HETATM   16  O1  UNL     1      23.113   5.439  51.235  1.00  0.00    -0.354 OA
HETATM   17  C1  UNL     1      21.786   5.103  50.991  1.00  0.00     0.210 C 
ENDBRANCH   1  16
BRANCH   6  18
HETATM   18  N3  UNL     1      24.820   5.357  48.842  1.00  0.00    -0.378 N 
HETATM   19  H18 UNL     1      24.673   5.518  47.858  1.00  0.00     0.160 HD
BRANCH  18  20
HETATM   20  C14 UNL     1      26.102   5.957  49.211  1.00  0.00     0.205 C 
HETATM   21 BR1  UNL     1      25.881   7.670  50.118  1.00  0.00    -0.075 Br
ENDBRANCH  18  20
ENDBRANCH   6  18
TORSDOF 4
ENDMDL
MODEL 9
REMARK VINA RESULT:      -6.1      4.263      6.426
REMARK  4 active torsions:
REMARK  status: ('A' for Active; 'I' for Inactive)
REMARK    1  A    between atoms: O1_2  and  C2_3 
REMARK    2  A    between atoms: C4_5  and  N1_6 
REMARK       I    between atoms: N2_9  and  C7_10 
REMARK    3  A    between atoms: C13_17  and  N3_18 
REMARK    4  A    between atoms: N3_18  and  C14_19 
ROOT
HETATM    1  C2  UNL     1      21.972   0.484  53.005  1.00  0.00     0.096 A 
HETATM    2  C3  UNL     1      23.295   0.262  52.932  1.00  0.00     0.068 A 
HETATM    3  C4  UNL     1      23.730  -0.587  53.911  1.00  0.00     0.033 A 
HETATM    4  C11 UNL     1      22.821  -1.112  54.837  1.00  0.00     0.031 A 
HETATM    5  C12 UNL     1      21.456  -0.675  54.644  1.00  0.00     0.034 A 
HETATM    6  C13 UNL     1      20.827   0.250  53.621  1.00  0.00     0.062 A 
ENDROOT
BRANCH   3   7
HETATM    7  N1  UNL     1      25.120  -0.754  53.776  1.00  0.00    -0.378 N 
HETATM    8  C5  UNL     1      25.793  -1.366  52.675  1.00  0.00     0.143 C 
HETATM    9  C6  UNL     1      26.912  -0.502  52.124  1.00  0.00     0.145 C 
HETATM   10  N2  UNL     1      27.331   0.540  53.024  1.00  0.00    -0.349 N 
HETATM   11  C7  UNL     1      27.635   1.900  52.761  1.00  0.00     0.215 C 
HETATM   12  C9  UNL     1      27.392  -0.064  54.337  1.00  0.00     0.145 C 
HETATM   13  C8  UNL     1      28.054   2.713  53.946  1.00  0.00     0.117 C 
HETATM   14  O2  UNL     1      27.538   2.327  51.582  1.00  0.00    -0.274 OA
HETATM   15  C10 UNL     1      25.995  -0.312  54.809  1.00  0.00     0.143 C 
ENDBRANCH   3   7
BRANCH   1  16
HETATM   16  O1  UNL     1      21.174   1.314  52.141  1.00  0.00    -0.354 OA
HETATM   17  C1  UNL     1      21.156   2.680  52.401  1.00  0.00     0.210 C 
ENDBRANCH   1  16
BRANCH   6  18
HETATM   18  N3  UNL     1      19.623   0.005  54.267  1.00  0.00    -0.378 N 
HETATM   19  H18 UNL     1      18.908   0.227  54.943  1.00  0.00     0.160 HD
BRANCH  18  20
HETATM   20  C14 UNL     1      19.223  -1.221  53.575  1.00  0.00     0.205 C 
HETATM   21 BR1  UNL     1      17.433  -1.085  52.812  1.00  0.00    -0.075 Br
ENDBRANCH  18  20
ENDBRANCH   6  18
TORSDOF 4
ENDMDL
