MODEL 1
REMARK VINA RESULT:      -8.2      0.000      0.000
REMARK  7 active torsions:
REMARK  status: ('A' for Active; 'I' for Inactive)
REMARK    1  A    between atoms: N1_2  and  C3_4 
REMARK    2  A    between atoms: C3_4  and  C4_5 
REMARK    3  A    between atoms: C5_6  and  C6_7 
REMARK       I    between atoms: C6_7  and  N2_9 
REMARK    4  A    between atoms: N2_9  and  C7_10 
REMARK    5  A    between atoms: C12_16  and  C13_17 
REMARK    6  A    between atoms: C13_17  and  N4_21 
REMARK    7  A    between atoms: N4_21  and  C16_22 
ROOT
HETATM    1  C13 UNL     1      23.849   0.290  53.044  1.00  0.00     0.045 C 
HETATM    2  C14 UNL     1      23.886  -0.668  53.940  1.00  0.00     0.123 C 
HETATM    3  C15 UNL     1      22.780  -1.136  54.675  1.00  0.00     0.090 C 
HETATM    4  N3  UNL     1      21.859  -1.517  55.291  1.00  0.00    -0.192 NA
ENDROOT
BRANCH   1   5
HETATM    5  C12 UNL     1      22.709   1.080  52.597  1.00  0.00     0.069 C 
HETATM    6  C11 UNL     1      22.466   2.351  52.367  1.00  0.00     0.103 A 
HETATM    7  C7  UNL     1      21.204   2.900  51.914  1.00  0.00     0.069 A 
HETATM    8  O2  UNL     1      23.569   3.154  52.606  1.00  0.00    -0.320 OA
HETATM    9  C8  UNL     1      21.258   4.210  51.771  1.00  0.00     0.034 A 
HETATM   10  C9  UNL     1      22.394   5.071  52.013  1.00  0.00     0.027 A 
HETATM   11  C10 UNL     1      23.535   4.548  52.425  1.00  0.00     0.142 A 
BRANCH   7  12
HETATM   12  N2  UNL     1      20.111   2.061  51.683  1.00  0.00    -0.321 N 
HETATM   13  C6  UNL     1      19.746   1.370  50.509  1.00  0.00     0.245 C 
HETATM   14  O1  UNL     1      20.433   1.456  49.467  1.00  0.00    -0.268 OA
HETATM   15  H11 UNL     1      19.415   1.860  52.421  1.00  0.00     0.169 HD
BRANCH  13  16
HETATM   16  C5  UNL     1      18.571   0.509  50.378  1.00  0.00     0.072 C 
HETATM   17  C4  UNL     1      17.800   0.245  51.408  1.00  0.00     0.008 C 
BRANCH  17  18
HETATM   18  C3  UNL     1      16.617  -0.634  51.235  1.00  0.00     0.299 C 
BRANCH  18  19
HETATM   19  N1  UNL     1      16.369  -1.236  52.535  1.00  0.00     0.083 N 
HETATM   20  C1  UNL     1      15.594  -2.440  52.434  1.00  0.00     0.309 C 
HETATM   21  C2  UNL     1      17.660  -1.515  53.166  1.00  0.00     0.309 C 
ENDBRANCH  18  19
ENDBRANCH  17  18
ENDBRANCH  13  16
ENDBRANCH   7  12
ENDBRANCH   1   5
BRANCH   1  22
HETATM   22  N4  UNL     1      24.990   0.734  52.322  1.00  0.00    -0.356 N 
HETATM   23  H17 UNL     1      24.783   1.365  51.525  1.00  0.00     0.166 HD
BRANCH  22  24
HETATM   24  C16 UNL     1      26.301   0.311  52.712  1.00  0.00     0.034 A 
HETATM   25  C17 UNL     1      26.764  -0.996  52.521  1.00  0.00     0.032 A 
HETATM   26  C18 UNL     1      28.055  -1.313  52.933  1.00  0.00     0.046 A 
HETATM   27  C19 UNL     1      28.893  -0.394  53.520  1.00  0.00     0.138 A 
HETATM   28  F1  UNL     1      30.152  -0.699  53.925  1.00  0.00    -0.204 F 
HETATM   29  C20 UNL     1      28.425   0.885  53.701  1.00  0.00     0.074 A 
HETATM   30 CL1  UNL     1      29.408   2.147  54.442  1.00  0.00    -0.081 Cl
HETATM   31  C21 UNL     1      27.145   1.227  53.300  1.00  0.00     0.056 A 
ENDBRANCH  22  24
ENDBRANCH   1  22
TORSDOF 7
ENDMDL
MODEL 2
REMARK VINA RESULT:      -8.2      4.247      7.944
REMARK  7 active torsions:
REMARK  status: ('A' for Active; 'I' for Inactive)
REMARK    1  A    between atoms: N1_2  and  C3_4 
REMARK    2  A    between atoms: C3_4  and  C4_5 
REMARK    3  A    between atoms: C5_6  and  C6_7 
REMARK       I    between atoms: C6_7  and  N2_9 
REMARK    4  A    between atoms: N2_9  and  C7_10 
REMARK    5  A    between atoms: C12_16  and  C13_17 
REMARK    6  A    between atoms: C13_17  and  N4_21 
REMARK    7  A    between atoms: N4_21  and  C16_22 
ROOT
HETATM    1  C13 UNL     1      23.688   1.878  51.967  1.00  0.00     0.045 C 
HETATM    2  C14 UNL     1      22.743   1.097  51.501  1.00  0.00     0.123 C 
HETATM    3  C15 UNL     1      22.082   1.266  50.269  1.00  0.00     0.090 C 
HETATM    4  N3  UNL     1      21.528   1.415  49.247  1.00  0.00    -0.192 NA
ENDROOT
BRANCH   1   5
HETATM    5  C12 UNL     1      24.273   3.067  51.360  1.00  0.00     0.069 C 
HETATM    6  C11 UNL     1      23.893   4.306  51.141  1.00  0.00     0.103 A 
HETATM    7  C7  UNL     1      24.689   5.329  50.494  1.00  0.00     0.069 A 
HETATM    8  O2  UNL     1      22.611   4.557  51.599  1.00  0.00    -0.320 OA
HETATM    9  C8  UNL     1      24.044   6.478  50.412  1.00  0.00     0.034 A 
HETATM   10  C9  UNL     1      22.708   6.767  50.882  1.00  0.00     0.027 A 
HETATM   11  C10 UNL     1      22.002   5.817  51.469  1.00  0.00     0.142 A 
BRANCH   7  12
HETATM   12  N2  UNL     1      25.980   5.042  50.042  1.00  0.00    -0.321 N 
HETATM   13  C6  UNL     1      26.670   5.554  48.924  1.00  0.00     0.245 C 
HETATM   14  O1  UNL     1      26.137   6.390  48.161  1.00  0.00    -0.268 OA
HETATM   15  H11 UNL     1      26.590   4.369  50.535  1.00  0.00     0.169 HD
BRANCH  13  16
HETATM   16  C5  UNL     1      28.032   5.183  48.542  1.00  0.00     0.072 C 
HETATM   17  C4  UNL     1      28.927   6.095  48.235  1.00  0.00     0.008 C 
BRANCH  17  18
HETATM   18  C3  UNL     1      30.299   5.679  47.853  1.00  0.00     0.299 C 
BRANCH  18  19
HETATM   19  N1  UNL     1      31.157   6.045  48.968  1.00  0.00     0.083 N 
HETATM   20  C1  UNL     1      32.496   5.559  48.802  1.00  0.00     0.309 C 
HETATM   21  C2  UNL     1      31.157   7.504  49.086  1.00  0.00     0.309 C 
ENDBRANCH  18  19
ENDBRANCH  17  18
ENDBRANCH  13  16
ENDBRANCH   7  12
ENDBRANCH   1   5
BRANCH   1  22
HETATM   22  N4  UNL     1      24.331   1.672  53.217  1.00  0.00    -0.356 N 
HETATM   23  H17 UNL     1      23.769   1.943  54.046  1.00  0.00     0.166 HD
BRANCH  22  24
HETATM   24  C16 UNL     1      25.656   1.130  53.268  1.00  0.00     0.034 A 
HETATM   25  C17 UNL     1      26.770   1.884  53.653  1.00  0.00     0.032 A 
HETATM   26  C18 UNL     1      28.017   1.268  53.671  1.00  0.00     0.046 A 
HETATM   27  C19 UNL     1      28.199  -0.051  53.326  1.00  0.00     0.138 A 
HETATM   28  F1  UNL     1      29.414  -0.655  53.340  1.00  0.00    -0.204 F 
HETATM   29  C20 UNL     1      27.096  -0.779  52.950  1.00  0.00     0.074 A 
HETATM   30 CL1  UNL     1      27.206  -2.476  52.486  1.00  0.00    -0.081 Cl
HETATM   31  C21 UNL     1      25.843  -0.190  52.923  1.00  0.00     0.056 A 
ENDBRANCH  22  24
ENDBRANCH   1  22
TORSDOF 7
ENDMDL
MODEL 3
REMARK VINA RESULT:      -8.1      2.632      3.983
REMARK  7 active torsions:
REMARK  status: ('A' for Active; 'I' for Inactive)
REMARK    1  A    between atoms: N1_2  and  C3_4 
REMARK    2  A    between atoms: C3_4  and  C4_5 
REMARK    3  A    between atoms: C5_6  and  C6_7 
REMARK       I    between atoms: C6_7  and  N2_9 
REMARK    4  A    between atoms: N2_9  and  C7_10 
REMARK    5  A    between atoms: C12_16  and  C13_17 
REMARK    6  A    between atoms: C13_17  and  N4_21 
REMARK    7  A    between atoms: N4_21  and  C16_22 
ROOT
HETATM    1  C13 UNL     1      24.520   2.397  52.276  1.00  0.00     0.045 C 
HETATM    2  C14 UNL     1      25.021   2.815  51.138  1.00  0.00     0.123 C 
HETATM    3  C15 UNL     1      24.286   3.032  49.956  1.00  0.00     0.090 C 
HETATM    4  N3  UNL     1      23.672   3.204  48.974  1.00  0.00    -0.192 NA
ENDROOT
BRANCH   1   5
HETATM    5  C12 UNL     1      23.138   2.066  52.599  1.00  0.00     0.069 C 
HETATM    6  C11 UNL     1      22.515   1.086  53.216  1.00  0.00     0.103 A 
HETATM    7  C7  UNL     1      21.083   0.988  53.410  1.00  0.00     0.069 A 
HETATM    8  O2  UNL     1      23.385   0.116  53.683  1.00  0.00    -0.320 OA
HETATM    9  C8  UNL     1      20.747  -0.107  54.064  1.00  0.00     0.034 A 
HETATM   10  C9  UNL     1      21.633  -1.135  54.562  1.00  0.00     0.027 A 
HETATM   11  C10 UNL     1      22.935  -1.024  54.374  1.00  0.00     0.142 A 
BRANCH   7  12
HETATM   12  N2  UNL     1      20.233   1.986  52.925  1.00  0.00    -0.321 N 
HETATM   13  C6  UNL     1      19.544   2.055  51.696  1.00  0.00     0.245 C 
HETATM   14  O1  UNL     1      19.643   1.142  50.846  1.00  0.00    -0.268 OA
HETATM   15  H11 UNL     1      20.020   2.834  53.477  1.00  0.00     0.169 HD
BRANCH  13  16
HETATM   16  C5  UNL     1      18.670   3.155  51.290  1.00  0.00     0.072 C 
HETATM   17  C4  UNL     1      17.403   3.183  51.636  1.00  0.00     0.008 C 
BRANCH  17  18
HETATM   18  C3  UNL     1      16.548   4.317  51.204  1.00  0.00     0.299 C 
BRANCH  18  19
HETATM   19  N1  UNL     1      15.195   3.979  51.614  1.00  0.00     0.083 N 
HETATM   20  C1  UNL     1      14.823   2.653  51.210  1.00  0.00     0.309 C 
HETATM   21  C2  UNL     1      15.110   4.109  53.069  1.00  0.00     0.309 C 
ENDBRANCH  18  19
ENDBRANCH  17  18
ENDBRANCH  13  16
ENDBRANCH   7  12
ENDBRANCH   1   5
BRANCH   1  22
HETATM   22  N4  UNL     1      25.297   2.189  53.447  1.00  0.00    -0.356 N 
HETATM   23  H17 UNL     1      24.908   2.615  54.310  1.00  0.00     0.166 HD
BRANCH  22  24
HETATM   24  C16 UNL     1      26.517   1.441  53.382  1.00  0.00     0.034 A 
HETATM   25  C17 UNL     1      27.773   2.020  53.596  1.00  0.00     0.032 A 
HETATM   26  C18 UNL     1      28.902   1.211  53.510  1.00  0.00     0.046 A 
HETATM   27  C19 UNL     1      28.833  -0.133  53.225  1.00  0.00     0.138 A 
HETATM   28  F1  UNL     1      29.931  -0.926  53.138  1.00  0.00    -0.204 F 
HETATM   29  C20 UNL     1      27.592  -0.687  53.017  1.00  0.00     0.074 A 
HETATM   30 CL1  UNL     1      27.379  -2.396  52.644  1.00  0.00    -0.081 Cl
HETATM   31  C21 UNL     1      26.453   0.096  53.096  1.00  0.00     0.056 A 
ENDBRANCH  22  24
ENDBRANCH   1  22
TORSDOF 7
ENDMDL
MODEL 4
REMARK VINA RESULT:      -8.0      3.662      5.839
REMARK  7 active torsions:
REMARK  status: ('A' for Active; 'I' for Inactive)
REMARK    1  A    between atoms: N1_2  and  C3_4 
REMARK    2  A    between atoms: C3_4  and  C4_5 
REMARK    3  A    between atoms: C5_6  and  C6_7 
REMARK       I    between atoms: C6_7  and  N2_9 
REMARK    4  A    between atoms: N2_9  and  C7_10 
REMARK    5  A    between atoms: C12_16  and  C13_17 
REMARK    6  A    between atoms: C13_17  and  N4_21 
REMARK    7  A    between atoms: N4_21  and  C16_22 
ROOT
HETATM    1  C13 UNL     1      26.027   0.868  52.718  1.00  0.00     0.045 C 
HETATM    2  C14 UNL     1      27.119   0.144  52.786  1.00  0.00     0.123 C 
HETATM    3  C15 UNL     1      27.164  -1.264  52.764  1.00  0.00     0.090 C 
HETATM    4  N3  UNL     1      27.196  -2.435  52.753  1.00  0.00    -0.192 NA
ENDROOT
BRANCH   1   5
HETATM    5  C12 UNL     1      24.643   0.426  52.606  1.00  0.00     0.069 C 
HETATM    6  C11 UNL     1      23.792  -0.232  53.361  1.00  0.00     0.103 A 
HETATM    7  C7  UNL     1      22.426  -0.555  53.006  1.00  0.00     0.069 A 
HETATM    8  O2  UNL     1      24.340  -0.605  54.577  1.00  0.00    -0.320 OA
HETATM    9  C8  UNL     1      21.811  -1.224  53.963  1.00  0.00     0.034 A 
HETATM   10  C9  UNL     1      22.359  -1.626  55.240  1.00  0.00     0.027 A 
HETATM   11  C10 UNL     1      23.607  -1.319  55.542  1.00  0.00     0.142 A 
BRANCH   7  12
HETATM   12  N2  UNL     1      21.904  -0.164  51.770  1.00  0.00    -0.321 N 
HETATM   13  C6  UNL     1      21.373   1.082  51.378  1.00  0.00     0.245 C 
HETATM   14  O1  UNL     1      21.314   2.042  52.178  1.00  0.00    -0.268 OA
HETATM   15  H11 UNL     1      21.858  -0.816  50.969  1.00  0.00     0.169 HD
BRANCH  13  16
HETATM   16  C5  UNL     1      20.853   1.386  50.045  1.00  0.00     0.072 C 
HETATM   17  C4  UNL     1      21.528   2.136  49.203  1.00  0.00     0.008 C 
BRANCH  17  18
HETATM   18  C3  UNL     1      20.966   2.421  47.860  1.00  0.00     0.299 C 
BRANCH  18  19
HETATM   19  N1  UNL     1      21.587   3.660  47.419  1.00  0.00     0.083 N 
HETATM   20  C1  UNL     1      21.908   3.635  46.021  1.00  0.00     0.309 C 
HETATM   21  C2  UNL     1      20.668   4.762  47.710  1.00  0.00     0.309 C 
ENDBRANCH  18  19
ENDBRANCH  17  18
ENDBRANCH  13  16
ENDBRANCH   7  12
ENDBRANCH   1   5
BRANCH   1  22
HETATM   22  N4  UNL     1      26.025   2.289  52.744  1.00  0.00    -0.356 N 
HETATM   23  H17 UNL     1      26.338   2.709  53.639  1.00  0.00     0.166 HD
BRANCH  22  24
HETATM   24  C16 UNL     1      25.611   3.032  51.593  1.00  0.00     0.034 A 
HETATM   25  C17 UNL     1      26.361   3.082  50.412  1.00  0.00     0.032 A 
HETATM   26  C18 UNL     1      25.876   3.833  49.346  1.00  0.00     0.046 A 
HETATM   27  C19 UNL     1      24.689   4.527  49.405  1.00  0.00     0.138 A 
HETATM   28  F1  UNL     1      24.213   5.262  48.369  1.00  0.00    -0.204 F 
HETATM   29  C20 UNL     1      23.964   4.468  50.571  1.00  0.00     0.074 A 
HETATM   30 CL1  UNL     1      22.430   5.316  50.764  1.00  0.00    -0.081 Cl
HETATM   31  C21 UNL     1      24.424   3.729  51.647  1.00  0.00     0.056 A 
ENDBRANCH  22  24
ENDBRANCH   1  22
TORSDOF 7
ENDMDL
MODEL 5
REMARK VINA RESULT:      -7.7      5.112      8.934
REMARK  7 active torsions:
REMARK  status: ('A' for Active; 'I' for Inactive)
REMARK    1  A    between atoms: N1_2  and  C3_4 
REMARK    2  A    between atoms: C3_4  and  C4_5 
REMARK    3  A    between atoms: C5_6  and  C6_7 
REMARK       I    between atoms: C6_7  and  N2_9 
REMARK    4  A    between atoms: N2_9  and  C7_10 
REMARK    5  A    between atoms: C12_16  and  C13_17 
REMARK    6  A    between atoms: C13_17  and  N4_21 
REMARK    7  A    between atoms: N4_21  and  C16_22 
ROOT
HETATM    1  C13 UNL     1      24.463   3.152  51.074  1.00  0.00     0.045 C 
HETATM    2  C14 UNL     1      23.502   2.466  50.501  1.00  0.00     0.123 C 
HETATM    3  C15 UNL     1      23.006   2.692  49.202  1.00  0.00     0.090 C 
HETATM    4  N3  UNL     1      22.590   2.887  48.125  1.00  0.00    -0.192 NA
ENDROOT
BRANCH   1   5
HETATM    5  C12 UNL     1      25.231   4.270  50.541  1.00  0.00     0.069 C 
HETATM    6  C11 UNL     1      25.043   5.561  50.382  1.00  0.00     0.103 A 
HETATM    7  C7  UNL     1      25.996   6.487  49.805  1.00  0.00     0.069 A 
HETATM    8  O2  UNL     1      23.801   5.976  50.832  1.00  0.00    -0.320 OA
HETATM    9  C8  UNL     1      25.529   7.720  49.772  1.00  0.00     0.034 A 
HETATM   10  C9  UNL     1      24.239   8.180  50.235  1.00  0.00     0.027 A 
HETATM   11  C10 UNL     1      23.386   7.317  50.758  1.00  0.00     0.142 A 
BRANCH   7  12
HETATM   12  N2  UNL     1      27.241   6.035  49.360  1.00  0.00    -0.321 N 
HETATM   13  C6  UNL     1      27.997   6.450  48.244  1.00  0.00     0.245 C 
HETATM   14  O1  UNL     1      27.580   7.346  47.476  1.00  0.00    -0.268 OA
HETATM   15  H11 UNL     1      27.758   5.290  49.857  1.00  0.00     0.169 HD
BRANCH  13  16
HETATM   16  C5  UNL     1      29.302   5.906  47.870  1.00  0.00     0.072 C 
HETATM   17  C4  UNL     1      30.361   6.093  48.625  1.00  0.00     0.008 C 
BRANCH  17  18
HETATM   18  C3  UNL     1      31.668   5.526  48.211  1.00  0.00     0.299 C 
BRANCH  18  19
HETATM   19  N1  UNL     1      32.413   6.623  47.616  1.00  0.00     0.083 N 
HETATM   20  C1  UNL     1      33.060   7.436  48.606  1.00  0.00     0.309 C 
HETATM   21  C2  UNL     1      33.402   6.060  46.695  1.00  0.00     0.309 C 
ENDBRANCH  18  19
ENDBRANCH  17  18
ENDBRANCH  13  16
ENDBRANCH   7  12
ENDBRANCH   1   5
BRANCH   1  22
HETATM   22  N4  UNL     1      24.936   2.893  52.389  1.00  0.00    -0.356 N 
HETATM   23  H17 UNL     1      24.485   3.457  53.133  1.00  0.00     0.166 HD
BRANCH  22  24
HETATM   24  C16 UNL     1      25.959   1.915  52.610  1.00  0.00     0.034 A 
HETATM   25  C17 UNL     1      25.871   0.604  52.128  1.00  0.00     0.032 A 
HETATM   26  C18 UNL     1      26.916  -0.275  52.394  1.00  0.00     0.046 A 
HETATM   27  C19 UNL     1      28.031   0.093  53.111  1.00  0.00     0.138 A 
HETATM   28  F1  UNL     1      29.052  -0.761  53.376  1.00  0.00    -0.204 F 
HETATM   29  C20 UNL     1      28.103   1.384  53.578  1.00  0.00     0.074 A 
HETATM   30 CL1  UNL     1      29.481   1.969  54.508  1.00  0.00    -0.081 Cl
HETATM   31  C21 UNL     1      27.077   2.278  53.327  1.00  0.00     0.056 A 
ENDBRANCH  22  24
ENDBRANCH   1  22
TORSDOF 7
ENDMDL
MODEL 6
REMARK VINA RESULT:      -7.7      4.162      8.260
REMARK  7 active torsions:
REMARK  status: ('A' for Active; 'I' for Inactive)
REMARK    1  A    between atoms: N1_2  and  C3_4 
REMARK    2  A    between atoms: C3_4  and  C4_5 
REMARK    3  A    between atoms: C5_6  and  C6_7 
REMARK       I    between atoms: C6_7  and  N2_9 
REMARK    4  A    between atoms: N2_9  and  C7_10 
REMARK    5  A    between atoms: C12_16  and  C13_17 
REMARK    6  A    between atoms: C13_17  and  N4_21 
REMARK    7  A    between atoms: N4_21  and  C16_22 
ROOT
HETATM    1  C13 UNL     1      21.599  -0.074  52.803  1.00  0.00     0.045 C 
HETATM    2  C14 UNL     1      21.522  -1.053  53.674  1.00  0.00     0.123 C 
HETATM    3  C15 UNL     1      22.385  -1.232  54.774  1.00  0.00     0.090 C 
HETATM    4  N3  UNL     1      23.108  -1.382  55.682  1.00  0.00    -0.192 NA
ENDROOT
BRANCH   1   5
HETATM    5  C12 UNL     1      22.549   1.030  52.750  1.00  0.00     0.069 C 
HETATM    6  C11 UNL     1      22.490   2.322  52.521  1.00  0.00     0.103 A 
HETATM    7  C7  UNL     1      23.619   3.230  52.525  1.00  0.00     0.069 A 
HETATM    8  O2  UNL     1      21.202   2.758  52.263  1.00  0.00    -0.320 OA
HETATM    9  C8  UNL     1      23.256   4.471  52.260  1.00  0.00     0.034 A 
HETATM   10  C9  UNL     1      21.920   4.952  51.988  1.00  0.00     0.027 A 
HETATM   11  C10 UNL     1      20.906   4.105  51.990  1.00  0.00     0.142 A 
BRANCH   7  12
HETATM   12  N2  UNL     1      24.907   2.758  52.789  1.00  0.00    -0.321 N 
HETATM   13  C6  UNL     1      25.983   2.549  51.901  1.00  0.00     0.245 C 
HETATM   14  O1  UNL     1      25.869   2.790  50.679  1.00  0.00    -0.268 OA
HETATM   15  H11 UNL     1      25.205   2.497  53.744  1.00  0.00     0.169 HD
BRANCH  13  16
HETATM   16  C5  UNL     1      27.301   2.049  52.289  1.00  0.00     0.072 C 
HETATM   17  C4  UNL     1      27.692   2.058  53.543  1.00  0.00     0.008 C 
BRANCH  17  18
HETATM   18  C3  UNL     1      29.038   1.542  53.897  1.00  0.00     0.299 C 
BRANCH  18  19
HETATM   19  N1  UNL     1      28.815   0.300  54.620  1.00  0.00     0.083 N 
HETATM   20  C1  UNL     1      27.431   0.104  54.944  1.00  0.00     0.309 C 
HETATM   21  C2  UNL     1      29.305  -0.806  53.795  1.00  0.00     0.309 C 
ENDBRANCH  18  19
ENDBRANCH  17  18
ENDBRANCH  13  16
ENDBRANCH   7  12
ENDBRANCH   1   5
BRANCH   1  22
HETATM   22  N4  UNL     1      20.708   0.071  51.706  1.00  0.00    -0.356 N 
HETATM   23  H17 UNL     1      21.168   0.218  50.788  1.00  0.00     0.166 HD
BRANCH  22  24
HETATM   24  C16 UNL     1      19.292   0.010  51.911  1.00  0.00     0.034 A 
HETATM   25  C17 UNL     1      18.690  -0.907  52.780  1.00  0.00     0.032 A 
HETATM   26  C18 UNL     1      17.305  -0.889  52.913  1.00  0.00     0.046 A 
HETATM   27  C19 UNL     1      16.505  -0.007  52.224  1.00  0.00     0.138 A 
HETATM   28  F1  UNL     1      15.154   0.013  52.348  1.00  0.00    -0.204 F 
HETATM   29  C20 UNL     1      17.110   0.887  51.374  1.00  0.00     0.074 A 
HETATM   30 CL1  UNL     1      16.188   2.063  50.440  1.00  0.00    -0.081 Cl
HETATM   31  C21 UNL     1      18.486   0.891  51.224  1.00  0.00     0.056 A 
ENDBRANCH  22  24
ENDBRANCH   1  22
TORSDOF 7
ENDMDL
MODEL 7
REMARK VINA RESULT:      -7.6      2.781      4.963
REMARK  7 active torsions:
REMARK  status: ('A' for Active; 'I' for Inactive)
REMARK    1  A    between atoms: N1_2  and  C3_4 
REMARK    2  A    between atoms: C3_4  and  C4_5 
REMARK    3  A    between atoms: C5_6  and  C6_7 
REMARK       I    between atoms: C6_7  and  N2_9 
REMARK    4  A    between atoms: N2_9  and  C7_10 
REMARK    5  A    between atoms: C12_16  and  C13_17 
REMARK    6  A    between atoms: C13_17  and  N4_21 
REMARK    7  A    between atoms: N4_21  and  C16_22 
ROOT
HETATM    1  C13 UNL     1      25.251   2.165  52.498  1.00  0.00     0.045 C 
HETATM    2  C14 UNL     1      25.953   2.626  51.490  1.00  0.00     0.123 C 
HETATM    3  C15 UNL     1      25.418   3.085  50.270  1.00  0.00     0.090 C 
HETATM    4  N3  UNL     1      24.971   3.458  49.254  1.00  0.00    -0.192 NA
ENDROOT
BRANCH   1   5
HETATM    5  C12 UNL     1      23.806   2.016  52.614  1.00  0.00     0.069 C 
HETATM    6  C11 UNL     1      22.981   1.131  53.127  1.00  0.00     0.103 A 
HETATM    7  C7  UNL     1      21.535   1.218  53.109  1.00  0.00     0.069 A 
HETATM    8  O2  UNL     1      23.642   0.064  53.709  1.00  0.00    -0.320 OA
HETATM    9  C8  UNL     1      20.970   0.182  53.699  1.00  0.00     0.034 A 
HETATM   10  C9  UNL     1      21.636  -0.944  54.315  1.00  0.00     0.027 A 
HETATM   11  C10 UNL     1      22.956  -1.001  54.319  1.00  0.00     0.142 A 
BRANCH   7  12
HETATM   12  N2  UNL     1      20.898   2.309  52.511  1.00  0.00    -0.321 N 
HETATM   13  C6  UNL     1      20.333   2.421  51.224  1.00  0.00     0.245 C 
HETATM   14  O1  UNL     1      20.355   1.461  50.422  1.00  0.00    -0.268 OA
HETATM   15  H11 UNL     1      20.779   3.207  53.010  1.00  0.00     0.169 HD
BRANCH  13  16
HETATM   16  C5  UNL     1      19.683   3.621  50.699  1.00  0.00     0.072 C 
HETATM   17  C4  UNL     1      20.386   4.641  50.260  1.00  0.00     0.008 C 
BRANCH  17  18
HETATM   18  C3  UNL     1      19.689   5.841  49.734  1.00  0.00     0.299 C 
BRANCH  18  19
HETATM   19  N1  UNL     1      20.417   6.239  48.541  1.00  0.00     0.083 N 
HETATM   20  C1  UNL     1      21.822   5.968  48.650  1.00  0.00     0.309 C 
HETATM   21  C2  UNL     1      19.850   5.522  47.397  1.00  0.00     0.309 C 
ENDBRANCH  18  19
ENDBRANCH  17  18
ENDBRANCH  13  16
ENDBRANCH   7  12
ENDBRANCH   1   5
BRANCH   1  22
HETATM   22  N4  UNL     1      25.829   1.711  53.714  1.00  0.00    -0.356 N 
HETATM   23  H17 UNL     1      25.267   1.906  54.564  1.00  0.00     0.166 HD
BRANCH  22  24
HETATM   24  C16 UNL     1      27.095   1.041  53.707  1.00  0.00     0.034 A 
HETATM   25  C17 UNL     1      28.295   1.685  54.028  1.00  0.00     0.032 A 
HETATM   26  C18 UNL     1      29.476   0.950  53.992  1.00  0.00     0.046 A 
HETATM   27  C19 UNL     1      29.511  -0.383  53.653  1.00  0.00     0.138 A 
HETATM   28  F1  UNL     1      30.660  -1.104  53.615  1.00  0.00    -0.204 F 
HETATM   29  C20 UNL     1      28.324  -1.002  53.340  1.00  0.00     0.074 A 
HETATM   30 CL1  UNL     1      28.245  -2.704  52.891  1.00  0.00    -0.081 Cl
HETATM   31  C21 UNL     1      27.135  -0.293  53.368  1.00  0.00     0.056 A 
ENDBRANCH  22  24
ENDBRANCH   1  22
TORSDOF 7
ENDMDL
MODEL 8
REMARK VINA RESULT:      -7.6      6.311      9.004
REMARK  7 active torsions:
REMARK  status: ('A' for Active; 'I' for Inactive)
REMARK    1  A    between atoms: N1_2  and  C3_4 
REMARK    2  A    between atoms: C3_4  and  C4_5 
REMARK    3  A    between atoms: C5_6  and  C6_7 
REMARK       I    between atoms: C6_7  and  N2_9 
REMARK    4  A    between atoms: N2_9  and  C7_10 
REMARK    5  A    between atoms: C12_16  and  C13_17 
REMARK    6  A    between atoms: C13_17  and  N4_21 
REMARK    7  A    between atoms: N4_21  and  C16_22 
ROOT
HETATM    1  C13 UNL     1      28.894   7.319  48.259  1.00  0.00     0.045 C 
HETATM    2  C14 UNL     1      28.996   8.574  48.625  1.00  0.00     0.123 C 
HETATM    3  C15 UNL     1      28.168   9.217  49.567  1.00  0.00     0.090 C 
HETATM    4  N3  UNL     1      27.473   9.750  50.343  1.00  0.00    -0.192 NA
ENDROOT
BRANCH   1   5
HETATM    5  C12 UNL     1      27.943   6.310  48.709  1.00  0.00     0.069 C 
HETATM    6  C11 UNL     1      26.645   6.123  48.622  1.00  0.00     0.103 A 
HETATM    7  C7  UNL     1      25.917   5.000  49.176  1.00  0.00     0.069 A 
HETATM    8  O2  UNL     1      26.008   7.137  47.928  1.00  0.00    -0.320 OA
HETATM    9  C8  UNL     1      24.623   5.081  48.932  1.00  0.00     0.034 A 
HETATM   10  C9  UNL     1      23.933   6.127  48.211  1.00  0.00     0.027 A 
HETATM   11  C10 UNL     1      24.618   7.142  47.715  1.00  0.00     0.142 A 
BRANCH   7  12
HETATM   12  N2  UNL     1      26.591   3.993  49.872  1.00  0.00    -0.321 N 
HETATM   13  C6  UNL     1      26.106   3.109  50.858  1.00  0.00     0.245 C 
HETATM   14  O1  UNL     1      24.914   3.151  51.236  1.00  0.00    -0.268 OA
HETATM   15  H11 UNL     1      27.593   3.796  49.708  1.00  0.00     0.169 HD
BRANCH  13  16
HETATM   16  C5  UNL     1      26.906   2.082  51.524  1.00  0.00     0.072 C 
HETATM   17  C4  UNL     1      26.352   0.993  52.009  1.00  0.00     0.008 C 
BRANCH  17  18
HETATM   18  C3  UNL     1      27.198  -0.026  52.679  1.00  0.00     0.299 C 
BRANCH  18  19
HETATM   19  N1  UNL     1      27.496   0.504  54.000  1.00  0.00     0.083 N 
HETATM   20  C1  UNL     1      26.473   0.184  54.954  1.00  0.00     0.309 C 
HETATM   21  C2  UNL     1      28.783  -0.041  54.433  1.00  0.00     0.309 C 
ENDBRANCH  18  19
ENDBRANCH  17  18
ENDBRANCH  13  16
ENDBRANCH   7  12
ENDBRANCH   1   5
BRANCH   1  22
HETATM   22  N4  UNL     1      29.751   6.707  47.304  1.00  0.00    -0.356 N 
HETATM   23  H17 UNL     1      29.344   6.608  46.355  1.00  0.00     0.166 HD
BRANCH  22  24
HETATM   24  C16 UNL     1      31.065   6.281  47.681  1.00  0.00     0.034 A 
HETATM   25  C17 UNL     1      32.040   7.163  48.161  1.00  0.00     0.032 A 
HETATM   26  C18 UNL     1      33.289   6.653  48.501  1.00  0.00     0.046 A 
HETATM   27  C19 UNL     1      33.604   5.319  48.385  1.00  0.00     0.138 A 
HETATM   28  F1  UNL     1      34.821   4.818  48.713  1.00  0.00    -0.204 F 
HETATM   29  C20 UNL     1      32.636   4.465  47.911  1.00  0.00     0.074 A 
HETATM   30 CL1  UNL     1      32.924   2.737  47.719  1.00  0.00    -0.081 Cl
HETATM   31  C21 UNL     1      31.385   4.946  47.565  1.00  0.00     0.056 A 
ENDBRANCH  22  24
ENDBRANCH   1  22
TORSDOF 7
ENDMDL
MODEL 9
REMARK VINA RESULT:      -7.6      1.658      2.155
REMARK  7 active torsions:
REMARK  status: ('A' for Active; 'I' for Inactive)
REMARK    1  A    between atoms: N1_2  and  C3_4 
REMARK    2  A    between atoms: C3_4  and  C4_5 
REMARK    3  A    between atoms: C5_6  and  C6_7 
REMARK       I    between atoms: C6_7  and  N2_9 
REMARK    4  A    between atoms: N2_9  and  C7_10 
REMARK    5  A    between atoms: C12_16  and  C13_17 
REMARK    6  A    between atoms: C13_17  and  N4_21 
REMARK    7  A    between atoms: N4_21  and  C16_22 
ROOT
HETATM    1  C13 UNL     1      24.013   0.310  52.767  1.00  0.00     0.045 C 
HETATM    2  C14 UNL     1      24.059  -0.545  53.761  1.00  0.00     0.123 C 
HETATM    3  C15 UNL     1      22.959  -0.937  54.549  1.00  0.00     0.090 C 
HETATM    4  N3  UNL     1      22.043  -1.254  55.206  1.00  0.00    -0.192 NA
ENDROOT
BRANCH   1   5
HETATM    5  C12 UNL     1      22.866   1.041  52.244  1.00  0.00     0.069 C 
HETATM    6  C11 UNL     1      22.516   2.303  52.129  1.00  0.00     0.103 A 
HETATM    7  C7  UNL     1      21.277   2.785  51.552  1.00  0.00     0.069 A 
HETATM    8  O2  UNL     1      23.473   3.167  52.631  1.00  0.00    -0.320 OA
HETATM    9  C8  UNL     1      21.201   4.101  51.574  1.00  0.00     0.034 A 
HETATM   10  C9  UNL     1      22.185   5.026  52.091  1.00  0.00     0.027 A 
HETATM   11  C10 UNL     1      23.307   4.563  52.612  1.00  0.00     0.142 A 
BRANCH   7  12
HETATM   12  N2  UNL     1      20.331   1.884  51.055  1.00  0.00    -0.321 N 
HETATM   13  C6  UNL     1      19.509   0.975  51.752  1.00  0.00     0.245 C 
HETATM   14  O1  UNL     1      19.558   0.881  52.998  1.00  0.00    -0.268 OA
HETATM   15  H11 UNL     1      20.139   1.803  50.042  1.00  0.00     0.169 HD
BRANCH  13  16
HETATM   16  C5  UNL     1      18.542   0.074  51.125  1.00  0.00     0.072 C 
HETATM   17  C4  UNL     1      17.617   0.527  50.309  1.00  0.00     0.008 C 
BRANCH  17  18
HETATM   18  C3  UNL     1      16.653  -0.419  49.693  1.00  0.00     0.299 C 
BRANCH  18  19
HETATM   19  N1  UNL     1      15.674   0.400  48.998  1.00  0.00     0.083 N 
HETATM   20  C1  UNL     1      14.489   0.606  49.781  1.00  0.00     0.309 C 
HETATM   21  C2  UNL     1      16.297   1.683  48.672  1.00  0.00     0.309 C 
ENDBRANCH  18  19
ENDBRANCH  17  18
ENDBRANCH  13  16
ENDBRANCH   7  12
ENDBRANCH   1   5
BRANCH   1  22
HETATM   22  N4  UNL     1      25.148   0.680  51.997  1.00  0.00    -0.356 N 
HETATM   23  H17 UNL     1      24.970   0.781  50.980  1.00  0.00     0.166 HD
BRANCH  22  24
HETATM   24  C16 UNL     1      26.416   0.885  52.630  1.00  0.00     0.034 A 
HETATM   25  C17 UNL     1      26.822   2.128  53.129  1.00  0.00     0.032 A 
HETATM   26  C18 UNL     1      28.074   2.228  53.728  1.00  0.00     0.046 A 
HETATM   27  C19 UNL     1      28.927   1.156  53.849  1.00  0.00     0.138 A 
HETATM   28  F1  UNL     1      30.150   1.249  54.430  1.00  0.00    -0.204 F 
HETATM   29  C20 UNL     1      28.514  -0.058  53.353  1.00  0.00     0.074 A 
HETATM   30 CL1  UNL     1      29.522  -1.501  53.451  1.00  0.00    -0.081 Cl
HETATM   31  C21 UNL     1      27.274  -0.185  52.753  1.00  0.00     0.056 A 
ENDBRANCH  22  24
ENDBRANCH   1  22
TORSDOF 7
ENDMDL
