MODEL 1
REMARK VINA RESULT:      -6.6      0.000      0.000
REMARK  9 active torsions:
REMARK  status: ('A' for Active; 'I' for Inactive)
REMARK    1  A    between atoms: N1_1  and  C1_2 
REMARK    2  A    between atoms: C1_2  and  C2_3 
REMARK    3  A    between atoms: C1_2  and  C6_8 
REMARK    4  A    between atoms: C2_3  and  C3_4 
REMARK    5  A    between atoms: C3_4  and  C4_5 
REMARK    6  A    between atoms: C6_8  and  C7_9 
REMARK    7  A    between atoms: C10_12  and  O2_13 
REMARK    8  A    between atoms: O2_13  and  C11_14 
REMARK    9  A    between atoms: C11_14  and  C12_15 
ROOT
HETATM    1  C4  UNL     1      21.873  -0.589  53.471  1.00  0.00     0.032 C 
HETATM    2  C5  UNL     1      21.819  -1.531  54.384  1.00  0.00     0.217 C 
HETATM    3  O1  UNL     1      21.855  -2.342  55.313  1.00  0.00    -0.284 OA
ENDROOT
BRANCH   1   4
HETATM    4  C3  UNL     1      23.172  -0.173  52.955  1.00  0.00     0.033 C 
BRANCH   4   5
HETATM    5  C2  UNL     1      24.348  -0.556  53.792  1.00  0.00     0.039 C 
BRANCH   5   6
HETATM    6  C1  UNL     1      25.636   0.111  53.434  1.00  0.00     0.222 C 
BRANCH   6   7
HETATM    7  N1  UNL     1      26.647  -0.590  54.262  1.00  0.00     0.083 N 
HETATM    8  H1  UNL     1      26.164  -0.981  55.104  1.00  0.00     0.313 HD
HETATM    9  H2  UNL     1      27.111  -1.322  53.666  1.00  0.00     0.313 HD
ENDBRANCH   6   7
BRANCH   6  10
HETATM   10  C6  UNL     1      25.664   1.552  53.792  1.00  0.00     0.073 C 
BRANCH  10  11
HETATM   11  C7  UNL     1      25.591   2.358  52.500  1.00  0.00    -0.056 A 
HETATM   12  C8  UNL     1      26.539   2.019  51.551  1.00  0.00     0.010 A 
HETATM   13  C9  UNL     1      26.518   2.720  50.358  1.00  0.00     0.037 A 
HETATM   14  C10 UNL     1      25.562   3.703  50.193  1.00  0.00     0.069 A 
HETATM   15  C18 UNL     1      24.614   4.035  51.155  1.00  0.00     0.037 A 
HETATM   16  C19 UNL     1      24.623   3.342  52.351  1.00  0.00     0.010 A 
BRANCH  14  17
HETATM   17  O2  UNL     1      25.505   4.440  48.994  1.00  0.00    -0.347 OA
BRANCH  17  18
HETATM   18  C11 UNL     1      25.605   5.854  49.001  1.00  0.00     0.214 C 
BRANCH  18  19
HETATM   19  C12 UNL     1      26.925   6.209  48.426  1.00  0.00    -0.034 A 
HETATM   20  C13 UNL     1      28.030   5.407  48.581  1.00  0.00     0.009 A 
HETATM   21  C14 UNL     1      29.235   5.772  48.032  1.00  0.00     0.001 A 
HETATM   22  C15 UNL     1      29.337   6.967  47.312  1.00  0.00     0.000 A 
HETATM   23  C16 UNL     1      28.235   7.776  47.152  1.00  0.00     0.001 A 
HETATM   24  C17 UNL     1      27.014   7.398  47.712  1.00  0.00     0.009 A 
ENDBRANCH  18  19
ENDBRANCH  17  18
ENDBRANCH  14  17
ENDBRANCH  10  11
ENDBRANCH   6  10
ENDBRANCH   5   6
ENDBRANCH   4   5
ENDBRANCH   1   4
TORSDOF 9
ENDMDL
MODEL 2
REMARK VINA RESULT:      -6.6      2.798      9.323
REMARK  9 active torsions:
REMARK  status: ('A' for Active; 'I' for Inactive)
REMARK    1  A    between atoms: N1_1  and  C1_2 
REMARK    2  A    between atoms: C1_2  and  C2_3 
REMARK    3  A    between atoms: C1_2  and  C6_8 
REMARK    4  A    between atoms: C2_3  and  C3_4 
REMARK    5  A    between atoms: C3_4  and  C4_5 
REMARK    6  A    between atoms: C6_8  and  C7_9 
REMARK    7  A    between atoms: C10_12  and  O2_13 
REMARK    8  A    between atoms: O2_13  and  C11_14 
REMARK    9  A    between atoms: C11_14  and  C12_15 
ROOT
HETATM    1  C4  UNL     1      29.761   7.349  47.232  1.00  0.00     0.032 C 
HETATM    2  C5  UNL     1      31.044   7.403  47.501  1.00  0.00     0.217 C 
HETATM    3  O1  UNL     1      32.251   7.321  47.745  1.00  0.00    -0.284 OA
ENDROOT
BRANCH   1   4
HETATM    4  C3  UNL     1      28.899   6.501  48.047  1.00  0.00     0.033 C 
BRANCH   4   5
HETATM    5  C2  UNL     1      27.436   6.787  47.946  1.00  0.00     0.039 C 
BRANCH   5   6
HETATM    6  C1  UNL     1      26.550   5.906  48.765  1.00  0.00     0.222 C 
BRANCH   6   7
HETATM    7  N1  UNL     1      26.428   6.621  50.059  1.00  0.00     0.083 N 
HETATM    8  H1  UNL     1      27.110   7.415  50.058  1.00  0.00     0.313 HD
HETATM    9  H2  UNL     1      25.428   6.926  50.175  1.00  0.00     0.313 HD
ENDBRANCH   6   7
BRANCH   6  10
HETATM   10  C6  UNL     1      27.142   4.570  49.028  1.00  0.00     0.073 C 
BRANCH  10  11
HETATM   11  C7  UNL     1      26.094   3.724  49.743  1.00  0.00    -0.056 A 
HETATM   12  C8  UNL     1      26.586   2.936  50.768  1.00  0.00     0.010 A 
HETATM   13  C9  UNL     1      25.677   2.148  51.451  1.00  0.00     0.037 A 
HETATM   14  C10 UNL     1      24.350   2.198  51.071  1.00  0.00     0.069 A 
HETATM   15  C18 UNL     1      23.867   2.995  50.038  1.00  0.00     0.037 A 
HETATM   16  C19 UNL     1      24.764   3.788  49.347  1.00  0.00     0.010 A 
BRANCH  14  17
HETATM   17  O2  UNL     1      23.392   1.413  51.740  1.00  0.00    -0.347 OA
BRANCH  17  18
HETATM   18  C11 UNL     1      23.682   0.818  52.994  1.00  0.00     0.214 C 
BRANCH  18  19
HETATM   19  C12 UNL     1      22.500   0.016  53.390  1.00  0.00    -0.034 A 
HETATM   20  C13 UNL     1      22.591  -1.036  54.268  1.00  0.00     0.009 A 
HETATM   21  C14 UNL     1      21.470  -1.754  54.610  1.00  0.00     0.001 A 
HETATM   22  C15 UNL     1      20.231  -1.410  54.061  1.00  0.00     0.000 A 
HETATM   23  C16 UNL     1      20.131  -0.356  53.181  1.00  0.00     0.001 A 
HETATM   24  C17 UNL     1      21.274   0.368  52.839  1.00  0.00     0.009 A 
ENDBRANCH  18  19
ENDBRANCH  17  18
ENDBRANCH  14  17
ENDBRANCH  10  11
ENDBRANCH   6  10
ENDBRANCH   5   6
ENDBRANCH   4   5
ENDBRANCH   1   4
TORSDOF 9
ENDMDL
MODEL 3
REMARK VINA RESULT:      -6.5      4.504      9.433
REMARK  9 active torsions:
REMARK  status: ('A' for Active; 'I' for Inactive)
REMARK    1  A    between atoms: N1_1  and  C1_2 
REMARK    2  A    between atoms: C1_2  and  C2_3 
REMARK    3  A    between atoms: C1_2  and  C6_8 
REMARK    4  A    between atoms: C2_3  and  C3_4 
REMARK    5  A    between atoms: C3_4  and  C4_5 
REMARK    6  A    between atoms: C6_8  and  C7_9 
REMARK    7  A    between atoms: C10_12  and  O2_13 
REMARK    8  A    between atoms: O2_13  and  C11_14 
REMARK    9  A    between atoms: C11_14  and  C12_15 
ROOT
HETATM    1  C4  UNL     1      28.857   1.265  53.289  1.00  0.00     0.032 C 
HETATM    2  C5  UNL     1      29.298   1.852  54.377  1.00  0.00     0.217 C 
HETATM    3  O1  UNL     1      29.711   2.283  55.457  1.00  0.00    -0.284 OA
ENDROOT
BRANCH   1   4
HETATM    4  C3  UNL     1      27.666   0.427  53.365  1.00  0.00     0.033 C 
BRANCH   4   5
HETATM    5  C2  UNL     1      26.844   0.366  52.119  1.00  0.00     0.039 C 
BRANCH   5   6
HETATM    6  C1  UNL     1      25.892   1.500  51.920  1.00  0.00     0.222 C 
BRANCH   6   7
HETATM    7  N1  UNL     1      26.761   2.634  51.523  1.00  0.00     0.083 N 
HETATM    8  H1  UNL     1      26.211   3.518  51.626  1.00  0.00     0.313 HD
HETATM    9  H2  UNL     1      27.630   2.608  52.116  1.00  0.00     0.313 HD
ENDBRANCH   6   7
BRANCH   6  10
HETATM   10  C6  UNL     1      25.174   1.880  53.162  1.00  0.00     0.073 C 
BRANCH  10  11
HETATM   11  C7  UNL     1      23.837   1.146  53.174  1.00  0.00    -0.056 A 
HETATM   12  C8  UNL     1      23.891  -0.151  53.652  1.00  0.00     0.010 A 
HETATM   13  C9  UNL     1      22.706  -0.862  53.686  1.00  0.00     0.037 A 
HETATM   14  C10 UNL     1      21.555  -0.239  53.243  1.00  0.00     0.069 A 
HETATM   15  C18 UNL     1      21.512   1.066  52.764  1.00  0.00     0.037 A 
HETATM   16  C19 UNL     1      22.690   1.789  52.726  1.00  0.00     0.010 A 
BRANCH  14  17
HETATM   17  O2  UNL     1      20.326  -0.928  53.261  1.00  0.00    -0.347 OA
BRANCH  17  18
HETATM   18  C11 UNL     1      19.124  -0.286  52.871  1.00  0.00     0.214 C 
BRANCH  18  19
HETATM   19  C12 UNL     1      18.045  -1.302  52.909  1.00  0.00    -0.034 A 
HETATM   20  C13 UNL     1      16.845  -1.119  52.267  1.00  0.00     0.009 A 
HETATM   21  C14 UNL     1      15.871  -2.086  52.327  1.00  0.00     0.001 A 
HETATM   22  C15 UNL     1      16.104  -3.262  53.046  1.00  0.00     0.000 A 
HETATM   23  C16 UNL     1      17.304  -3.455  53.692  1.00  0.00     0.001 A 
HETATM   24  C17 UNL     1      18.288  -2.468  53.626  1.00  0.00     0.009 A 
ENDBRANCH  18  19
ENDBRANCH  17  18
ENDBRANCH  14  17
ENDBRANCH  10  11
ENDBRANCH   6  10
ENDBRANCH   5   6
ENDBRANCH   4   5
ENDBRANCH   1   4
TORSDOF 9
ENDMDL
MODEL 4
REMARK VINA RESULT:      -6.5      2.445      3.332
REMARK  9 active torsions:
REMARK  status: ('A' for Active; 'I' for Inactive)
REMARK    1  A    between atoms: N1_1  and  C1_2 
REMARK    2  A    between atoms: C1_2  and  C2_3 
REMARK    3  A    between atoms: C1_2  and  C6_8 
REMARK    4  A    between atoms: C2_3  and  C3_4 
REMARK    5  A    between atoms: C3_4  and  C4_5 
REMARK    6  A    between atoms: C6_8  and  C7_9 
REMARK    7  A    between atoms: C10_12  and  O2_13 
REMARK    8  A    between atoms: O2_13  and  C11_14 
REMARK    9  A    between atoms: C11_14  and  C12_15 
ROOT
HETATM    1  C4  UNL     1      24.741   0.361  52.910  1.00  0.00     0.032 C 
HETATM    2  C5  UNL     1      25.942   0.738  53.282  1.00  0.00     0.217 C 
HETATM    3  O1  UNL     1      27.092   0.966  53.668  1.00  0.00    -0.284 OA
ENDROOT
BRANCH   1   4
HETATM    4  C3  UNL     1      23.893  -0.351  53.860  1.00  0.00     0.033 C 
BRANCH   4   5
HETATM    5  C2  UNL     1      22.530  -0.706  53.362  1.00  0.00     0.039 C 
BRANCH   5   6
HETATM    6  C1  UNL     1      21.482   0.341  53.554  1.00  0.00     0.222 C 
BRANCH   6   7
HETATM    7  N1  UNL     1      20.476  -0.313  54.425  1.00  0.00     0.083 N 
HETATM    8  H1  UNL     1      19.555  -0.296  53.929  1.00  0.00     0.313 HD
HETATM    9  H2  UNL     1      20.814  -1.283  54.651  1.00  0.00     0.313 HD
ENDBRANCH   6   7
BRANCH   6  10
HETATM   10  C6  UNL     1      20.813   0.733  52.288  1.00  0.00     0.073 C 
BRANCH  10  11
HETATM   11  C7  UNL     1      21.755   1.661  51.528  1.00  0.00    -0.056 A 
HETATM   12  C8  UNL     1      22.086   1.236  50.254  1.00  0.00     0.010 A 
HETATM   13  C9  UNL     1      22.937   2.042  49.520  1.00  0.00     0.037 A 
HETATM   14  C10 UNL     1      23.398   3.207  50.100  1.00  0.00     0.069 A 
HETATM   15  C18 UNL     1      23.058   3.625  51.383  1.00  0.00     0.037 A 
HETATM   16  C19 UNL     1      22.208   2.830  52.127  1.00  0.00     0.010 A 
BRANCH  14  17
HETATM   17  O2  UNL     1      24.267   4.057  49.387  1.00  0.00    -0.347 OA
BRANCH  17  18
HETATM   18  C11 UNL     1      24.692   5.293  49.935  1.00  0.00     0.214 C 
BRANCH  18  19
HETATM   19  C12 UNL     1      26.013   5.611  49.342  1.00  0.00    -0.034 A 
HETATM   20  C13 UNL     1      26.911   4.633  48.989  1.00  0.00     0.009 A 
HETATM   21  C14 UNL     1      28.125   4.970  48.441  1.00  0.00     0.001 A 
HETATM   22  C15 UNL     1      28.447   6.316  48.243  1.00  0.00     0.000 A 
HETATM   23  C16 UNL     1      27.554   7.303  48.594  1.00  0.00     0.001 A 
HETATM   24  C17 UNL     1      26.323   6.952  49.149  1.00  0.00     0.009 A 
ENDBRANCH  18  19
ENDBRANCH  17  18
ENDBRANCH  14  17
ENDBRANCH  10  11
ENDBRANCH   6  10
ENDBRANCH   5   6
ENDBRANCH   4   5
ENDBRANCH   1   4
TORSDOF 9
ENDMDL
MODEL 5
REMARK VINA RESULT:      -6.3      3.366      9.234
REMARK  9 active torsions:
REMARK  status: ('A' for Active; 'I' for Inactive)
REMARK    1  A    between atoms: N1_1  and  C1_2 
REMARK    2  A    between atoms: C1_2  and  C2_3 
REMARK    3  A    between atoms: C1_2  and  C6_8 
REMARK    4  A    between atoms: C2_3  and  C3_4 
REMARK    5  A    between atoms: C3_4  and  C4_5 
REMARK    6  A    between atoms: C6_8  and  C7_9 
REMARK    7  A    between atoms: C10_12  and  O2_13 
REMARK    8  A    between atoms: O2_13  and  C11_14 
REMARK    9  A    between atoms: C11_14  and  C12_15 
ROOT
HETATM    1  C4  UNL     1      27.098  10.832  47.970  1.00  0.00     0.032 C 
HETATM    2  C5  UNL     1      27.697  11.800  48.625  1.00  0.00     0.217 C 
HETATM    3  O1  UNL     1      28.324  12.736  49.127  1.00  0.00    -0.284 OA
ENDROOT
BRANCH   1   4
HETATM    4  C3  UNL     1      27.907   9.847  47.261  1.00  0.00     0.033 C 
BRANCH   4   5
HETATM    5  C2  UNL     1      29.080   9.315  48.017  1.00  0.00     0.039 C 
BRANCH   5   6
HETATM    6  C1  UNL     1      28.856   8.015  48.719  1.00  0.00     0.222 C 
BRANCH   6   7
HETATM    7  N1  UNL     1      30.216   7.586  49.125  1.00  0.00     0.083 N 
HETATM    8  H1  UNL     1      30.132   6.677  49.637  1.00  0.00     0.313 HD
HETATM    9  H2  UNL     1      30.816   7.529  48.263  1.00  0.00     0.313 HD
ENDBRANCH   6   7
BRANCH   6  10
HETATM   10  C6  UNL     1      28.285   6.969  47.835  1.00  0.00     0.073 C 
BRANCH  10  11
HETATM   11  C7  UNL     1      27.252   6.187  48.639  1.00  0.00    -0.056 A 
HETATM   12  C8  UNL     1      27.477   4.823  48.704  1.00  0.00     0.010 A 
HETATM   13  C9  UNL     1      26.570   4.066  49.422  1.00  0.00     0.037 A 
HETATM   14  C10 UNL     1      25.507   4.713  50.022  1.00  0.00     0.069 A 
HETATM   15  C18 UNL     1      25.290   6.084  49.950  1.00  0.00     0.037 A 
HETATM   16  C19 UNL     1      26.189   6.854  49.235  1.00  0.00     0.010 A 
BRANCH  14  17
HETATM   17  O2  UNL     1      24.560   3.979  50.763  1.00  0.00    -0.347 OA
BRANCH  17  18
HETATM   18  C11 UNL     1      23.965   2.808  50.231  1.00  0.00     0.214 C 
BRANCH  18  19
HETATM   19  C12 UNL     1      23.915   1.801  51.318  1.00  0.00    -0.034 A 
HETATM   20  C13 UNL     1      25.028   1.453  52.045  1.00  0.00     0.009 A 
HETATM   21  C14 UNL     1      24.938   0.516  53.045  1.00  0.00     0.001 A 
HETATM   22  C15 UNL     1      23.708  -0.087  53.324  1.00  0.00     0.000 A 
HETATM   23  C16 UNL     1      22.588   0.256  52.602  1.00  0.00     0.001 A 
HETATM   24  C17 UNL     1      22.687   1.210  51.588  1.00  0.00     0.009 A 
ENDBRANCH  18  19
ENDBRANCH  17  18
ENDBRANCH  14  17
ENDBRANCH  10  11
ENDBRANCH   6  10
ENDBRANCH   5   6
ENDBRANCH   4   5
ENDBRANCH   1   4
TORSDOF 9
ENDMDL
MODEL 6
REMARK VINA RESULT:      -6.1      3.642      7.467
REMARK  9 active torsions:
REMARK  status: ('A' for Active; 'I' for Inactive)
REMARK    1  A    between atoms: N1_1  and  C1_2 
REMARK    2  A    between atoms: C1_2  and  C2_3 
REMARK    3  A    between atoms: C1_2  and  C6_8 
REMARK    4  A    between atoms: C2_3  and  C3_4 
REMARK    5  A    between atoms: C3_4  and  C4_5 
REMARK    6  A    between atoms: C6_8  and  C7_9 
REMARK    7  A    between atoms: C10_12  and  O2_13 
REMARK    8  A    between atoms: O2_13  and  C11_14 
REMARK    9  A    between atoms: C11_14  and  C12_15 
ROOT
HETATM    1  C4  UNL     1      23.694   4.397  49.144  1.00  0.00     0.032 C 
HETATM    2  C5  UNL     1      24.850   4.995  49.320  1.00  0.00     0.217 C 
HETATM    3  O1  UNL     1      25.875   5.633  49.575  1.00  0.00    -0.284 OA
ENDROOT
BRANCH   1   4
HETATM    4  C3  UNL     1      22.514   5.203  48.852  1.00  0.00     0.033 C 
BRANCH   4   5
HETATM    5  C2  UNL     1      21.618   5.474  50.016  1.00  0.00     0.039 C 
BRANCH   5   6
HETATM    6  C1  UNL     1      20.749   4.334  50.438  1.00  0.00     0.222 C 
BRANCH   6   7
HETATM    7  N1  UNL     1      19.370   4.830  50.213  1.00  0.00     0.083 N 
HETATM    8  H1  UNL     1      19.163   5.557  50.936  1.00  0.00     0.313 HD
HETATM    9  H2  UNL     1      19.304   5.188  49.226  1.00  0.00     0.313 HD
ENDBRANCH   6   7
BRANCH   6  10
HETATM   10  C6  UNL     1      20.891   3.996  51.876  1.00  0.00     0.073 C 
BRANCH  10  11
HETATM   11  C7  UNL     1      22.149   3.150  52.038  1.00  0.00    -0.056 A 
HETATM   12  C8  UNL     1      22.037   1.850  51.577  1.00  0.00     0.010 A 
HETATM   13  C9  UNL     1      23.151   1.038  51.699  1.00  0.00     0.037 A 
HETATM   14  C10 UNL     1      24.291   1.571  52.267  1.00  0.00     0.069 A 
HETATM   15  C18 UNL     1      24.392   2.880  52.727  1.00  0.00     0.037 A 
HETATM   16  C19 UNL     1      23.287   3.703  52.611  1.00  0.00     0.010 A 
BRANCH  14  17
HETATM   17  O2  UNL     1      25.447   0.779  52.410  1.00  0.00    -0.347 OA
BRANCH  17  18
HETATM   18  C11 UNL     1      25.550  -0.182  53.446  1.00  0.00     0.214 C 
BRANCH  18  19
HETATM   19  C12 UNL     1      26.926  -0.731  53.409  1.00  0.00    -0.034 A 
HETATM   20  C13 UNL     1      27.214  -1.946  52.835  1.00  0.00     0.009 A 
HETATM   21  C14 UNL     1      28.504  -2.418  52.820  1.00  0.00     0.001 A 
HETATM   22  C15 UNL     1      29.528  -1.658  53.394  1.00  0.00     0.000 A 
HETATM   23  C16 UNL     1      29.249  -0.440  53.971  1.00  0.00     0.001 A 
HETATM   24  C17 UNL     1      27.936   0.033  53.981  1.00  0.00     0.009 A 
ENDBRANCH  18  19
ENDBRANCH  17  18
ENDBRANCH  14  17
ENDBRANCH  10  11
ENDBRANCH   6  10
ENDBRANCH   5   6
ENDBRANCH   4   5
ENDBRANCH   1   4
TORSDOF 9
ENDMDL
MODEL 7
REMARK VINA RESULT:      -6.0      3.245      9.255
REMARK  9 active torsions:
REMARK  status: ('A' for Active; 'I' for Inactive)
REMARK    1  A    between atoms: N1_1  and  C1_2 
REMARK    2  A    between atoms: C1_2  and  C2_3 
REMARK    3  A    between atoms: C1_2  and  C6_8 
REMARK    4  A    between atoms: C2_3  and  C3_4 
REMARK    5  A    between atoms: C3_4  and  C4_5 
REMARK    6  A    between atoms: C6_8  and  C7_9 
REMARK    7  A    between atoms: C10_12  and  O2_13 
REMARK    8  A    between atoms: O2_13  and  C11_14 
REMARK    9  A    between atoms: C11_14  and  C12_15 
ROOT
HETATM    1  C4  UNL     1      25.139  10.222  47.257  1.00  0.00     0.032 C 
HETATM    2  C5  UNL     1      25.221  11.411  47.807  1.00  0.00     0.217 C 
HETATM    3  O1  UNL     1      25.358  12.569  48.212  1.00  0.00    -0.284 OA
ENDROOT
BRANCH   1   4
HETATM    4  C3  UNL     1      26.350   9.592  46.742  1.00  0.00     0.033 C 
BRANCH   4   5
HETATM    5  C2  UNL     1      27.299   9.083  47.777  1.00  0.00     0.039 C 
BRANCH   5   6
HETATM    6  C1  UNL     1      26.819   7.908  48.566  1.00  0.00     0.222 C 
BRANCH   6   7
HETATM    7  N1  UNL     1      27.375   8.133  49.922  1.00  0.00     0.083 N 
HETATM    8  H1  UNL     1      26.771   7.628  50.611  1.00  0.00     0.313 HD
HETATM    9  H2  UNL     1      28.377   7.811  49.926  1.00  0.00     0.313 HD
ENDBRANCH   6   7
BRANCH   6  10
HETATM   10  C6  UNL     1      27.343   6.615  48.059  1.00  0.00     0.073 C 
BRANCH  10  11
HETATM   11  C7  UNL     1      26.525   5.495  48.694  1.00  0.00    -0.056 A 
HETATM   12  C8  UNL     1      25.161   5.724  48.734  1.00  0.00     0.010 A 
HETATM   13  C9  UNL     1      24.372   4.739  49.299  1.00  0.00     0.037 A 
HETATM   14  C10 UNL     1      24.988   3.602  49.783  1.00  0.00     0.069 A 
HETATM   15  C18 UNL     1      26.361   3.383  49.737  1.00  0.00     0.037 A 
HETATM   16  C19 UNL     1      27.162   4.359  49.174  1.00  0.00     0.010 A 
BRANCH  14  17
HETATM   17  O2  UNL     1      24.221   2.575  50.366  1.00  0.00    -0.347 OA
BRANCH  17  18
HETATM   18  C11 UNL     1      23.426   2.819  51.513  1.00  0.00     0.214 C 
BRANCH  18  19
HETATM   19  C12 UNL     1      23.166   1.511  52.161  1.00  0.00    -0.034 A 
HETATM   20  C13 UNL     1      21.925   0.922  52.148  1.00  0.00     0.009 A 
HETATM   21  C14 UNL     1      21.726  -0.292  52.760  1.00  0.00     0.001 A 
HETATM   22  C15 UNL     1      22.793  -0.931  53.398  1.00  0.00     0.000 A 
HETATM   23  C16 UNL     1      24.040  -0.349  53.415  1.00  0.00     0.001 A 
HETATM   24  C17 UNL     1      24.234   0.884  52.791  1.00  0.00     0.009 A 
ENDBRANCH  18  19
ENDBRANCH  17  18
ENDBRANCH  14  17
ENDBRANCH  10  11
ENDBRANCH   6  10
ENDBRANCH   5   6
ENDBRANCH   4   5
ENDBRANCH   1   4
TORSDOF 9
ENDMDL
MODEL 8
REMARK VINA RESULT:      -6.0      3.529      8.357
REMARK  9 active torsions:
REMARK  status: ('A' for Active; 'I' for Inactive)
REMARK    1  A    between atoms: N1_1  and  C1_2 
REMARK    2  A    between atoms: C1_2  and  C2_3 
REMARK    3  A    between atoms: C1_2  and  C6_8 
REMARK    4  A    between atoms: C2_3  and  C3_4 
REMARK    5  A    between atoms: C3_4  and  C4_5 
REMARK    6  A    between atoms: C6_8  and  C7_9 
REMARK    7  A    between atoms: C10_12  and  O2_13 
REMARK    8  A    between atoms: O2_13  and  C11_14 
REMARK    9  A    between atoms: C11_14  and  C12_15 
ROOT
HETATM    1  C4  UNL     1      27.515   7.081  48.526  1.00  0.00     0.032 C 
HETATM    2  C5  UNL     1      27.652   5.778  48.607  1.00  0.00     0.217 C 
HETATM    3  O1  UNL     1      27.855   4.561  48.573  1.00  0.00    -0.284 OA
ENDROOT
BRANCH   1   4
HETATM    4  C3  UNL     1      27.041   7.670  47.279  1.00  0.00     0.033 C 
BRANCH   4   5
HETATM    5  C2  UNL     1      25.882   8.603  47.411  1.00  0.00     0.039 C 
BRANCH   5   6
HETATM    6  C1  UNL     1      24.547   8.022  47.072  1.00  0.00     0.222 C 
BRANCH   6   7
HETATM    7  N1  UNL     1      24.008   8.937  46.038  1.00  0.00     0.083 N 
HETATM    8  H1  UNL     1      23.974   9.902  46.442  1.00  0.00     0.313 HD
HETATM    9  H2  UNL     1      24.613   8.860  45.181  1.00  0.00     0.313 HD
ENDBRANCH   6   7
BRANCH   6  10
HETATM   10  C6  UNL     1      23.608   8.016  48.222  1.00  0.00     0.073 C 
BRANCH  10  11
HETATM   11  C7  UNL     1      23.905   6.781  49.065  1.00  0.00    -0.056 A 
HETATM   12  C8  UNL     1      24.075   7.027  50.416  1.00  0.00     0.010 A 
HETATM   13  C9  UNL     1      24.347   5.940  51.227  1.00  0.00     0.037 A 
HETATM   14  C10 UNL     1      24.430   4.691  50.643  1.00  0.00     0.069 A 
HETATM   15  C18 UNL     1      24.257   4.456  49.283  1.00  0.00     0.037 A 
HETATM   16  C19 UNL     1      23.985   5.533  48.461  1.00  0.00     0.010 A 
BRANCH  14  17
HETATM   17  O2  UNL     1      24.704   3.558  51.433  1.00  0.00    -0.347 OA
BRANCH  17  18
HETATM   18  C11 UNL     1      25.644   2.584  51.012  1.00  0.00     0.214 C 
BRANCH  18  19
HETATM   19  C12 UNL     1      25.491   1.405  51.898  1.00  0.00    -0.034 A 
HETATM   20  C13 UNL     1      24.328   1.154  52.586  1.00  0.00     0.009 A 
HETATM   21  C14 UNL     1      24.227   0.049  53.396  1.00  0.00     0.001 A 
HETATM   22  C15 UNL     1      25.313  -0.822  53.522  1.00  0.00     0.000 A 
HETATM   23  C16 UNL     1      26.481  -0.578  52.836  1.00  0.00     0.001 A 
HETATM   24  C17 UNL     1      26.576   0.545  52.014  1.00  0.00     0.009 A 
ENDBRANCH  18  19
ENDBRANCH  17  18
ENDBRANCH  14  17
ENDBRANCH  10  11
ENDBRANCH   6  10
ENDBRANCH   5   6
ENDBRANCH   4   5
ENDBRANCH   1   4
TORSDOF 9
ENDMDL
MODEL 9
REMARK VINA RESULT:      -5.9      4.926      7.286
REMARK  9 active torsions:
REMARK  status: ('A' for Active; 'I' for Inactive)
REMARK    1  A    between atoms: N1_1  and  C1_2 
REMARK    2  A    between atoms: C1_2  and  C2_3 
REMARK    3  A    between atoms: C1_2  and  C6_8 
REMARK    4  A    between atoms: C2_3  and  C3_4 
REMARK    5  A    between atoms: C3_4  and  C4_5 
REMARK    6  A    between atoms: C6_8  and  C7_9 
REMARK    7  A    between atoms: C10_12  and  O2_13 
REMARK    8  A    between atoms: O2_13  and  C11_14 
REMARK    9  A    between atoms: C11_14  and  C12_15 
ROOT
HETATM    1  C4  UNL     1      23.792   6.268  50.575  1.00  0.00     0.032 C 
HETATM    2  C5  UNL     1      23.607   5.498  51.622  1.00  0.00     0.217 C 
HETATM    3  O1  UNL     1      23.342   4.862  52.646  1.00  0.00    -0.284 OA
ENDROOT
BRANCH   1   4
HETATM    4  C3  UNL     1      24.089   7.682  50.776  1.00  0.00     0.033 C 
BRANCH   4   5
HETATM    5  C2  UNL     1      24.206   8.496  49.530  1.00  0.00     0.039 C 
BRANCH   5   6
HETATM    6  C1  UNL     1      25.590   8.642  48.985  1.00  0.00     0.222 C 
BRANCH   6   7
HETATM    7  N1  UNL     1      25.715  10.092  48.704  1.00  0.00     0.083 N 
HETATM    8  H1  UNL     1      25.707  10.603  49.618  1.00  0.00     0.313 HD
HETATM    9  H2  UNL     1      26.592  10.247  48.145  1.00  0.00     0.313 HD
ENDBRANCH   6   7
BRANCH   6  10
HETATM   10  C6  UNL     1      25.794   7.905  47.713  1.00  0.00     0.073 C 
BRANCH  10  11
HETATM   11  C7  UNL     1      27.090   7.111  47.833  1.00  0.00    -0.056 A 
HETATM   12  C8  UNL     1      26.968   5.894  48.479  1.00  0.00     0.010 A 
HETATM   13  C9  UNL     1      28.115   5.133  48.615  1.00  0.00     0.037 A 
HETATM   14  C10 UNL     1      29.297   5.631  48.102  1.00  0.00     0.069 A 
HETATM   15  C18 UNL     1      29.408   6.856  47.454  1.00  0.00     0.037 A 
HETATM   16  C19 UNL     1      28.270   7.628  47.311  1.00  0.00     0.010 A 
BRANCH  14  17
HETATM   17  O2  UNL     1      30.487   4.887  48.219  1.00  0.00    -0.347 OA
BRANCH  17  18
HETATM   18  C11 UNL     1      31.744   5.533  48.327  1.00  0.00     0.214 C 
BRANCH  18  19
HETATM   19  C12 UNL     1      32.717   4.749  47.530  1.00  0.00    -0.034 A 
HETATM   20  C13 UNL     1      32.894   3.399  47.713  1.00  0.00     0.009 A 
HETATM   21  C14 UNL     1      33.806   2.708  46.953  1.00  0.00     0.001 A 
HETATM   22  C15 UNL     1      34.559   3.384  45.988  1.00  0.00     0.000 A 
HETATM   23  C16 UNL     1      34.388   4.736  45.797  1.00  0.00     0.001 A 
HETATM   24  C17 UNL     1      33.459   5.430  46.573  1.00  0.00     0.009 A 
ENDBRANCH  18  19
ENDBRANCH  17  18
ENDBRANCH  14  17
ENDBRANCH  10  11
ENDBRANCH   6  10
ENDBRANCH   5   6
ENDBRANCH   4   5
ENDBRANCH   1   4
TORSDOF 9
ENDMDL
