MODEL 1
REMARK VINA RESULT:      -8.6      0.000      0.000
REMARK  5 active torsions:
REMARK  status: ('A' for Active; 'I' for Inactive)
REMARK    1  A    between atoms: C3_3  and  C4_4 
REMARK       I    between atoms: C4_4  and  N1_6 
REMARK    2  A    between atoms: N1_6  and  C5_7 
REMARK    3  A    between atoms: C5_7  and  C6_8 
REMARK    4  A    between atoms: C11_15  and  N4_16 
REMARK    5  A    between atoms: N4_16  and  C12_17 
ROOT
HETATM    1  C6  UNL     1      24.080  -0.004  53.291  1.00  0.00    -0.039 A 
HETATM    2  C7  UNL     1      22.862  -0.655  53.337  1.00  0.00     0.011 A 
HETATM    3  C8  UNL     1      21.728   0.056  53.008  1.00  0.00     0.033 A 
HETATM    4  C9  UNL     1      21.832   1.381  52.645  1.00  0.00     0.072 A 
HETATM    5  N2  UNL     1      20.665   2.014  52.333  1.00  0.00    -0.241 NA
HETATM    6  C10 UNL     1      20.688   3.321  51.965  1.00  0.00     0.236 A 
HETATM    7  N3  UNL     1      21.875   3.930  51.927  1.00  0.00    -0.224 NA
HETATM    8  C11 UNL     1      23.064   3.400  52.213  1.00  0.00     0.142 A 
HETATM    9  C18 UNL     1      23.026   2.082  52.582  1.00  0.00     0.039 A 
HETATM   10  C19 UNL     1      24.102   1.328  52.917  1.00  0.00     0.026 A 
ENDROOT
BRANCH   1  11
HETATM   11  C5  UNL     1      25.321  -0.750  53.643  1.00  0.00     0.161 C 
BRANCH  11  12
HETATM   12  N1  UNL     1      26.520  -0.106  53.136  1.00  0.00    -0.353 N 
HETATM   13  C4  UNL     1      27.494   0.091  54.134  1.00  0.00     0.241 C 
HETATM   14  O1  UNL     1      27.127  -0.329  55.258  1.00  0.00    -0.269 OA
HETATM   15  H6  UNL     1      26.689   0.198  52.139  1.00  0.00     0.163 HD
BRANCH  13  16
HETATM   16  C3  UNL     1      28.779   0.717  53.861  1.00  0.00     0.070 C 
HETATM   17  C2  UNL     1      29.827  -0.013  53.525  1.00  0.00    -0.026 C 
HETATM   18  C1  UNL     1      29.717  -1.489  53.417  1.00  0.00     0.036 C 
ENDBRANCH  13  16
ENDBRANCH  11  12
ENDBRANCH   1  11
BRANCH   8  19
HETATM   19  N4  UNL     1      24.309   4.064  52.165  1.00  0.00    -0.340 N 
HETATM   20  H12 UNL     1      24.765   4.431  53.020  1.00  0.00     0.167 HD
BRANCH  19  21
HETATM   21  C12 UNL     1      25.113   4.336  51.039  1.00  0.00     0.033 A 
HETATM   22  C13 UNL     1      25.072   5.526  50.353  1.00  0.00     0.029 A 
HETATM   23  C14 UNL     1      25.842   5.834  49.252  1.00  0.00     0.002 A 
HETATM   24  C15 UNL     1      26.734   4.911  48.768  1.00  0.00     0.000 A 
HETATM   25  C16 UNL     1      26.819   3.714  49.406  1.00  0.00     0.002 A 
HETATM   26  C17 UNL     1      26.027   3.460  50.499  1.00  0.00     0.029 A 
ENDBRANCH  19  21
ENDBRANCH   8  19
TORSDOF 5
ENDMDL
MODEL 2
REMARK VINA RESULT:      -8.6      2.456      5.728
REMARK  5 active torsions:
REMARK  status: ('A' for Active; 'I' for Inactive)
REMARK    1  A    between atoms: C3_3  and  C4_4 
REMARK       I    between atoms: C4_4  and  N1_6 
REMARK    2  A    between atoms: N1_6  and  C5_7 
REMARK    3  A    between atoms: C5_7  and  C6_8 
REMARK    4  A    between atoms: C11_15  and  N4_16 
REMARK    5  A    between atoms: N4_16  and  C12_17 
ROOT
HETATM    1  C6  UNL     1      21.709   0.387  52.251  1.00  0.00    -0.039 A 
HETATM    2  C7  UNL     1      20.725  -0.123  53.075  1.00  0.00     0.011 A 
HETATM    3  C8  UNL     1      21.109  -0.761  54.236  1.00  0.00     0.033 A 
HETATM    4  C9  UNL     1      22.447  -0.875  54.543  1.00  0.00     0.072 A 
HETATM    5  N2  UNL     1      22.745  -1.519  55.708  1.00  0.00    -0.241 NA
HETATM    6  C10 UNL     1      24.043  -1.670  56.079  1.00  0.00     0.236 A 
HETATM    7  N3  UNL     1      24.978  -1.170  55.268  1.00  0.00    -0.224 NA
HETATM    8  C11 UNL     1      24.787  -0.528  54.115  1.00  0.00     0.142 A 
HETATM    9  C18 UNL     1      23.475  -0.384  53.754  1.00  0.00     0.039 A 
HETATM   10  C19 UNL     1      23.032   0.232  52.630  1.00  0.00     0.026 A 
ENDROOT
BRANCH   1  11
HETATM   11  C5  UNL     1      21.321   1.081  50.991  1.00  0.00     0.161 C 
BRANCH  11  12
HETATM   12  N1  UNL     1      22.460   1.356  50.133  1.00  0.00    -0.353 N 
HETATM   13  C4  UNL     1      22.737   2.732  50.022  1.00  0.00     0.241 C 
HETATM   14  O1  UNL     1      21.943   3.440  50.687  1.00  0.00    -0.269 OA
HETATM   15  H6  UNL     1      23.045   0.638  49.627  1.00  0.00     0.163 HD
BRANCH  13  16
HETATM   16  C3  UNL     1      23.832   3.248  49.215  1.00  0.00     0.070 C 
HETATM   17  C2  UNL     1      25.058   3.311  49.705  1.00  0.00    -0.026 C 
HETATM   18  C1  UNL     1      25.345   2.856  51.088  1.00  0.00     0.036 C 
ENDBRANCH  13  16
ENDBRANCH  11  12
ENDBRANCH   1  11
BRANCH   8  19
HETATM   19  N4  UNL     1      25.792  -0.006  53.272  1.00  0.00    -0.340 N 
HETATM   20  H12 UNL     1      25.565   0.591  52.456  1.00  0.00     0.167 HD
BRANCH  19  21
HETATM   21  C12 UNL     1      27.189  -0.179  53.365  1.00  0.00     0.033 A 
HETATM   22  C13 UNL     1      28.049   0.821  53.752  1.00  0.00     0.029 A 
HETATM   23  C14 UNL     1      29.417   0.692  53.859  1.00  0.00     0.002 A 
HETATM   24  C15 UNL     1      30.011  -0.509  53.567  1.00  0.00     0.000 A 
HETATM   25  C16 UNL     1      29.211  -1.536  53.177  1.00  0.00     0.002 A 
HETATM   26  C17 UNL     1      27.852  -1.353  53.087  1.00  0.00     0.029 A 
ENDBRANCH  19  21
ENDBRANCH   8  19
TORSDOF 5
ENDMDL
MODEL 3
REMARK VINA RESULT:      -8.4      1.376      1.849
REMARK  5 active torsions:
REMARK  status: ('A' for Active; 'I' for Inactive)
REMARK    1  A    between atoms: C3_3  and  C4_4 
REMARK       I    between atoms: C4_4  and  N1_6 
REMARK    2  A    between atoms: N1_6  and  C5_7 
REMARK    3  A    between atoms: C5_7  and  C6_8 
REMARK    4  A    between atoms: C11_15  and  N4_16 
REMARK    5  A    between atoms: N4_16  and  C12_17 
ROOT
HETATM    1  C6  UNL     1      23.910   0.009  53.230  1.00  0.00    -0.039 A 
HETATM    2  C7  UNL     1      22.592  -0.404  53.207  1.00  0.00     0.011 A 
HETATM    3  C8  UNL     1      21.742   0.173  52.287  1.00  0.00     0.033 A 
HETATM    4  C9  UNL     1      22.218   1.135  51.423  1.00  0.00     0.072 A 
HETATM    5  N2  UNL     1      21.316   1.657  50.544  1.00  0.00    -0.241 NA
HETATM    6  C10 UNL     1      21.712   2.609  49.661  1.00  0.00     0.236 A 
HETATM    7  N3  UNL     1      22.990   2.993  49.701  1.00  0.00    -0.224 NA
HETATM    8  C11 UNL     1      23.942   2.546  50.519  1.00  0.00     0.142 A 
HETATM    9  C18 UNL     1      23.529   1.587  51.403  1.00  0.00     0.039 A 
HETATM   10  C19 UNL     1      24.312   0.981  52.330  1.00  0.00     0.026 A 
ENDROOT
BRANCH   1  11
HETATM   11  C5  UNL     1      24.849  -0.598  54.214  1.00  0.00     0.161 C 
BRANCH  11  12
HETATM   12  N1  UNL     1      26.211  -0.670  53.714  1.00  0.00    -0.353 N 
HETATM   13  C4  UNL     1      27.128   0.015  54.533  1.00  0.00     0.241 C 
HETATM   14  O1  UNL     1      26.580   0.550  55.529  1.00  0.00    -0.269 OA
HETATM   15  H6  UNL     1      26.527  -1.169  52.838  1.00  0.00     0.163 HD
BRANCH  13  16
HETATM   16  C3  UNL     1      28.549   0.082  54.233  1.00  0.00     0.070 C 
HETATM   17  C2  UNL     1      29.057   1.125  53.603  1.00  0.00    -0.026 C 
HETATM   18  C1  UNL     1      28.188   2.254  53.187  1.00  0.00     0.036 C 
ENDBRANCH  13  16
ENDBRANCH  11  12
ENDBRANCH   1  11
BRANCH   8  19
HETATM   19  N4  UNL     1      25.290   2.966  50.543  1.00  0.00    -0.340 N 
HETATM   20  H12 UNL     1      26.012   2.456  51.084  1.00  0.00     0.167 HD
BRANCH  19  21
HETATM   21  C12 UNL     1      25.873   4.072  49.891  1.00  0.00     0.033 A 
HETATM   22  C13 UNL     1      27.077   4.010  49.231  1.00  0.00     0.029 A 
HETATM   23  C14 UNL     1      27.679   5.065  48.580  1.00  0.00     0.002 A 
HETATM   24  C15 UNL     1      27.065   6.291  48.560  1.00  0.00     0.000 A 
HETATM   25  C16 UNL     1      25.870   6.414  49.196  1.00  0.00     0.002 A 
HETATM   26  C17 UNL     1      25.315   5.330  49.831  1.00  0.00     0.029 A 
ENDBRANCH  19  21
ENDBRANCH   8  19
TORSDOF 5
ENDMDL
MODEL 4
REMARK VINA RESULT:      -8.3      2.091      5.107
REMARK  5 active torsions:
REMARK  status: ('A' for Active; 'I' for Inactive)
REMARK    1  A    between atoms: C3_3  and  C4_4 
REMARK       I    between atoms: C4_4  and  N1_6 
REMARK    2  A    between atoms: N1_6  and  C5_7 
REMARK    3  A    between atoms: C5_7  and  C6_8 
REMARK    4  A    between atoms: C11_15  and  N4_16 
REMARK    5  A    between atoms: N4_16  and  C12_17 
ROOT
HETATM    1  C6  UNL     1      24.334  -0.254  53.542  1.00  0.00    -0.039 A 
HETATM    2  C7  UNL     1      24.959  -0.603  54.724  1.00  0.00     0.011 A 
HETATM    3  C8  UNL     1      26.202  -0.068  54.989  1.00  0.00     0.033 A 
HETATM    4  C9  UNL     1      26.785   0.791  54.083  1.00  0.00     0.072 A 
HETATM    5  N2  UNL     1      28.014   1.278  54.418  1.00  0.00    -0.241 NA
HETATM    6  C10 UNL     1      28.651   2.131  53.575  1.00  0.00     0.236 A 
HETATM    7  N3  UNL     1      28.029   2.455  52.440  1.00  0.00    -0.224 NA
HETATM    8  C11 UNL     1      26.834   2.034  52.026  1.00  0.00     0.142 A 
HETATM    9  C18 UNL     1      26.204   1.175  52.885  1.00  0.00     0.039 A 
HETATM   10  C19 UNL     1      24.985   0.616  52.684  1.00  0.00     0.026 A 
ENDROOT
BRANCH   1  11
HETATM   11  C5  UNL     1      22.991  -0.818  53.232  1.00  0.00     0.161 C 
BRANCH  11  12
HETATM   12  N1  UNL     1      22.192   0.068  52.403  1.00  0.00    -0.353 N 
HETATM   13  C4  UNL     1      21.201   0.751  53.134  1.00  0.00     0.241 C 
HETATM   14  O1  UNL     1      21.209   0.453  54.353  1.00  0.00    -0.269 OA
HETATM   15  H6  UNL     1      22.305   0.217  51.363  1.00  0.00     0.163 HD
BRANCH  13  16
HETATM   16  C3  UNL     1      20.281   1.692  52.515  1.00  0.00     0.070 C 
HETATM   17  C2  UNL     1      20.698   2.882  52.121  1.00  0.00    -0.026 C 
HETATM   18  C1  UNL     1      22.115   3.284  52.300  1.00  0.00     0.036 C 
ENDBRANCH  13  16
ENDBRANCH  11  12
ENDBRANCH   1  11
BRANCH   8  19
HETATM   19  N4  UNL     1      26.194   2.391  50.819  1.00  0.00    -0.340 N 
HETATM   20  H12 UNL     1      25.658   1.702  50.260  1.00  0.00     0.167 HD
BRANCH  19  21
HETATM   21  C12 UNL     1      26.157   3.651  50.187  1.00  0.00     0.033 A 
HETATM   22  C13 UNL     1      25.190   4.594  50.440  1.00  0.00     0.029 A 
HETATM   23  C14 UNL     1      25.121   5.837  49.847  1.00  0.00     0.002 A 
HETATM   24  C15 UNL     1      26.071   6.206  48.929  1.00  0.00     0.000 A 
HETATM   25  C16 UNL     1      27.054   5.313  48.639  1.00  0.00     0.002 A 
HETATM   26  C17 UNL     1      27.075   4.088  49.258  1.00  0.00     0.029 A 
ENDBRANCH  19  21
ENDBRANCH   8  19
TORSDOF 5
ENDMDL
MODEL 5
REMARK VINA RESULT:      -8.1      1.900      2.581
REMARK  5 active torsions:
REMARK  status: ('A' for Active; 'I' for Inactive)
REMARK    1  A    between atoms: C3_3  and  C4_4 
REMARK       I    between atoms: C4_4  and  N1_6 
REMARK    2  A    between atoms: N1_6  and  C5_7 
REMARK    3  A    between atoms: C5_7  and  C6_8 
REMARK    4  A    between atoms: C11_15  and  N4_16 
REMARK    5  A    between atoms: N4_16  and  C12_17 
ROOT
HETATM    1  C6  UNL     1      23.655  -0.722  54.237  1.00  0.00    -0.039 A 
HETATM    2  C7  UNL     1      22.636  -1.236  55.015  1.00  0.00     0.011 A 
HETATM    3  C8  UNL     1      21.336  -1.073  54.583  1.00  0.00     0.033 A 
HETATM    4  C9  UNL     1      21.086  -0.411  53.401  1.00  0.00     0.072 A 
HETATM    5  N2  UNL     1      19.776  -0.292  53.042  1.00  0.00    -0.241 NA
HETATM    6  C10 UNL     1      19.451   0.347  51.888  1.00  0.00     0.236 A 
HETATM    7  N3  UNL     1      20.451   0.836  51.152  1.00  0.00    -0.224 NA
HETATM    8  C11 UNL     1      21.756   0.771  51.417  1.00  0.00     0.142 A 
HETATM    9  C18 UNL     1      22.068   0.124  52.582  1.00  0.00     0.039 A 
HETATM   10  C19 UNL     1      23.322  -0.069  53.062  1.00  0.00     0.026 A 
ENDROOT
BRANCH   1  11
HETATM   11  C5  UNL     1      25.067  -0.884  54.682  1.00  0.00     0.161 C 
BRANCH  11  12
HETATM   12  N1  UNL     1      25.819   0.356  54.611  1.00  0.00    -0.353 N 
HETATM   13  C4  UNL     1      27.083   0.193  54.010  1.00  0.00     0.241 C 
HETATM   14  O1  UNL     1      27.301  -0.993  53.661  1.00  0.00    -0.269 OA
HETATM   15  H6  UNL     1      25.497   1.301  54.957  1.00  0.00     0.163 HD
BRANCH  13  16
HETATM   16  C3  UNL     1      28.013   1.296  53.830  1.00  0.00     0.070 C 
HETATM   17  C2  UNL     1      27.871   2.140  52.824  1.00  0.00    -0.026 C 
HETATM   18  C1  UNL     1      26.757   1.982  51.856  1.00  0.00     0.036 C 
ENDBRANCH  13  16
ENDBRANCH  11  12
ENDBRANCH   1  11
BRANCH   8  19
HETATM   19  N4  UNL     1      22.798   1.295  50.622  1.00  0.00    -0.340 N 
HETATM   20  H12 UNL     1      23.310   0.709  49.937  1.00  0.00     0.167 HD
BRANCH  19  21
HETATM   21  C12 UNL     1      23.308   2.609  50.602  1.00  0.00     0.033 A 
HETATM   22  C13 UNL     1      23.248   3.458  51.682  1.00  0.00     0.029 A 
HETATM   23  C14 UNL     1      23.737   4.746  51.705  1.00  0.00     0.002 A 
HETATM   24  C15 UNL     1      24.340   5.265  50.588  1.00  0.00     0.000 A 
HETATM   25  C16 UNL     1      24.429   4.471  49.488  1.00  0.00     0.002 A 
HETATM   26  C17 UNL     1      23.924   3.194  49.519  1.00  0.00     0.029 A 
ENDBRANCH  19  21
ENDBRANCH   8  19
TORSDOF 5
ENDMDL
MODEL 6
REMARK VINA RESULT:      -8.0      2.584      4.789
REMARK  5 active torsions:
REMARK  status: ('A' for Active; 'I' for Inactive)
REMARK    1  A    between atoms: C3_3  and  C4_4 
REMARK       I    between atoms: C4_4  and  N1_6 
REMARK    2  A    between atoms: N1_6  and  C5_7 
REMARK    3  A    between atoms: C5_7  and  C6_8 
REMARK    4  A    between atoms: C11_15  and  N4_16 
REMARK    5  A    between atoms: N4_16  and  C12_17 
ROOT
HETATM    1  C6  UNL     1      25.926   1.152  52.402  1.00  0.00    -0.039 A 
HETATM    2  C7  UNL     1      26.359   0.152  53.252  1.00  0.00     0.011 A 
HETATM    3  C8  UNL     1      25.415  -0.551  53.969  1.00  0.00     0.033 A 
HETATM    4  C9  UNL     1      24.079  -0.246  53.824  1.00  0.00     0.072 A 
HETATM    5  N2  UNL     1      23.207  -0.987  54.567  1.00  0.00    -0.241 NA
HETATM    6  C10 UNL     1      21.874  -0.745  54.477  1.00  0.00     0.236 A 
HETATM    7  N3  UNL     1      21.478   0.225  53.651  1.00  0.00    -0.224 NA
HETATM    8  C11 UNL     1      22.248   1.000  52.888  1.00  0.00     0.142 A 
HETATM    9  C18 UNL     1      23.589   0.745  52.988  1.00  0.00     0.039 A 
HETATM   10  C19 UNL     1      24.567   1.398  52.312  1.00  0.00     0.026 A 
ENDROOT
BRANCH   1  11
HETATM   11  C5  UNL     1      26.927   1.927  51.616  1.00  0.00     0.161 C 
BRANCH  11  12
HETATM   12  N1  UNL     1      26.510   3.298  51.382  1.00  0.00    -0.353 N 
HETATM   13  C4  UNL     1      26.355   3.594  50.014  1.00  0.00     0.241 C 
HETATM   14  O1  UNL     1      26.611   2.611  49.276  1.00  0.00    -0.269 OA
HETATM   15  H6  UNL     1      26.329   4.029  52.122  1.00  0.00     0.163 HD
BRANCH  13  16
HETATM   16  C3  UNL     1      25.944   4.905  49.537  1.00  0.00     0.070 C 
HETATM   17  C2  UNL     1      26.769   5.652  48.826  1.00  0.00    -0.026 C 
HETATM   18  C1  UNL     1      28.134   5.171  48.499  1.00  0.00     0.036 C 
ENDBRANCH  13  16
ENDBRANCH  11  12
ENDBRANCH   1  11
BRANCH   8  19
HETATM   19  N4  UNL     1      21.807   2.021  52.018  1.00  0.00    -0.340 N 
HETATM   20  H12 UNL     1      21.286   2.847  52.366  1.00  0.00     0.167 HD
BRANCH  19  21
HETATM   21  C12 UNL     1      21.973   2.113  50.621  1.00  0.00     0.033 A 
HETATM   22  C13 UNL     1      21.513   1.162  49.742  1.00  0.00     0.029 A 
HETATM   23  C14 UNL     1      21.651   1.216  48.372  1.00  0.00     0.002 A 
HETATM   24  C15 UNL     1      22.290   2.284  47.795  1.00  0.00     0.000 A 
HETATM   25  C16 UNL     1      22.767   3.258  48.615  1.00  0.00     0.002 A 
HETATM   26  C17 UNL     1      22.602   3.154  49.975  1.00  0.00     0.029 A 
ENDBRANCH  19  21
ENDBRANCH   8  19
TORSDOF 5
ENDMDL
MODEL 7
REMARK VINA RESULT:      -7.9      2.381      3.324
REMARK  5 active torsions:
REMARK  status: ('A' for Active; 'I' for Inactive)
REMARK    1  A    between atoms: C3_3  and  C4_4 
REMARK       I    between atoms: C4_4  and  N1_6 
REMARK    2  A    between atoms: N1_6  and  C5_7 
REMARK    3  A    between atoms: C5_7  and  C6_8 
REMARK    4  A    between atoms: C11_15  and  N4_16 
REMARK    5  A    between atoms: N4_16  and  C12_17 
ROOT
HETATM    1  C6  UNL     1      23.809  -0.143  53.806  1.00  0.00    -0.039 A 
HETATM    2  C7  UNL     1      23.396  -1.247  54.527  1.00  0.00     0.011 A 
HETATM    3  C8  UNL     1      22.058  -1.578  54.507  1.00  0.00     0.033 A 
HETATM    4  C9  UNL     1      21.174  -0.812  53.778  1.00  0.00     0.072 A 
HETATM    5  N2  UNL     1      19.868  -1.205  53.808  1.00  0.00    -0.241 NA
HETATM    6  C10 UNL     1      18.939  -0.500  53.113  1.00  0.00     0.236 A 
HETATM    7  N3  UNL     1      19.359   0.563  52.424  1.00  0.00    -0.224 NA
HETATM    8  C11 UNL     1      20.606   1.024  52.334  1.00  0.00     0.142 A 
HETATM    9  C18 UNL     1      21.532   0.304  53.038  1.00  0.00     0.039 A 
HETATM   10  C19 UNL     1      22.860   0.576  53.099  1.00  0.00     0.026 A 
ENDROOT
BRANCH   1  11
HETATM   11  C5  UNL     1      25.249   0.236  53.812  1.00  0.00     0.161 C 
BRANCH  11  12
HETATM   12  N1  UNL     1      26.125  -0.904  54.020  1.00  0.00    -0.353 N 
HETATM   13  C4  UNL     1      26.901  -1.208  52.885  1.00  0.00     0.241 C 
HETATM   14  O1  UNL     1      26.677  -0.432  51.924  1.00  0.00    -0.269 OA
HETATM   15  H6  UNL     1      26.205  -1.474  54.905  1.00  0.00     0.163 HD
BRANCH  13  16
HETATM   16  C3  UNL     1      27.850  -2.310  52.857  1.00  0.00     0.070 C 
HETATM   17  C2  UNL     1      29.110  -2.122  53.205  1.00  0.00    -0.026 C 
HETATM   18  C1  UNL     1      29.586  -0.782  53.632  1.00  0.00     0.036 C 
ENDBRANCH  13  16
ENDBRANCH  11  12
ENDBRANCH   1  11
BRANCH   8  19
HETATM   19  N4  UNL     1      21.030   2.151  51.597  1.00  0.00    -0.340 N 
HETATM   20  H12 UNL     1      20.962   3.112  51.980  1.00  0.00     0.167 HD
BRANCH  19  21
HETATM   21  C12 UNL     1      21.582   2.192  50.300  1.00  0.00     0.033 A 
HETATM   22  C13 UNL     1      22.674   2.957  49.969  1.00  0.00     0.029 A 
HETATM   23  C14 UNL     1      23.246   3.022  48.716  1.00  0.00     0.002 A 
HETATM   24  C15 UNL     1      22.719   2.282  47.689  1.00  0.00     0.000 A 
HETATM   25  C16 UNL     1      21.636   1.505  47.957  1.00  0.00     0.002 A 
HETATM   26  C17 UNL     1      21.105   1.478  49.223  1.00  0.00     0.029 A 
ENDBRANCH  19  21
ENDBRANCH   8  19
TORSDOF 5
ENDMDL
MODEL 8
REMARK VINA RESULT:      -7.7      3.353      6.041
REMARK  5 active torsions:
REMARK  status: ('A' for Active; 'I' for Inactive)
REMARK    1  A    between atoms: C3_3  and  C4_4 
REMARK       I    between atoms: C4_4  and  N1_6 
REMARK    2  A    between atoms: N1_6  and  C5_7 
REMARK    3  A    between atoms: C5_7  and  C6_8 
REMARK    4  A    between atoms: C11_15  and  N4_16 
REMARK    5  A    between atoms: N4_16  and  C12_17 
ROOT
HETATM    1  C6  UNL     1      19.673   0.411  51.503  1.00  0.00    -0.039 A 
HETATM    2  C7  UNL     1      18.797  -0.326  52.276  1.00  0.00     0.011 A 
HETATM    3  C8  UNL     1      19.293  -0.984  53.381  1.00  0.00     0.033 A 
HETATM    4  C9  UNL     1      20.634  -0.894  53.686  1.00  0.00     0.072 A 
HETATM    5  N2  UNL     1      21.047  -1.573  54.794  1.00  0.00    -0.241 NA
HETATM    6  C10 UNL     1      22.355  -1.531  55.158  1.00  0.00     0.236 A 
HETATM    7  N3  UNL     1      23.184  -0.814  54.398  1.00  0.00    -0.224 NA
HETATM    8  C11 UNL     1      22.878  -0.120  53.302  1.00  0.00     0.142 A 
HETATM    9  C18 UNL     1      21.557  -0.171  52.946  1.00  0.00     0.039 A 
HETATM   10  C19 UNL     1      21.006   0.451  51.875  1.00  0.00     0.026 A 
ENDROOT
BRANCH   1  11
HETATM   11  C5  UNL     1      19.161   1.131  50.304  1.00  0.00     0.161 C 
BRANCH  11  12
HETATM   12  N1  UNL     1      20.125   1.158  49.217  1.00  0.00    -0.353 N 
HETATM   13  C4  UNL     1      20.508   2.466  48.862  1.00  0.00     0.241 C 
HETATM   14  O1  UNL     1      19.937   3.341  49.557  1.00  0.00    -0.269 OA
HETATM   15  H6  UNL     1      20.524   0.317  48.717  1.00  0.00     0.163 HD
BRANCH  13  16
HETATM   16  C3  UNL     1      21.463   2.741  47.800  1.00  0.00     0.070 C 
HETATM   17  C2  UNL     1      22.753   2.846  48.064  1.00  0.00    -0.026 C 
HETATM   18  C1  UNL     1      23.257   2.684  49.451  1.00  0.00     0.036 C 
ENDBRANCH  13  16
ENDBRANCH  11  12
ENDBRANCH   1  11
BRANCH   8  19
HETATM   19  N4  UNL     1      23.772   0.633  52.511  1.00  0.00    -0.340 N 
HETATM   20  H12 UNL     1      23.458   1.144  51.666  1.00  0.00     0.167 HD
BRANCH  19  21
HETATM   21  C12 UNL     1      25.157   0.825  52.698  1.00  0.00     0.033 A 
HETATM   22  C13 UNL     1      25.692   1.955  53.269  1.00  0.00     0.029 A 
HETATM   23  C14 UNL     1      27.036   2.180  53.473  1.00  0.00     0.002 A 
HETATM   24  C15 UNL     1      27.949   1.229  53.093  1.00  0.00     0.000 A 
HETATM   25  C16 UNL     1      27.479   0.089  52.522  1.00  0.00     0.002 A 
HETATM   26  C17 UNL     1      26.128  -0.083  52.342  1.00  0.00     0.029 A 
ENDBRANCH  19  21
ENDBRANCH   8  19
TORSDOF 5
ENDMDL
MODEL 9
REMARK VINA RESULT:      -7.7      1.966      2.691
REMARK  5 active torsions:
REMARK  status: ('A' for Active; 'I' for Inactive)
REMARK    1  A    between atoms: C3_3  and  C4_4 
REMARK       I    between atoms: C4_4  and  N1_6 
REMARK    2  A    between atoms: N1_6  and  C5_7 
REMARK    3  A    between atoms: C5_7  and  C6_8 
REMARK    4  A    between atoms: C11_15  and  N4_16 
REMARK    5  A    between atoms: N4_16  and  C12_17 
ROOT
HETATM    1  C6  UNL     1      24.225   1.170  52.042  1.00  0.00    -0.039 A 
HETATM    2  C7  UNL     1      22.929   0.749  51.814  1.00  0.00     0.011 A 
HETATM    3  C8  UNL     1      22.195   1.392  50.840  1.00  0.00     0.033 A 
HETATM    4  C9  UNL     1      22.762   2.425  50.125  1.00  0.00     0.072 A 
HETATM    5  N2  UNL     1      21.972   3.010  49.180  1.00  0.00    -0.241 NA
HETATM    6  C10 UNL     1      22.462   4.034  48.435  1.00  0.00     0.236 A 
HETATM    7  N3  UNL     1      23.716   4.424  48.672  1.00  0.00    -0.224 NA
HETATM    8  C11 UNL     1      24.562   3.919  49.570  1.00  0.00     0.142 A 
HETATM    9  C18 UNL     1      24.055   2.888  50.313  1.00  0.00     0.039 A 
HETATM   10  C19 UNL     1      24.723   2.215  51.283  1.00  0.00     0.026 A 
ENDROOT
BRANCH   1  11
HETATM   11  C5  UNL     1      25.039   0.492  53.090  1.00  0.00     0.161 C 
BRANCH  11  12
HETATM   12  N1  UNL     1      26.234  -0.133  52.549  1.00  0.00    -0.353 N 
HETATM   13  C4  UNL     1      27.072  -0.661  53.549  1.00  0.00     0.241 C 
HETATM   14  O1  UNL     1      26.616  -0.482  54.705  1.00  0.00    -0.269 OA
HETATM   15  H6  UNL     1      26.489  -0.208  51.527  1.00  0.00     0.163 HD
BRANCH  13  16
HETATM   16  C3  UNL     1      28.326  -1.333  53.247  1.00  0.00     0.070 C 
HETATM   17  C2  UNL     1      29.480  -0.710  53.404  1.00  0.00    -0.026 C 
HETATM   18  C1  UNL     1      29.523   0.691  53.893  1.00  0.00     0.036 C 
ENDBRANCH  13  16
ENDBRANCH  11  12
ENDBRANCH   1  11
BRANCH   8  19
HETATM   19  N4  UNL     1      25.887   4.347  49.804  1.00  0.00    -0.340 N 
HETATM   20  H12 UNL     1      26.445   3.988  50.600  1.00  0.00     0.167 HD
BRANCH  19  21
HETATM   21  C12 UNL     1      26.651   5.272  49.063  1.00  0.00     0.033 A 
HETATM   22  C13 UNL     1      27.939   5.027  48.650  1.00  0.00     0.029 A 
HETATM   23  C14 UNL     1      28.717   5.901  47.922  1.00  0.00     0.002 A 
HETATM   24  C15 UNL     1      28.210   7.122  47.558  1.00  0.00     0.000 A 
HETATM   25  C16 UNL     1      26.940   7.421  47.939  1.00  0.00     0.002 A 
HETATM   26  C17 UNL     1      26.208   6.513  48.665  1.00  0.00     0.029 A 
ENDBRANCH  19  21
ENDBRANCH   8  19
TORSDOF 5
ENDMDL
