MODEL 1
REMARK VINA RESULT:      -8.7      0.000      0.000
REMARK  5 active torsions:
REMARK  status: ('A' for Active; 'I' for Inactive)
REMARK    1  A    between atoms: O1_2  and  C2_3 
REMARK    2  A    between atoms: C6_9  and  C7_10 
REMARK    3  A    between atoms: C7_10  and  C8_11 
REMARK    4  A    between atoms: C8_11  and  C9_12 
REMARK    5  A    between atoms: C18_23  and  O2_24 
ROOT
HETATM    1  C2  UNL     1      27.774   1.083  53.939  1.00  0.00     0.080 C 
HETATM    2  C3  UNL     1      27.146   0.039  54.505  1.00  0.00     0.068 C 
HETATM    3  C4  UNL     1      25.706  -0.304  54.492  1.00  0.00     0.072 A 
HETATM    4  N1  UNL     1      25.275  -1.096  55.498  1.00  0.00    -0.241 NA
HETATM    5  C5  UNL     1      23.958  -1.432  55.512  1.00  0.00     0.234 A 
HETATM    6  N2  UNL     1      23.039  -1.030  54.588  1.00  0.00    -0.246 NA
HETATM    7  C6  UNL     1      23.425  -0.237  53.562  1.00  0.00     0.048 A 
HETATM    8  C15 UNL     1      24.772   0.115  53.534  1.00  0.00     0.017 A 
HETATM    9  C16 UNL     1      25.027   0.980  52.367  1.00  0.00     0.015 C 
HETATM   10  C17 UNL     1      26.066   1.806  52.297  1.00  0.00     0.012 C 
HETATM   11  C18 UNL     1      27.223   2.201  53.137  1.00  0.00     0.197 C 
ENDROOT
BRANCH   7  12
HETATM   12  C7  UNL     1      22.497   0.236  52.515  1.00  0.00     0.065 C 
BRANCH  12  13
HETATM   13  C8  UNL     1      21.352   0.962  53.234  1.00  0.00     0.044 C 
BRANCH  13  14
HETATM   14  C9  UNL     1      20.056   0.348  52.792  1.00  0.00    -0.056 A 
HETATM   15  C10 UNL     1      19.314   0.849  51.742  1.00  0.00     0.010 A 
HETATM   16  C11 UNL     1      18.120   0.277  51.340  1.00  0.00     0.044 A 
HETATM   17  C12 UNL     1      17.632  -0.836  51.994  1.00  0.00     0.138 A 
HETATM   18  F1  UNL     1      16.454  -1.343  51.543  1.00  0.00    -0.204 F 
HETATM   19  C13 UNL     1      18.367  -1.353  53.054  1.00  0.00     0.073 A 
HETATM   20 CL1  UNL     1      17.705  -2.781  53.866  1.00  0.00    -0.081 Cl
HETATM   21  C14 UNL     1      19.557  -0.778  53.449  1.00  0.00     0.034 A 
ENDBRANCH  13  14
ENDBRANCH  12  13
ENDBRANCH   7  12
BRANCH   1  22
HETATM   22  O1  UNL     1      29.100   0.904  54.267  1.00  0.00    -0.357 OA
HETATM   23  C1  UNL     1      29.817  -0.196  53.750  1.00  0.00     0.209 C 
ENDBRANCH   1  22
BRANCH  11  24
HETATM   24  O2  UNL     1      28.201   2.779  52.354  1.00  0.00    -0.385 OA
HETATM   25  H16 UNL     1      27.920   2.830  51.387  1.00  0.00     0.210 HD
ENDBRANCH  11  24
TORSDOF 5
ENDMDL
MODEL 2
REMARK VINA RESULT:      -8.5      4.944      8.124
REMARK  5 active torsions:
REMARK  status: ('A' for Active; 'I' for Inactive)
REMARK    1  A    between atoms: O1_2  and  C2_3 
REMARK    2  A    between atoms: C6_9  and  C7_10 
REMARK    3  A    between atoms: C7_10  and  C8_11 
REMARK    4  A    between atoms: C8_11  and  C9_12 
REMARK    5  A    between atoms: C18_23  and  O2_24 
ROOT
HETATM    1  C2  UNL     1      20.241  -0.303  53.446  1.00  0.00     0.080 C 
HETATM    2  C3  UNL     1      20.375   0.691  52.554  1.00  0.00     0.068 C 
HETATM    3  C4  UNL     1      21.468   1.679  52.411  1.00  0.00     0.072 A 
HETATM    4  N1  UNL     1      21.149   2.830  51.780  1.00  0.00    -0.241 NA
HETATM    5  C5  UNL     1      22.132   3.757  51.630  1.00  0.00     0.234 A 
HETATM    6  N2  UNL     1      23.416   3.613  52.069  1.00  0.00    -0.246 NA
HETATM    7  C6  UNL     1      23.781   2.476  52.706  1.00  0.00     0.048 A 
HETATM    8  C15 UNL     1      22.783   1.517  52.867  1.00  0.00     0.017 A 
HETATM    9  C16 UNL     1      23.337   0.351  53.579  1.00  0.00     0.015 C 
HETATM   10  C17 UNL     1      22.577  -0.512  54.246  1.00  0.00     0.012 C 
HETATM   11  C18 UNL     1      21.140  -0.712  54.552  1.00  0.00     0.197 C 
ENDROOT
BRANCH   7  12
HETATM   12  C7  UNL     1      25.150   2.236  53.206  1.00  0.00     0.065 C 
BRANCH  12  13
HETATM   13  C8  UNL     1      25.946   1.633  52.041  1.00  0.00     0.044 C 
BRANCH  13  14
HETATM   14  C9  UNL     1      27.134   0.912  52.608  1.00  0.00    -0.056 A 
HETATM   15  C10 UNL     1      28.179   1.567  53.226  1.00  0.00     0.010 A 
HETATM   16  C11 UNL     1      29.270   0.896  53.747  1.00  0.00     0.044 A 
HETATM   17  C12 UNL     1      29.341  -0.480  53.660  1.00  0.00     0.138 A 
HETATM   18  F1  UNL     1      30.443  -1.071  54.194  1.00  0.00    -0.204 F 
HETATM   19  C13 UNL     1      28.296  -1.156  53.040  1.00  0.00     0.073 A 
HETATM   20 CL1  UNL     1      28.427  -2.920  52.950  1.00  0.00    -0.081 Cl
HETATM   21  C14 UNL     1      27.211  -0.480  52.524  1.00  0.00     0.034 A 
ENDBRANCH  13  14
ENDBRANCH  12  13
ENDBRANCH   7  12
BRANCH   1  22
HETATM   22  O1  UNL     1      19.044  -0.902  53.118  1.00  0.00    -0.357 OA
HETATM   23  C1  UNL     1      18.126  -0.237  52.278  1.00  0.00     0.209 C 
ENDBRANCH   1  22
BRANCH  11  24
HETATM   24  O2  UNL     1      20.912  -2.023  54.919  1.00  0.00    -0.385 OA
HETATM   25  H16 UNL     1      21.660  -2.628  54.616  1.00  0.00     0.210 HD
ENDBRANCH  11  24
TORSDOF 5
ENDMDL
MODEL 3
REMARK VINA RESULT:      -8.5      3.625      4.166
REMARK  5 active torsions:
REMARK  status: ('A' for Active; 'I' for Inactive)
REMARK    1  A    between atoms: O1_2  and  C2_3 
REMARK    2  A    between atoms: C6_9  and  C7_10 
REMARK    3  A    between atoms: C7_10  and  C8_11 
REMARK    4  A    between atoms: C8_11  and  C9_12 
REMARK    5  A    between atoms: C18_23  and  O2_24 
ROOT
HETATM    1  C2  UNL     1      28.268   0.864  53.954  1.00  0.00     0.080 C 
HETATM    2  C3  UNL     1      27.425  -0.145  54.229  1.00  0.00     0.068 C 
HETATM    3  C4  UNL     1      25.946  -0.169  54.180  1.00  0.00     0.072 A 
HETATM    4  N1  UNL     1      25.342  -1.107  54.941  1.00  0.00    -0.241 NA
HETATM    5  C5  UNL     1      23.983  -1.157  54.914  1.00  0.00     0.234 A 
HETATM    6  N2  UNL     1      23.185  -0.331  54.178  1.00  0.00    -0.246 NA
HETATM    7  C6  UNL     1      23.747   0.623  53.400  1.00  0.00     0.048 A 
HETATM    8  C15 UNL     1      25.138   0.686  53.417  1.00  0.00     0.017 A 
HETATM    9  C16 UNL     1      25.589   1.773  52.529  1.00  0.00     0.015 C 
HETATM   10  C17 UNL     1      26.778   2.355  52.651  1.00  0.00     0.012 C 
HETATM   11  C18 UNL     1      27.976   2.251  53.520  1.00  0.00     0.197 C 
ENDROOT
BRANCH   7  12
HETATM   12  C7  UNL     1      22.957   1.552  52.567  1.00  0.00     0.065 C 
BRANCH  12  13
HETATM   13  C8  UNL     1      22.237   0.699  51.515  1.00  0.00     0.044 C 
BRANCH  13  14
HETATM   14  C9  UNL     1      22.237   1.454  50.218  1.00  0.00    -0.056 A 
HETATM   15  C10 UNL     1      21.498   1.056  49.124  1.00  0.00     0.010 A 
HETATM   16  C11 UNL     1      21.502   1.758  47.932  1.00  0.00     0.044 A 
HETATM   17  C12 UNL     1      22.263   2.902  47.807  1.00  0.00     0.138 A 
HETATM   18  F1  UNL     1      22.217   3.540  46.606  1.00  0.00    -0.204 F 
HETATM   19  C13 UNL     1      23.015   3.318  48.900  1.00  0.00     0.073 A 
HETATM   20 CL1  UNL     1      23.978   4.790  48.696  1.00  0.00    -0.081 Cl
HETATM   21  C14 UNL     1      23.005   2.613  50.085  1.00  0.00     0.034 A 
ENDBRANCH  13  14
ENDBRANCH  12  13
ENDBRANCH   7  12
BRANCH   1  22
HETATM   22  O1  UNL     1      29.521   0.333  54.164  1.00  0.00    -0.357 OA
HETATM   23  C1  UNL     1      29.890  -0.882  53.547  1.00  0.00     0.209 C 
ENDBRANCH   1  22
BRANCH  11  24
HETATM   24  O2  UNL     1      29.067   2.815  52.891  1.00  0.00    -0.385 OA
HETATM   25  H16 UNL     1      29.440   3.590  53.419  1.00  0.00     0.210 HD
ENDBRANCH  11  24
TORSDOF 5
ENDMDL
MODEL 4
REMARK VINA RESULT:      -8.4      5.048      6.864
REMARK  5 active torsions:
REMARK  status: ('A' for Active; 'I' for Inactive)
REMARK    1  A    between atoms: O1_2  and  C2_3 
REMARK    2  A    between atoms: C6_9  and  C7_10 
REMARK    3  A    between atoms: C7_10  and  C8_11 
REMARK    4  A    between atoms: C8_11  and  C9_12 
REMARK    5  A    between atoms: C18_23  and  O2_24 
ROOT
HETATM    1  C2  UNL     1      28.236  -0.406  53.618  1.00  0.00     0.080 C 
HETATM    2  C3  UNL     1      27.013  -0.847  53.282  1.00  0.00     0.068 C 
HETATM    3  C4  UNL     1      25.781  -0.072  53.012  1.00  0.00     0.072 A 
HETATM    4  N1  UNL     1      24.616  -0.736  53.170  1.00  0.00    -0.241 NA
HETATM    5  C5  UNL     1      23.465  -0.053  52.927  1.00  0.00     0.234 A 
HETATM    6  N2  UNL     1      23.400   1.252  52.536  1.00  0.00    -0.246 NA
HETATM    7  C6  UNL     1      24.542   1.957  52.365  1.00  0.00     0.048 A 
HETATM    8  C15 UNL     1      25.729   1.270  52.610  1.00  0.00     0.017 A 
HETATM    9  C16 UNL     1      26.872   2.173  52.386  1.00  0.00     0.015 C 
HETATM   10  C17 UNL     1      28.068   1.969  52.929  1.00  0.00     0.012 C 
HETATM   11  C18 UNL     1      28.722   0.980  53.821  1.00  0.00     0.197 C 
ENDROOT
BRANCH   7  12
HETATM   12  C7  UNL     1      24.561   3.371  51.936  1.00  0.00     0.065 C 
BRANCH  12  13
HETATM   13  C8  UNL     1      24.222   3.384  50.440  1.00  0.00     0.044 C 
BRANCH  13  14
HETATM   14  C9  UNL     1      25.244   4.226  49.735  1.00  0.00    -0.056 A 
HETATM   15  C10 UNL     1      26.525   3.785  49.477  1.00  0.00     0.010 A 
HETATM   16  C11 UNL     1      27.461   4.567  48.825  1.00  0.00     0.044 A 
HETATM   17  C12 UNL     1      27.127   5.839  48.407  1.00  0.00     0.138 A 
HETATM   18  F1  UNL     1      28.099   6.549  47.773  1.00  0.00    -0.204 F 
HETATM   19  C13 UNL     1      25.841   6.300  48.658  1.00  0.00     0.073 A 
HETATM   20 CL1  UNL     1      25.455   7.937  48.105  1.00  0.00    -0.081 Cl
HETATM   21  C14 UNL     1      24.912   5.514  49.308  1.00  0.00     0.034 A 
ENDBRANCH  13  14
ENDBRANCH  12  13
ENDBRANCH   7  12
BRANCH   1  22
HETATM   22  O1  UNL     1      28.992  -1.551  53.745  1.00  0.00    -0.357 OA
HETATM   23  C1  UNL     1      28.629  -2.722  53.046  1.00  0.00     0.209 C 
ENDBRANCH   1  22
BRANCH  11  24
HETATM   24  O2  UNL     1      30.093   1.051  53.682  1.00  0.00    -0.385 OA
HETATM   25  H16 UNL     1      30.529   0.155  53.839  1.00  0.00     0.210 HD
ENDBRANCH  11  24
TORSDOF 5
ENDMDL
MODEL 5
REMARK VINA RESULT:      -8.3      3.043      3.544
REMARK  5 active torsions:
REMARK  status: ('A' for Active; 'I' for Inactive)
REMARK    1  A    between atoms: O1_2  and  C2_3 
REMARK    2  A    between atoms: C6_9  and  C7_10 
REMARK    3  A    between atoms: C7_10  and  C8_11 
REMARK    4  A    between atoms: C8_11  and  C9_12 
REMARK    5  A    between atoms: C18_23  and  O2_24 
ROOT
HETATM    1  C2  UNL     1      27.501   0.980  54.032  1.00  0.00     0.080 C 
HETATM    2  C3  UNL     1      26.857  -0.049  54.608  1.00  0.00     0.068 C 
HETATM    3  C4  UNL     1      25.417  -0.389  54.572  1.00  0.00     0.072 A 
HETATM    4  N1  UNL     1      24.963  -1.155  55.587  1.00  0.00    -0.241 NA
HETATM    5  C5  UNL     1      23.645  -1.489  55.581  1.00  0.00     0.234 A 
HETATM    6  N2  UNL     1      22.747  -1.108  54.627  1.00  0.00    -0.246 NA
HETATM    7  C6  UNL     1      23.158  -0.341  53.591  1.00  0.00     0.048 A 
HETATM    8  C15 UNL     1      24.506   0.009  53.584  1.00  0.00     0.017 A 
HETATM    9  C16 UNL     1      24.789   0.844  52.402  1.00  0.00     0.015 C 
HETATM   10  C17 UNL     1      25.830   1.666  52.335  1.00  0.00     0.012 C 
HETATM   11  C18 UNL     1      26.970   2.079  53.191  1.00  0.00     0.197 C 
ENDROOT
BRANCH   7  12
HETATM   12  C7  UNL     1      22.254   0.109  52.512  1.00  0.00     0.065 C 
BRANCH  12  13
HETATM   13  C8  UNL     1      21.101   0.864  53.187  1.00  0.00     0.044 C 
BRANCH  13  14
HETATM   14  C9  UNL     1      20.926   2.178  52.486  1.00  0.00    -0.056 A 
HETATM   15  C10 UNL     1      19.716   2.594  51.972  1.00  0.00     0.010 A 
HETATM   16  C11 UNL     1      19.562   3.808  51.327  1.00  0.00     0.044 A 
HETATM   17  C12 UNL     1      20.643   4.653  51.179  1.00  0.00     0.138 A 
HETATM   18  F1  UNL     1      20.416   5.829  50.535  1.00  0.00    -0.204 F 
HETATM   19  C13 UNL     1      21.871   4.250  51.690  1.00  0.00     0.073 A 
HETATM   20 CL1  UNL     1      23.231   5.364  51.478  1.00  0.00    -0.081 Cl
HETATM   21  C14 UNL     1      22.016   3.038  52.333  1.00  0.00     0.034 A 
ENDBRANCH  13  14
ENDBRANCH  12  13
ENDBRANCH   7  12
BRANCH   1  22
HETATM   22  O1  UNL     1      28.819   0.807  54.393  1.00  0.00    -0.357 OA
HETATM   23  C1  UNL     1      29.577  -0.243  53.832  1.00  0.00     0.209 C 
ENDBRANCH   1  22
BRANCH  11  24
HETATM   24  O2  UNL     1      27.966   2.637  52.416  1.00  0.00    -0.385 OA
HETATM   25  H16 UNL     1      28.852   2.179  52.566  1.00  0.00     0.210 HD
ENDBRANCH  11  24
TORSDOF 5
ENDMDL
MODEL 6
REMARK VINA RESULT:      -8.1      2.543      3.435
REMARK  5 active torsions:
REMARK  status: ('A' for Active; 'I' for Inactive)
REMARK    1  A    between atoms: O1_2  and  C2_3 
REMARK    2  A    between atoms: C6_9  and  C7_10 
REMARK    3  A    between atoms: C7_10  and  C8_11 
REMARK    4  A    between atoms: C8_11  and  C9_12 
REMARK    5  A    between atoms: C18_23  and  O2_24 
ROOT
HETATM    1  C2  UNL     1      27.503   0.806  53.686  1.00  0.00     0.080 C 
HETATM    2  C3  UNL     1      27.616   1.765  52.752  1.00  0.00     0.068 C 
HETATM    3  C4  UNL     1      26.596   2.281  51.813  1.00  0.00     0.072 A 
HETATM    4  N1  UNL     1      27.064   2.871  50.692  1.00  0.00    -0.241 NA
HETATM    5  C5  UNL     1      26.151   3.359  49.810  1.00  0.00     0.234 A 
HETATM    6  N2  UNL     1      24.798   3.296  49.972  1.00  0.00    -0.246 NA
HETATM    7  C6  UNL     1      24.284   2.713  51.079  1.00  0.00     0.048 A 
HETATM    8  C15 UNL     1      25.207   2.210  51.992  1.00  0.00     0.017 A 
HETATM    9  C16 UNL     1      24.490   1.608  53.131  1.00  0.00     0.015 C 
HETATM   10  C17 UNL     1      25.040   0.695  53.926  1.00  0.00     0.012 C 
HETATM   11  C18 UNL     1      26.332  -0.023  54.057  1.00  0.00     0.197 C 
ENDROOT
BRANCH   7  12
HETATM   12  C7  UNL     1      22.832   2.610  51.335  1.00  0.00     0.065 C 
BRANCH  12  13
HETATM   13  C8  UNL     1      22.329   1.396  50.545  1.00  0.00     0.044 C 
BRANCH  13  14
HETATM   14  C9  UNL     1      21.281   0.703  51.366  1.00  0.00    -0.056 A 
HETATM   15  C10 UNL     1      19.935   0.777  51.074  1.00  0.00     0.010 A 
HETATM   16  C11 UNL     1      18.975   0.135  51.835  1.00  0.00     0.044 A 
HETATM   17  C12 UNL     1      19.351  -0.616  52.931  1.00  0.00     0.138 A 
HETATM   18  F1  UNL     1      18.353  -1.218  53.630  1.00  0.00    -0.204 F 
HETATM   19  C13 UNL     1      20.703  -0.702  53.239  1.00  0.00     0.073 A 
HETATM   20 CL1  UNL     1      21.141  -1.674  54.653  1.00  0.00    -0.081 Cl
HETATM   21  C14 UNL     1      21.655  -0.058  52.475  1.00  0.00     0.034 A 
ENDBRANCH  13  14
ENDBRANCH  12  13
ENDBRANCH   7  12
BRANCH   1  22
HETATM   22  O1  UNL     1      28.753   0.738  54.262  1.00  0.00    -0.357 OA
HETATM   23  C1  UNL     1      29.736  -0.120  53.725  1.00  0.00     0.209 C 
ENDBRANCH   1  22
BRANCH  11  24
HETATM   24  O2  UNL     1      26.465  -0.527  55.335  1.00  0.00    -0.385 OA
HETATM   25  H16 UNL     1      25.689  -1.122  55.581  1.00  0.00     0.210 HD
ENDBRANCH  11  24
TORSDOF 5
ENDMDL
MODEL 7
REMARK VINA RESULT:      -8.1      4.907      8.165
REMARK  5 active torsions:
REMARK  status: ('A' for Active; 'I' for Inactive)
REMARK    1  A    between atoms: O1_2  and  C2_3 
REMARK    2  A    between atoms: C6_9  and  C7_10 
REMARK    3  A    between atoms: C7_10  and  C8_11 
REMARK    4  A    between atoms: C8_11  and  C9_12 
REMARK    5  A    between atoms: C18_23  and  O2_24 
ROOT
HETATM    1  C2  UNL     1      19.041   0.144  51.790  1.00  0.00     0.080 C 
HETATM    2  C3  UNL     1      19.544  -0.144  53.002  1.00  0.00     0.068 C 
HETATM    3  C4  UNL     1      20.952  -0.361  53.403  1.00  0.00     0.072 A 
HETATM    4  N1  UNL     1      21.145  -1.089  54.524  1.00  0.00    -0.241 NA
HETATM    5  C5  UNL     1      22.428  -1.303  54.922  1.00  0.00     0.234 A 
HETATM    6  N2  UNL     1      23.534  -0.839  54.272  1.00  0.00    -0.246 NA
HETATM    7  C6  UNL     1      23.389  -0.105  53.145  1.00  0.00     0.048 A 
HETATM    8  C15 UNL     1      22.080   0.123  52.726  1.00  0.00     0.017 A 
HETATM    9  C16 UNL     1      22.095   0.927  51.490  1.00  0.00     0.015 C 
HETATM   10  C17 UNL     1      21.080   0.947  50.633  1.00  0.00     0.012 C 
HETATM   11  C18 UNL     1      19.737   0.331  50.495  1.00  0.00     0.197 C 
ENDROOT
BRANCH   7  12
HETATM   12  C7  UNL     1      24.533   0.442  52.386  1.00  0.00     0.065 C 
BRANCH  12  13
HETATM   13  C8  UNL     1      25.291   1.374  53.340  1.00  0.00     0.044 C 
BRANCH  13  14
HETATM   14  C9  UNL     1      26.718   0.916  53.407  1.00  0.00    -0.056 A 
HETATM   15  C10 UNL     1      27.767   1.777  53.653  1.00  0.00     0.010 A 
HETATM   16  C11 UNL     1      29.080   1.347  53.715  1.00  0.00     0.044 A 
HETATM   17  C12 UNL     1      29.380   0.013  53.528  1.00  0.00     0.138 A 
HETATM   18  F1  UNL     1      30.692  -0.336  53.603  1.00  0.00    -0.204 F 
HETATM   19  C13 UNL     1      28.335  -0.869  53.279  1.00  0.00     0.073 A 
HETATM   20 CL1  UNL     1      28.764  -2.572  53.045  1.00  0.00    -0.081 Cl
HETATM   21  C14 UNL     1      27.028  -0.433  53.219  1.00  0.00     0.034 A 
ENDBRANCH  13  14
ENDBRANCH  12  13
ENDBRANCH   7  12
BRANCH   1  22
HETATM   22  O1  UNL     1      17.682   0.237  51.996  1.00  0.00    -0.357 OA
HETATM   23  C1  UNL     1      16.830  -0.813  51.592  1.00  0.00     0.209 C 
ENDBRANCH   1  22
BRANCH  11  24
HETATM   24  O2  UNL     1      18.966   1.067  49.619  1.00  0.00    -0.385 OA
HETATM   25  H16 UNL     1      19.061   2.058  49.784  1.00  0.00     0.210 HD
ENDBRANCH  11  24
TORSDOF 5
ENDMDL
MODEL 8
REMARK VINA RESULT:      -8.1      4.490      5.368
REMARK  5 active torsions:
REMARK  status: ('A' for Active; 'I' for Inactive)
REMARK    1  A    between atoms: O1_2  and  C2_3 
REMARK    2  A    between atoms: C6_9  and  C7_10 
REMARK    3  A    between atoms: C7_10  and  C8_11 
REMARK    4  A    between atoms: C8_11  and  C9_12 
REMARK    5  A    between atoms: C18_23  and  O2_24 
ROOT
HETATM    1  C2  UNL     1      27.979   0.760  54.002  1.00  0.00     0.080 C 
HETATM    2  C3  UNL     1      26.965  -0.113  54.121  1.00  0.00     0.068 C 
HETATM    3  C4  UNL     1      25.555   0.027  53.693  1.00  0.00     0.072 A 
HETATM    4  N1  UNL     1      24.659  -0.753  54.336  1.00  0.00    -0.241 NA
HETATM    5  C5  UNL     1      23.355  -0.650  53.964  1.00  0.00     0.234 A 
HETATM    6  N2  UNL     1      22.884   0.181  52.990  1.00  0.00    -0.246 NA
HETATM    7  C6  UNL     1      23.746   0.980  52.319  1.00  0.00     0.048 A 
HETATM    8  C15 UNL     1      25.085   0.885  52.689  1.00  0.00     0.017 A 
HETATM    9  C16 UNL     1      25.885   1.817  51.874  1.00  0.00     0.015 C 
HETATM   10  C17 UNL     1      27.074   2.269  52.257  1.00  0.00     0.012 C 
HETATM   11  C18 UNL     1      27.995   2.119  53.411  1.00  0.00     0.197 C 
ENDROOT
BRANCH   7  12
HETATM   12  C7  UNL     1      23.320   1.902  51.246  1.00  0.00     0.065 C 
BRANCH  12  13
HETATM   13  C8  UNL     1      22.410   2.950  51.899  1.00  0.00     0.044 C 
BRANCH  13  14
HETATM   14  C9  UNL     1      22.740   4.291  51.312  1.00  0.00    -0.056 A 
HETATM   15  C10 UNL     1      21.926   5.394  51.466  1.00  0.00     0.010 A 
HETATM   16  C11 UNL     1      22.238   6.627  50.923  1.00  0.00     0.044 A 
HETATM   17  C12 UNL     1      23.400   6.787  50.196  1.00  0.00     0.138 A 
HETATM   18  F1  UNL     1      23.641   8.028  49.693  1.00  0.00    -0.204 F 
HETATM   19  C13 UNL     1      24.233   5.686  50.031  1.00  0.00     0.073 A 
HETATM   20 CL1  UNL     1      25.713   5.936  49.092  1.00  0.00    -0.081 Cl
HETATM   21  C14 UNL     1      23.915   4.460  50.576  1.00  0.00     0.034 A 
ENDBRANCH  13  14
ENDBRANCH  12  13
ENDBRANCH   7  12
BRANCH   1  22
HETATM   22  O1  UNL     1      29.057   0.114  54.565  1.00  0.00    -0.357 OA
HETATM   23  C1  UNL     1      29.727  -0.903  53.852  1.00  0.00     0.209 C 
ENDBRANCH   1  22
BRANCH  11  24
HETATM   24  O2  UNL     1      29.274   2.487  53.047  1.00  0.00    -0.385 OA
HETATM   25  H16 UNL     1      29.625   3.232  53.630  1.00  0.00     0.210 HD
ENDBRANCH  11  24
TORSDOF 5
ENDMDL
MODEL 9
REMARK VINA RESULT:      -8.0      5.424      7.628
REMARK  5 active torsions:
REMARK  status: ('A' for Active; 'I' for Inactive)
REMARK    1  A    between atoms: O1_2  and  C2_3 
REMARK    2  A    between atoms: C6_9  and  C7_10 
REMARK    3  A    between atoms: C7_10  and  C8_11 
REMARK    4  A    between atoms: C8_11  and  C9_12 
REMARK    5  A    between atoms: C18_23  and  O2_24 
ROOT
HETATM    1  C2  UNL     1      26.383   6.650  49.201  1.00  0.00     0.080 C 
HETATM    2  C3  UNL     1      25.353   6.791  50.051  1.00  0.00     0.068 C 
HETATM    3  C4  UNL     1      24.453   5.758  50.610  1.00  0.00     0.072 A 
HETATM    4  N1  UNL     1      23.245   6.188  51.033  1.00  0.00    -0.241 NA
HETATM    5  C5  UNL     1      22.396   5.262  51.555  1.00  0.00     0.234 A 
HETATM    6  N2  UNL     1      22.673   3.933  51.683  1.00  0.00    -0.246 NA
HETATM    7  C6  UNL     1      23.872   3.457  51.273  1.00  0.00     0.048 A 
HETATM    8  C15 UNL     1      24.752   4.394  50.736  1.00  0.00     0.017 A 
HETATM    9  C16 UNL     1      25.999   3.719  50.335  1.00  0.00     0.015 C 
HETATM   10  C17 UNL     1      26.833   4.225  49.433  1.00  0.00     0.012 C 
HETATM   11  C18 UNL     1      26.930   5.427  48.568  1.00  0.00     0.197 C 
ENDROOT
BRANCH   7  12
HETATM   12  C7  UNL     1      24.255   2.034  51.382  1.00  0.00     0.065 C 
BRANCH  12  13
HETATM   13  C8  UNL     1      24.453   1.743  52.876  1.00  0.00     0.044 C 
BRANCH  13  14
HETATM   14  C9  UNL     1      25.806   1.121  53.057  1.00  0.00    -0.056 A 
HETATM   15  C10 UNL     1      26.900   1.833  53.501  1.00  0.00     0.010 A 
HETATM   16  C11 UNL     1      28.145   1.252  53.667  1.00  0.00     0.044 A 
HETATM   17  C12 UNL     1      28.325  -0.087  53.386  1.00  0.00     0.138 A 
HETATM   18  F1  UNL     1      29.575  -0.588  53.573  1.00  0.00    -0.204 F 
HETATM   19  C13 UNL     1      27.232  -0.820  52.937  1.00  0.00     0.073 A 
HETATM   20 CL1  UNL     1      27.508  -2.534  52.588  1.00  0.00    -0.081 Cl
HETATM   21  C14 UNL     1      25.995  -0.233  52.775  1.00  0.00     0.034 A 
ENDBRANCH  13  14
ENDBRANCH  12  13
ENDBRANCH   7  12
BRANCH   1  22
HETATM   22  O1  UNL     1      26.859   7.931  49.022  1.00  0.00    -0.357 OA
HETATM   23  C1  UNL     1      27.014   8.792  50.129  1.00  0.00     0.209 C 
ENDBRANCH   1  22
BRANCH  11  24
HETATM   24  O2  UNL     1      28.236   5.617  48.165  1.00  0.00    -0.385 OA
HETATM   25  H16 UNL     1      28.301   5.743  47.167  1.00  0.00     0.210 HD
ENDBRANCH  11  24
TORSDOF 5
ENDMDL
