MODEL 1
REMARK VINA RESULT:      -7.2      0.000      0.000
REMARK  5 active torsions:
REMARK  status: ('A' for Active; 'I' for Inactive)
REMARK    1  A    between atoms: C4_5  and  C5_6 
REMARK    2  A    between atoms: C5_6  and  N1_7 
REMARK    3  A    between atoms: C9_11  and  C10_12 
REMARK    4  A    between atoms: C14_17  and  N2_18 
REMARK    5  A    between atoms: C22_28  and  O2_29 
ROOT
HETATM    1  C1  UNL     1      19.168  -0.952  53.091  1.00  0.00     0.019 C 
HETATM    2  C2  UNL     1      19.416   0.149  52.614  1.00  0.00    -0.066 C 
HETATM    3  C3  UNL     1      19.694   1.433  52.034  1.00  0.00     0.084 C 
HETATM    4 CL1  UNL     1      19.162   1.897  50.432  1.00  0.00    -0.075 Cl
HETATM    5  C4  UNL     1      20.389   2.318  52.743  1.00  0.00     0.026 C 
ENDROOT
BRANCH   5   6
HETATM    6  C5  UNL     1      20.747   3.691  52.256  1.00  0.00     0.150 C 
BRANCH   6   7
HETATM    7  N1  UNL     1      21.980   3.671  51.506  1.00  0.00    -0.372 N 
HETATM    8  C6  UNL     1      23.161   2.879  51.452  1.00  0.00     0.040 C 
HETATM    9  C7  UNL     1      23.843   3.151  52.604  1.00  0.00     0.110 C 
HETATM   10  C21 UNL     1      22.911   2.149  50.104  1.00  0.00     0.175 C 
HETATM   11  C8  UNL     1      25.148   2.658  53.116  1.00  0.00    -0.014 C 
HETATM   12  C9  UNL     1      26.236   1.904  52.811  1.00  0.00    -0.060 C 
HETATM   13  C12 UNL     1      26.439   2.137  51.290  1.00  0.00     0.201 C 
HETATM   14  O1  UNL     1      25.567   3.035  50.792  1.00  0.00    -0.384 OA
HETATM   15  C13 UNL     1      25.623   3.303  49.470  1.00  0.00     0.210 C 
HETATM   16  C14 UNL     1      24.792   4.544  49.101  1.00  0.00     0.298 C 
HETATM   17  C20 UNL     1      23.435   4.369  49.639  1.00  0.00     0.090 C 
HETATM   18  N4  UNL     1      23.001   3.224  49.129  1.00  0.00    -0.289 NA
HETATM   19  C22 UNL     1      22.221   4.708  50.462  1.00  0.00     0.267 C 
BRANCH  12  20
HETATM   20  C10 UNL     1      27.547   1.304  53.185  1.00  0.00     0.031 C 
HETATM   21  C11 UNL     1      28.469   2.423  53.609  1.00  0.00     0.010 C 
ENDBRANCH  12  20
BRANCH  16  22
HETATM   22  N2  UNL     1      25.462   5.656  49.781  1.00  0.00     0.104 N 
HETATM   23  C15 UNL     1      26.733   5.845  49.106  1.00  0.00     0.303 C 
HETATM   24  C16 UNL     1      27.077   7.322  48.958  1.00  0.00     0.302 C 
HETATM   25  N3  UNL     1      26.187   7.907  47.971  1.00  0.00     0.087 N 
HETATM   26  C17 UNL     1      26.469   9.304  47.857  1.00  0.00     0.310 C 
HETATM   27  C18 UNL     1      24.849   7.572  48.341  1.00  0.00     0.302 C 
HETATM   28  C19 UNL     1      24.742   6.882  49.686  1.00  0.00     0.303 C 
ENDBRANCH  16  22
BRANCH  19  29
HETATM   29  O2  UNL     1      21.068   4.808  49.733  1.00  0.00    -0.371 OA
HETATM   30  H31 UNL     1      20.950   5.748  49.419  1.00  0.00     0.212 HD
ENDBRANCH  19  29
ENDBRANCH   6   7
ENDBRANCH   5   6
TORSDOF 5
ENDMDL
MODEL 2
REMARK VINA RESULT:      -7.1      2.741      5.558
REMARK  5 active torsions:
REMARK  status: ('A' for Active; 'I' for Inactive)
REMARK    1  A    between atoms: C4_5  and  C5_6 
REMARK    2  A    between atoms: C5_6  and  N1_7 
REMARK    3  A    between atoms: C9_11  and  C10_12 
REMARK    4  A    between atoms: C14_17  and  N2_18 
REMARK    5  A    between atoms: C22_28  and  O2_29 
ROOT
HETATM    1  C1  UNL     1      16.356   4.088  49.304  1.00  0.00     0.019 C 
HETATM    2  C2  UNL     1      17.379   3.432  49.141  1.00  0.00    -0.066 C 
HETATM    3  C3  UNL     1      18.583   2.678  48.929  1.00  0.00     0.084 C 
HETATM    4 CL1  UNL     1      19.654   2.944  47.569  1.00  0.00    -0.075 Cl
HETATM    5  C4  UNL     1      18.905   1.730  49.803  1.00  0.00     0.026 C 
ENDROOT
BRANCH   5   6
HETATM    6  C5  UNL     1      20.131   0.871  49.699  1.00  0.00     0.150 C 
BRANCH   6   7
HETATM    7  N1  UNL     1      21.214   1.413  50.484  1.00  0.00    -0.372 N 
HETATM    8  C6  UNL     1      21.971   2.617  50.533  1.00  0.00     0.040 C 
HETATM    9  C7  UNL     1      22.759   2.605  49.418  1.00  0.00     0.110 C 
HETATM   10  C21 UNL     1      21.384   3.229  51.835  1.00  0.00     0.175 C 
HETATM   11  C8  UNL     1      23.778   3.567  48.920  1.00  0.00    -0.014 C 
HETATM   12  C9  UNL     1      24.454   4.706  49.219  1.00  0.00    -0.060 C 
HETATM   13  C12 UNL     1      24.660   4.627  50.755  1.00  0.00     0.201 C 
HETATM   14  O1  UNL     1      24.202   3.471  51.272  1.00  0.00    -0.384 OA
HETATM   15  C13 UNL     1      24.297   3.294  52.607  1.00  0.00     0.210 C 
HETATM   16  C14 UNL     1      24.020   1.836  53.013  1.00  0.00     0.298 C 
HETATM   17  C20 UNL     1      22.735   1.428  52.426  1.00  0.00     0.090 C 
HETATM   18  N4  UNL     1      21.853   2.316  52.865  1.00  0.00    -0.289 NA
HETATM   19  C22 UNL     1      21.802   0.599  51.586  1.00  0.00     0.267 C 
BRANCH  12  20
HETATM   20  C10 UNL     1      25.428   5.772  48.855  1.00  0.00     0.031 C 
HETATM   21  C11 UNL     1      26.811   5.164  48.864  1.00  0.00     0.010 C 
ENDBRANCH  12  20
BRANCH  16  22
HETATM   22  N2  UNL     1      25.114   1.068  52.410  1.00  0.00     0.104 N 
HETATM   23  C15 UNL     1      26.299   1.901  52.500  1.00  0.00     0.303 C 
HETATM   24  C16 UNL     1      27.537   1.081  52.848  1.00  0.00     0.302 C 
HETATM   25  N3  UNL     1      27.433   0.653  54.231  1.00  0.00     0.087 N 
HETATM   26  C17 UNL     1      28.567  -0.156  54.556  1.00  0.00     0.310 C 
HETATM   27  C18 UNL     1      26.159   0.031  54.399  1.00  0.00     0.302 C 
HETATM   28  C19 UNL     1      25.390  -0.146  53.105  1.00  0.00     0.303 C 
ENDBRANCH  16  22
BRANCH  19  29
HETATM   29  O2  UNL     1      20.753   0.066  52.284  1.00  0.00    -0.371 OA
HETATM   30  H31 UNL     1      20.430   0.726  52.960  1.00  0.00     0.212 HD
ENDBRANCH  19  29
ENDBRANCH   6   7
ENDBRANCH   5   6
TORSDOF 5
ENDMDL
MODEL 3
REMARK VINA RESULT:      -7.0      3.722      6.186
REMARK  5 active torsions:
REMARK  status: ('A' for Active; 'I' for Inactive)
REMARK    1  A    between atoms: C4_5  and  C5_6 
REMARK    2  A    between atoms: C5_6  and  N1_7 
REMARK    3  A    between atoms: C9_11  and  C10_12 
REMARK    4  A    between atoms: C14_17  and  N2_18 
REMARK    5  A    between atoms: C22_28  and  O2_29 
ROOT
HETATM    1  C1  UNL     1      15.121   0.375  49.005  1.00  0.00     0.019 C 
HETATM    2  C2  UNL     1      15.762   0.172  50.029  1.00  0.00    -0.066 C 
HETATM    3  C3  UNL     1      16.492  -0.064  51.243  1.00  0.00     0.084 C 
HETATM    4 CL1  UNL     1      15.734  -0.132  52.820  1.00  0.00    -0.075 Cl
HETATM    5  C4  UNL     1      17.808  -0.240  51.175  1.00  0.00     0.026 C 
ENDROOT
BRANCH   5   6
HETATM    6  C5  UNL     1      18.687  -0.493  52.363  1.00  0.00     0.150 C 
BRANCH   6   7
HETATM    7  N1  UNL     1      19.924   0.242  52.261  1.00  0.00    -0.372 N 
HETATM    8  C6  UNL     1      20.509   1.192  51.377  1.00  0.00     0.040 C 
HETATM    9  C7  UNL     1      20.800   0.504  50.234  1.00  0.00     0.110 C 
HETATM   10  C21 UNL     1      20.409   2.459  52.270  1.00  0.00     0.175 C 
HETATM   11  C8  UNL     1      21.439   0.931  48.962  1.00  0.00    -0.014 C 
HETATM   12  C9  UNL     1      22.052   1.968  48.333  1.00  0.00    -0.060 C 
HETATM   13  C12 UNL     1      22.844   2.677  49.463  1.00  0.00     0.201 C 
HETATM   14  O1  UNL     1      22.747   2.026  50.638  1.00  0.00    -0.384 OA
HETATM   15  C13 UNL     1      23.370   2.561  51.710  1.00  0.00     0.210 C 
HETATM   16  C14 UNL     1      23.428   1.575  52.891  1.00  0.00     0.298 C 
HETATM   17  C20 UNL     1      22.068   1.082  53.149  1.00  0.00     0.090 C 
HETATM   18  N4  UNL     1      21.334   2.169  53.354  1.00  0.00    -0.289 NA
HETATM   19  C22 UNL     1      20.977   0.057  53.302  1.00  0.00     0.267 C 
BRANCH  12  20
HETATM   20  C10 UNL     1      22.690   2.559  47.124  1.00  0.00     0.031 C 
HETATM   21  C11 UNL     1      21.791   3.659  46.612  1.00  0.00     0.010 C 
ENDBRANCH  12  20
BRANCH  16  22
HETATM   22  N2  UNL     1      24.279   0.479  52.417  1.00  0.00     0.104 N 
HETATM   23  C15 UNL     1      25.482   1.092  51.886  1.00  0.00     0.303 C 
HETATM   24  C16 UNL     1      26.727   0.287  52.241  1.00  0.00     0.302 C 
HETATM   25  N3  UNL     1      26.983   0.436  53.663  1.00  0.00     0.087 N 
HETATM   26  C17 UNL     1      28.122  -0.352  54.018  1.00  0.00     0.310 C 
HETATM   27  C18 UNL     1      25.774   0.127  54.357  1.00  0.00     0.302 C 
HETATM   28  C19 UNL     1      24.675  -0.407  53.461  1.00  0.00     0.303 C 
ENDBRANCH  16  22
BRANCH  19  29
HETATM   29  O2  UNL     1      20.343   0.100  54.514  1.00  0.00    -0.371 OA
HETATM   30  H31 UNL     1      20.545  -0.732  55.028  1.00  0.00     0.212 HD
ENDBRANCH  19  29
ENDBRANCH   6   7
ENDBRANCH   5   6
TORSDOF 5
ENDMDL
MODEL 4
REMARK VINA RESULT:      -6.9      2.946      6.396
REMARK  5 active torsions:
REMARK  status: ('A' for Active; 'I' for Inactive)
REMARK    1  A    between atoms: C4_5  and  C5_6 
REMARK    2  A    between atoms: C5_6  and  N1_7 
REMARK    3  A    between atoms: C9_11  and  C10_12 
REMARK    4  A    between atoms: C14_17  and  N2_18 
REMARK    5  A    between atoms: C22_28  and  O2_29 
ROOT
HETATM    1  C1  UNL     1      19.154   7.773  47.579  1.00  0.00     0.019 C 
HETATM    2  C2  UNL     1      20.042   7.655  48.416  1.00  0.00    -0.066 C 
HETATM    3  C3  UNL     1      21.093   7.537  49.387  1.00  0.00     0.084 C 
HETATM    4 CL1  UNL     1      22.500   8.580  49.408  1.00  0.00    -0.075 Cl
HETATM    5  C4  UNL     1      21.002   6.591  50.317  1.00  0.00     0.026 C 
ENDROOT
BRANCH   5   6
HETATM    6  C5  UNL     1      22.028   6.360  51.386  1.00  0.00     0.150 C 
BRANCH   6   7
HETATM    7  N1  UNL     1      22.477   4.989  51.388  1.00  0.00    -0.372 N 
HETATM    8  C6  UNL     1      21.906   3.700  51.194  1.00  0.00     0.040 C 
HETATM    9  C7  UNL     1      21.132   3.468  52.295  1.00  0.00     0.110 C 
HETATM   10  C21 UNL     1      22.502   3.369  49.798  1.00  0.00     0.175 C 
HETATM   11  C8  UNL     1      20.304   2.298  52.690  1.00  0.00    -0.014 C 
HETATM   12  C9  UNL     1      19.960   1.029  52.349  1.00  0.00    -0.060 C 
HETATM   13  C12 UNL     1      21.256   0.442  51.730  1.00  0.00     0.201 C 
HETATM   14  O1  UNL     1      22.289   1.304  51.799  1.00  0.00    -0.384 OA
HETATM   15  C13 UNL     1      23.469   0.920  51.266  1.00  0.00     0.210 C 
HETATM   16  C14 UNL     1      24.616   1.859  51.678  1.00  0.00     0.298 C 
HETATM   17  C20 UNL     1      24.218   3.240  51.366  1.00  0.00     0.090 C 
HETATM   18  N4  UNL     1      23.924   3.236  50.073  1.00  0.00    -0.289 NA
HETATM   19  C22 UNL     1      23.914   4.686  51.649  1.00  0.00     0.267 C 
BRANCH  12  20
HETATM   20  C10 UNL     1      19.171  -0.211  52.588  1.00  0.00     0.031 C 
HETATM   21  C11 UNL     1      18.025  -0.233  51.603  1.00  0.00     0.010 C 
ENDBRANCH  12  20
BRANCH  16  22
HETATM   22  N2  UNL     1      24.736   1.686  53.128  1.00  0.00     0.104 N 
HETATM   23  C15 UNL     1      24.938   0.267  53.357  1.00  0.00     0.303 C 
HETATM   24  C16 UNL     1      25.954   0.015  54.465  1.00  0.00     0.302 C 
HETATM   25  N3  UNL     1      27.273   0.373  53.972  1.00  0.00     0.087 N 
HETATM   26  C17 UNL     1      28.229   0.184  55.018  1.00  0.00     0.310 C 
HETATM   27  C18 UNL     1      27.192   1.693  53.435  1.00  0.00     0.302 C 
HETATM   28  C19 UNL     1      25.859   2.371  53.679  1.00  0.00     0.303 C 
ENDBRANCH  16  22
BRANCH  19  29
HETATM   29  O2  UNL     1      24.644   5.563  50.894  1.00  0.00    -0.371 OA
HETATM   30  H31 UNL     1      24.155   6.431  50.821  1.00  0.00     0.212 HD
ENDBRANCH  19  29
ENDBRANCH   6   7
ENDBRANCH   5   6
TORSDOF 5
ENDMDL
MODEL 5
REMARK VINA RESULT:      -6.8      6.600     10.378
REMARK  5 active torsions:
REMARK  status: ('A' for Active; 'I' for Inactive)
REMARK    1  A    between atoms: C4_5  and  C5_6 
REMARK    2  A    between atoms: C5_6  and  N1_7 
REMARK    3  A    between atoms: C9_11  and  C10_12 
REMARK    4  A    between atoms: C14_17  and  N2_18 
REMARK    5  A    between atoms: C22_28  and  O2_29 
ROOT
HETATM    1  C1  UNL     1      34.584   4.801  47.401  1.00  0.00     0.019 C 
HETATM    2  C2  UNL     1      33.985   5.748  46.904  1.00  0.00    -0.066 C 
HETATM    3  C3  UNL     1      33.274   6.842  46.304  1.00  0.00     0.084 C 
HETATM    4 CL1  UNL     1      32.316   6.678  44.847  1.00  0.00    -0.075 Cl
HETATM    5  C4  UNL     1      33.342   8.040  46.876  1.00  0.00     0.026 C 
ENDROOT
BRANCH   5   6
HETATM    6  C5  UNL     1      32.650   9.263  46.352  1.00  0.00     0.150 C 
BRANCH   6   7
HETATM    7  N1  UNL     1      31.476   9.571  47.133  1.00  0.00    -0.372 N 
HETATM    8  C6  UNL     1      30.528   8.861  47.923  1.00  0.00     0.040 C 
HETATM    9  C7  UNL     1      29.775   8.141  47.039  1.00  0.00     0.110 C 
HETATM   10  C21 UNL     1      30.978   9.328  49.334  1.00  0.00     0.175 C 
HETATM   11  C8  UNL     1      28.621   7.227  47.243  1.00  0.00    -0.014 C 
HETATM   12  C9  UNL     1      27.758   6.734  48.170  1.00  0.00    -0.060 C 
HETATM   13  C12 UNL     1      27.537   7.921  49.144  1.00  0.00     0.201 C 
HETATM   14  O1  UNL     1      28.171   9.038  48.739  1.00  0.00    -0.384 OA
HETATM   15  C13 UNL     1      28.079  10.136  49.520  1.00  0.00     0.210 C 
HETATM   16  C14 UNL     1      28.587  11.397  48.799  1.00  0.00     0.298 C 
HETATM   17  C20 UNL     1      29.934  11.120  48.278  1.00  0.00     0.090 C 
HETATM   18  N4  UNL     1      30.647  10.744  49.331  1.00  0.00    -0.289 NA
HETATM   19  C22 UNL     1      31.009  10.984  47.234  1.00  0.00     0.267 C 
BRANCH  12  20
HETATM   20  C10 UNL     1      26.627   5.841  48.547  1.00  0.00     0.031 C 
HETATM   21  C11 UNL     1      27.202   4.501  48.942  1.00  0.00     0.010 C 
ENDBRANCH  12  20
BRANCH  16  22
HETATM   22  N2  UNL     1      27.650  11.594  47.690  1.00  0.00     0.104 N 
HETATM   23  C15 UNL     1      26.318  11.567  48.267  1.00  0.00     0.303 C 
HETATM   24  C16 UNL     1      25.406  12.606  47.624  1.00  0.00     0.302 C 
HETATM   25  N3  UNL     1      25.833  13.925  48.055  1.00  0.00     0.087 N 
HETATM   26  C17 UNL     1      25.014  14.911  47.422  1.00  0.00     0.310 C 
HETATM   27  C18 UNL     1      27.235  14.030  47.805  1.00  0.00     0.302 C 
HETATM   28  C19 UNL     1      27.810  12.854  47.043  1.00  0.00     0.303 C 
ENDBRANCH  16  22
BRANCH  19  29
HETATM   29  O2  UNL     1      32.118  11.748  47.477  1.00  0.00    -0.371 OA
HETATM   30  H31 UNL     1      31.842  12.625  47.866  1.00  0.00     0.212 HD
ENDBRANCH  19  29
ENDBRANCH   6   7
ENDBRANCH   5   6
TORSDOF 5
ENDMDL
MODEL 6
REMARK VINA RESULT:      -6.7      3.425      7.021
REMARK  5 active torsions:
REMARK  status: ('A' for Active; 'I' for Inactive)
REMARK    1  A    between atoms: C4_5  and  C5_6 
REMARK    2  A    between atoms: C5_6  and  N1_7 
REMARK    3  A    between atoms: C9_11  and  C10_12 
REMARK    4  A    between atoms: C14_17  and  N2_18 
REMARK    5  A    between atoms: C22_28  and  O2_29 
ROOT
HETATM    1  C1  UNL     1      31.520   5.825  47.906  1.00  0.00     0.019 C 
HETATM    2  C2  UNL     1      30.510   6.504  48.055  1.00  0.00    -0.066 C 
HETATM    3  C3  UNL     1      29.341   7.316  48.245  1.00  0.00     0.084 C 
HETATM    4 CL1  UNL     1      29.328   8.764  49.229  1.00  0.00    -0.075 Cl
HETATM    5  C4  UNL     1      28.209   6.956  47.647  1.00  0.00     0.026 C 
ENDROOT
BRANCH   5   6
HETATM    6  C5  UNL     1      26.919   7.713  47.762  1.00  0.00     0.150 C 
BRANCH   6   7
HETATM    7  N1  UNL     1      25.907   6.918  48.415  1.00  0.00    -0.372 N 
HETATM    8  C6  UNL     1      25.838   5.984  49.487  1.00  0.00     0.040 C 
HETATM    9  C7  UNL     1      26.459   4.855  49.035  1.00  0.00     0.110 C 
HETATM   10  C21 UNL     1      25.118   6.867  50.543  1.00  0.00     0.175 C 
HETATM   11  C8  UNL     1      26.690   3.533  49.674  1.00  0.00    -0.014 C 
HETATM   12  C9  UNL     1      26.424   2.782  50.774  1.00  0.00    -0.060 C 
HETATM   13  C12 UNL     1      24.985   3.201  51.174  1.00  0.00     0.201 C 
HETATM   14  O1  UNL     1      24.446   4.073  50.301  1.00  0.00    -0.384 OA
HETATM   15  C13 UNL     1      23.204   4.537  50.555  1.00  0.00     0.210 C 
HETATM   16  C14 UNL     1      22.607   5.274  49.343  1.00  0.00     0.298 C 
HETATM   17  C20 UNL     1      23.570   6.294  48.902  1.00  0.00     0.090 C 
HETATM   18  N4  UNL     1      23.794   7.049  49.969  1.00  0.00    -0.289 NA
HETATM   19  C22 UNL     1      24.493   6.998  47.945  1.00  0.00     0.267 C 
BRANCH  12  20
HETATM   20  C10 UNL     1      26.584   1.527  51.559  1.00  0.00     0.031 C 
HETATM   21  C11 UNL     1      25.223   1.119  52.072  1.00  0.00     0.010 C 
ENDBRANCH  12  20
BRANCH  16  22
HETATM   22  N2  UNL     1      22.464   4.239  48.314  1.00  0.00     0.104 N 
HETATM   23  C15 UNL     1      21.546   3.251  48.850  1.00  0.00     0.303 C 
HETATM   24  C16 UNL     1      20.591   2.733  47.780  1.00  0.00     0.302 C 
HETATM   25  N3  UNL     1      19.649   3.788  47.451  1.00  0.00     0.087 N 
HETATM   26  C17 UNL     1      18.777   3.330  46.416  1.00  0.00     0.310 C 
HETATM   27  C18 UNL     1      20.402   4.965  47.153  1.00  0.00     0.302 C 
HETATM   28  C19 UNL     1      21.899   4.735  47.102  1.00  0.00     0.303 C 
ENDBRANCH  16  22
BRANCH  19  29
HETATM   29  O2  UNL     1      24.209   8.326  47.777  1.00  0.00    -0.371 OA
HETATM   30  H31 UNL     1      23.304   8.426  47.369  1.00  0.00     0.212 HD
ENDBRANCH  19  29
ENDBRANCH   6   7
ENDBRANCH   5   6
TORSDOF 5
ENDMDL
MODEL 7
REMARK VINA RESULT:      -6.6      2.335      4.891
REMARK  5 active torsions:
REMARK  status: ('A' for Active; 'I' for Inactive)
REMARK    1  A    between atoms: C4_5  and  C5_6 
REMARK    2  A    between atoms: C5_6  and  N1_7 
REMARK    3  A    between atoms: C9_11  and  C10_12 
REMARK    4  A    between atoms: C14_17  and  N2_18 
REMARK    5  A    between atoms: C22_28  and  O2_29 
ROOT
HETATM    1  C1  UNL     1      21.531  -0.654  54.949  1.00  0.00     0.019 C 
HETATM    2  C2  UNL     1      21.797  -0.184  53.848  1.00  0.00    -0.066 C 
HETATM    3  C3  UNL     1      22.085   0.360  52.551  1.00  0.00     0.084 C 
HETATM    4 CL1  UNL     1      20.991   0.226  51.190  1.00  0.00    -0.075 Cl
HETATM    5  C4  UNL     1      23.238   0.996  52.366  1.00  0.00     0.026 C 
ENDROOT
BRANCH   5   6
HETATM    6  C5  UNL     1      23.662   1.608  51.064  1.00  0.00     0.150 C 
BRANCH   6   7
HETATM    7  N1  UNL     1      23.308   3.006  51.007  1.00  0.00    -0.372 N 
HETATM    8  C6  UNL     1      22.127   3.781  50.841  1.00  0.00     0.040 C 
HETATM    9  C7  UNL     1      21.753   3.614  49.539  1.00  0.00     0.110 C 
HETATM   10  C21 UNL     1      21.972   4.314  52.292  1.00  0.00     0.175 C 
HETATM   11  C8  UNL     1      20.621   4.179  48.757  1.00  0.00    -0.014 C 
HETATM   12  C9  UNL     1      19.581   5.051  48.801  1.00  0.00    -0.060 C 
HETATM   13  C12 UNL     1      20.102   6.210  49.692  1.00  0.00     0.201 C 
HETATM   14  O1  UNL     1      21.387   6.037  50.054  1.00  0.00    -0.384 OA
HETATM   15  C13 UNL     1      21.949   6.966  50.857  1.00  0.00     0.210 C 
HETATM   16  C14 UNL     1      23.477   6.803  50.941  1.00  0.00     0.298 C 
HETATM   17  C20 UNL     1      23.774   5.410  51.307  1.00  0.00     0.090 C 
HETATM   18  N4  UNL     1      23.118   5.198  52.440  1.00  0.00    -0.289 NA
HETATM   19  C22 UNL     1      24.374   4.040  51.148  1.00  0.00     0.267 C 
BRANCH  12  20
HETATM   20  C10 UNL     1      18.393   5.689  48.169  1.00  0.00     0.031 C 
HETATM   21  C11 UNL     1      18.778   6.109  46.770  1.00  0.00     0.010 C 
ENDBRANCH  12  20
BRANCH  16  22
HETATM   22  N2  UNL     1      23.955   7.080  49.583  1.00  0.00     0.104 N 
HETATM   23  C15 UNL     1      23.580   8.450  49.286  1.00  0.00     0.303 C 
HETATM   24  C16 UNL     1      24.675   9.178  48.515  1.00  0.00     0.302 C 
HETATM   25  N3  UNL     1      25.791   9.418  49.412  1.00  0.00     0.087 N 
HETATM   26  C17 UNL     1      26.844  10.059  48.688  1.00  0.00     0.310 C 
HETATM   27  C18 UNL     1      26.129   8.174  50.027  1.00  0.00     0.302 C 
HETATM   28  C19 UNL     1      25.373   6.989  49.464  1.00  0.00     0.303 C 
ENDBRANCH  16  22
BRANCH  19  29
HETATM   29  O2  UNL     1      25.160   3.654  52.200  1.00  0.00    -0.371 OA
HETATM   30  H31 UNL     1      24.919   2.725  52.474  1.00  0.00     0.212 HD
ENDBRANCH  19  29
ENDBRANCH   6   7
ENDBRANCH   5   6
TORSDOF 5
ENDMDL
MODEL 8
REMARK VINA RESULT:      -6.4      2.858      6.895
REMARK  5 active torsions:
REMARK  status: ('A' for Active; 'I' for Inactive)
REMARK    1  A    between atoms: C4_5  and  C5_6 
REMARK    2  A    between atoms: C5_6  and  N1_7 
REMARK    3  A    between atoms: C9_11  and  C10_12 
REMARK    4  A    between atoms: C14_17  and  N2_18 
REMARK    5  A    between atoms: C22_28  and  O2_29 
ROOT
HETATM    1  C1  UNL     1      20.675  10.001  46.765  1.00  0.00     0.019 C 
HETATM    2  C2  UNL     1      20.982   9.488  47.835  1.00  0.00    -0.066 C 
HETATM    3  C3  UNL     1      21.319   8.890  49.096  1.00  0.00     0.084 C 
HETATM    4 CL1  UNL     1      20.170   8.700  50.404  1.00  0.00    -0.075 Cl
HETATM    5  C4  UNL     1      22.561   8.458  49.288  1.00  0.00     0.026 C 
ENDROOT
BRANCH   5   6
HETATM    6  C5  UNL     1      23.043   7.816  50.555  1.00  0.00     0.150 C 
BRANCH   6   7
HETATM    7  N1  UNL     1      23.093   6.380  50.425  1.00  0.00    -0.372 N 
HETATM    8  C6  UNL     1      22.320   5.357  49.808  1.00  0.00     0.040 C 
HETATM    9  C7  UNL     1      21.170   5.269  50.540  1.00  0.00     0.110 C 
HETATM   10  C21 UNL     1      23.272   4.997  48.634  1.00  0.00     0.175 C 
HETATM   11  C8  UNL     1      19.986   4.380  50.413  1.00  0.00    -0.014 C 
HETATM   12  C9  UNL     1      19.474   3.320  49.734  1.00  0.00    -0.060 C 
HETATM   13  C12 UNL     1      20.709   2.424  49.451  1.00  0.00     0.201 C 
HETATM   14  O1  UNL     1      21.832   2.913  50.012  1.00  0.00    -0.384 OA
HETATM   15  C13 UNL     1      22.983   2.237  49.812  1.00  0.00     0.210 C 
HETATM   16  C14 UNL     1      24.106   2.729  50.742  1.00  0.00     0.298 C 
HETATM   17  C20 UNL     1      24.215   4.189  50.603  1.00  0.00     0.090 C 
HETATM   18  N4  UNL     1      24.415   4.404  49.309  1.00  0.00    -0.289 NA
HETATM   19  C22 UNL     1      24.212   5.623  51.059  1.00  0.00     0.267 C 
BRANCH  12  20
HETATM   20  C10 UNL     1      18.362   2.368  49.461  1.00  0.00     0.031 C 
HETATM   21  C11 UNL     1      18.668   1.074  50.177  1.00  0.00     0.010 C 
ENDBRANCH  12  20
BRANCH  16  22
HETATM   22  N2  UNL     1      23.649   2.386  52.091  1.00  0.00     0.104 N 
HETATM   23  C15 UNL     1      23.323   0.971  52.067  1.00  0.00     0.303 C 
HETATM   24  C16 UNL     1      23.758   0.272  53.350  1.00  0.00     0.302 C 
HETATM   25  N3  UNL     1      25.208   0.190  53.363  1.00  0.00     0.087 N 
HETATM   26  C17 UNL     1      25.631  -0.423  54.583  1.00  0.00     0.310 C 
HETATM   27  C18 UNL     1      25.719   1.500  53.116  1.00  0.00     0.302 C 
HETATM   28  C19 UNL     1      24.653   2.576  53.085  1.00  0.00     0.303 C 
ENDBRANCH  16  22
BRANCH  19  29
HETATM   29  O2  UNL     1      25.363   6.301  50.763  1.00  0.00    -0.371 OA
HETATM   30  H31 UNL     1      25.882   6.462  51.601  1.00  0.00     0.212 HD
ENDBRANCH  19  29
ENDBRANCH   6   7
ENDBRANCH   5   6
TORSDOF 5
ENDMDL
MODEL 9
REMARK VINA RESULT:      -6.3      2.433      4.820
REMARK  5 active torsions:
REMARK  status: ('A' for Active; 'I' for Inactive)
REMARK    1  A    between atoms: C4_5  and  C5_6 
REMARK    2  A    between atoms: C5_6  and  N1_7 
REMARK    3  A    between atoms: C9_11  and  C10_12 
REMARK    4  A    between atoms: C14_17  and  N2_18 
REMARK    5  A    between atoms: C22_28  and  O2_29 
ROOT
HETATM    1  C1  UNL     1      18.070  -1.717  53.374  1.00  0.00     0.019 C 
HETATM    2  C2  UNL     1      19.136  -1.112  53.364  1.00  0.00    -0.066 C 
HETATM    3  C3  UNL     1      20.384  -0.401  53.378  1.00  0.00     0.084 C 
HETATM    4 CL1  UNL     1      21.119   0.216  54.842  1.00  0.00    -0.075 Cl
HETATM    5  C4  UNL     1      21.016  -0.197  52.226  1.00  0.00     0.026 C 
ENDROOT
BRANCH   5   6
HETATM    6  C5  UNL     1      22.322   0.530  52.101  1.00  0.00     0.150 C 
BRANCH   6   7
HETATM    7  N1  UNL     1      22.135   1.841  51.528  1.00  0.00    -0.372 N 
HETATM    8  C6  UNL     1      21.158   2.508  50.737  1.00  0.00     0.040 C 
HETATM    9  C7  UNL     1      21.249   1.956  49.491  1.00  0.00     0.110 C 
HETATM   10  C21 UNL     1      20.554   3.443  51.820  1.00  0.00     0.175 C 
HETATM   11  C8  UNL     1      20.516   2.240  48.230  1.00  0.00    -0.014 C 
HETATM   12  C9  UNL     1      19.606   3.065  47.649  1.00  0.00    -0.060 C 
HETATM   13  C12 UNL     1      19.883   4.446  48.299  1.00  0.00     0.201 C 
HETATM   14  O1  UNL     1      20.940   4.414  49.133  1.00  0.00    -0.384 OA
HETATM   15  C13 UNL     1      21.266   5.551  49.785  1.00  0.00     0.210 C 
HETATM   16  C14 UNL     1      22.648   5.452  50.455  1.00  0.00     0.298 C 
HETATM   17  C20 UNL     1      22.676   4.236  51.281  1.00  0.00     0.090 C 
HETATM   18  N4  UNL     1      21.650   4.354  52.113  1.00  0.00    -0.289 NA
HETATM   19  C22 UNL     1      23.171   2.892  51.743  1.00  0.00     0.267 C 
BRANCH  12  20
HETATM   20  C10 UNL     1      18.774   3.463  46.479  1.00  0.00     0.031 C 
HETATM   21  C11 UNL     1      19.297   4.782  45.960  1.00  0.00     0.010 C 
ENDBRANCH  12  20
BRANCH  16  22
HETATM   22  N2  UNL     1      23.592   5.325  49.341  1.00  0.00     0.104 N 
HETATM   23  C15 UNL     1      23.437   6.519  48.531  1.00  0.00     0.303 C 
HETATM   24  C16 UNL     1      24.778   7.030  48.019  1.00  0.00     0.302 C 
HETATM   25  N3  UNL     1      25.518   7.587  49.137  1.00  0.00     0.087 N 
HETATM   26  C17 UNL     1      26.798   8.028  48.678  1.00  0.00     0.310 C 
HETATM   27  C18 UNL     1      25.535   6.608  50.177  1.00  0.00     0.302 C 
HETATM   28  C19 UNL     1      24.951   5.272  49.767  1.00  0.00     0.303 C 
ENDBRANCH  16  22
BRANCH  19  29
HETATM   29  O2  UNL     1      23.503   2.851  53.070  1.00  0.00    -0.371 OA
HETATM   30  H31 UNL     1      23.183   3.682  53.522  1.00  0.00     0.212 HD
ENDBRANCH  19  29
ENDBRANCH   6   7
ENDBRANCH   5   6
TORSDOF 5
ENDMDL
