MODEL 1
REMARK VINA RESULT:      -8.2      0.000      0.000
REMARK  3 active torsions:
REMARK  status: ('A' for Active; 'I' for Inactive)
REMARK    1  A    between atoms: C4_5  and  O1_6 
REMARK    2  A    between atoms: O1_6  and  C5_7 
REMARK    3  A    between atoms: C5_7  and  C6_8 
ROOT
HETATM    1  C6  UNL     1      26.353   1.022  52.781  1.00  0.00    -0.048 C 
HETATM    2  C7  UNL     1      26.987  -0.093  52.372  1.00  0.00     0.032 C 
HETATM    3  C8  UNL     1      26.635  -1.306  53.148  1.00  0.00     0.032 C 
HETATM    4  N1  UNL     1      25.757  -0.962  54.063  1.00  0.00    -0.293 NA
HETATM    5  C9  UNL     1      26.158   0.120  54.997  1.00  0.00     0.158 C 
HETATM    6  C10 UNL     1      26.933   1.112  54.173  1.00  0.00     0.042 C 
HETATM    7  C11 UNL     1      28.409   0.958  54.223  1.00  0.00     0.036 C 
HETATM    8  C12 UNL     1      29.403   0.085  53.916  1.00  0.00    -0.001 C 
HETATM    9  C13 UNL     1      29.790  -1.256  53.353  1.00  0.00    -0.029 C 
HETATM   10  C14 UNL     1      28.890  -2.143  52.893  1.00  0.00    -0.025 C 
HETATM   11  C15 UNL     1      27.445  -2.442  52.656  1.00  0.00     0.085 C 
ENDROOT
BRANCH   1  12
HETATM   12  C5  UNL     1      25.369   2.077  52.346  1.00  0.00     0.210 C 
BRANCH  12  13
HETATM   13  O1  UNL     1      24.417   1.509  51.486  1.00  0.00    -0.347 OA
BRANCH  13  14
HETATM   14  C4  UNL     1      23.166   1.072  51.816  1.00  0.00     0.069 A 
HETATM   15  C3  UNL     1      22.214   0.992  50.813  1.00  0.00     0.038 A 
HETATM   16  C2  UNL     1      20.928   0.552  51.097  1.00  0.00     0.026 A 
HETATM   17  C1  UNL     1      20.586   0.194  52.370  1.00  0.00     0.034 A 
HETATM   18 CL1  UNL     1      18.947  -0.365  52.723  1.00  0.00    -0.084 Cl
HETATM   19  C17 UNL     1      21.519   0.262  53.407  1.00  0.00     0.026 A 
HETATM   20  C16 UNL     1      22.808   0.703  53.118  1.00  0.00     0.038 A 
ENDBRANCH  13  14
ENDBRANCH  12  13
ENDBRANCH   1  12
TORSDOF 3
ENDMDL
MODEL 2
REMARK VINA RESULT:      -8.0      1.525      2.771
REMARK  3 active torsions:
REMARK  status: ('A' for Active; 'I' for Inactive)
REMARK    1  A    between atoms: C4_5  and  O1_6 
REMARK    2  A    between atoms: O1_6  and  C5_7 
REMARK    3  A    between atoms: C5_7  and  C6_8 
ROOT
HETATM    1  C6  UNL     1      25.447   1.473  53.135  1.00  0.00    -0.048 C 
HETATM    2  C7  UNL     1      26.606   1.544  53.815  1.00  0.00     0.032 C 
HETATM    3  C8  UNL     1      27.700   2.215  53.073  1.00  0.00     0.032 C 
HETATM    4  N1  UNL     1      27.230   2.584  51.903  1.00  0.00    -0.293 NA
HETATM    5  C9  UNL     1      26.642   1.517  51.054  1.00  0.00     0.158 C 
HETATM    6  C10 UNL     1      25.909   0.598  51.993  1.00  0.00     0.042 C 
HETATM    7  C11 UNL     1      26.669  -0.604  52.423  1.00  0.00     0.036 C 
HETATM    8  C12 UNL     1      27.787  -0.976  53.099  1.00  0.00    -0.001 C 
HETATM    9  C13 UNL     1      29.009  -0.552  53.866  1.00  0.00    -0.029 C 
HETATM   10  C14 UNL     1      29.320   0.736  54.093  1.00  0.00    -0.025 C 
HETATM   11  C15 UNL     1      28.933   2.166  53.888  1.00  0.00     0.085 C 
ENDROOT
BRANCH   1  12
HETATM   12  C5  UNL     1      24.011   1.933  53.148  1.00  0.00     0.210 C 
BRANCH  12  13
HETATM   13  O1  UNL     1      23.256   1.147  52.264  1.00  0.00    -0.347 OA
BRANCH  13  14
HETATM   14  C4  UNL     1      22.028   0.597  52.495  1.00  0.00     0.069 A 
HETATM   15  C3  UNL     1      21.852  -0.154  53.645  1.00  0.00     0.038 A 
HETATM   16  C2  UNL     1      20.622  -0.734  53.926  1.00  0.00     0.026 A 
HETATM   17  C1  UNL     1      19.570  -0.570  53.070  1.00  0.00     0.034 A 
HETATM   18 CL1  UNL     1      18.008  -1.311  53.436  1.00  0.00    -0.084 Cl
HETATM   19  C17 UNL     1      19.710   0.180  51.901  1.00  0.00     0.026 A 
HETATM   20  C16 UNL     1      20.945   0.760  51.623  1.00  0.00     0.038 A 
ENDBRANCH  13  14
ENDBRANCH  12  13
ENDBRANCH   1  12
TORSDOF 3
ENDMDL
MODEL 3
REMARK VINA RESULT:      -7.9      3.392      4.440
REMARK  3 active torsions:
REMARK  status: ('A' for Active; 'I' for Inactive)
REMARK    1  A    between atoms: C4_5  and  O1_6 
REMARK    2  A    between atoms: O1_6  and  C5_7 
REMARK    3  A    between atoms: C5_7  and  C6_8 
ROOT
HETATM    1  C6  UNL     1      26.062   0.676  52.289  1.00  0.00    -0.048 C 
HETATM    2  C7  UNL     1      26.998  -0.281  52.157  1.00  0.00     0.032 C 
HETATM    3  C8  UNL     1      26.893  -1.371  53.156  1.00  0.00     0.032 C 
HETATM    4  N1  UNL     1      25.868  -1.109  53.936  1.00  0.00    -0.293 NA
HETATM    5  C9  UNL     1      25.881   0.200  54.635  1.00  0.00     0.158 C 
HETATM    6  C10 UNL     1      26.455   1.188  53.655  1.00  0.00     0.042 C 
HETATM    7  C11 UNL     1      27.909   1.453  53.805  1.00  0.00     0.036 C 
HETATM    8  C12 UNL     1      29.120   0.841  53.737  1.00  0.00    -0.001 C 
HETATM    9  C13 UNL     1      29.892  -0.426  53.491  1.00  0.00    -0.029 C 
HETATM   10  C14 UNL     1      29.301  -1.596  53.189  1.00  0.00    -0.025 C 
HETATM   11  C15 UNL     1      28.013  -2.317  52.955  1.00  0.00     0.085 C 
ENDROOT
BRANCH   1  12
HETATM   12  C5  UNL     1      24.890   1.320  51.595  1.00  0.00     0.210 C 
BRANCH  12  13
HETATM   13  O1  UNL     1      24.957   2.713  51.749  1.00  0.00    -0.347 OA
BRANCH  13  14
HETATM   14  C4  UNL     1      25.438   3.618  50.847  1.00  0.00     0.069 A 
HETATM   15  C3  UNL     1      24.774   4.826  50.714  1.00  0.00     0.038 A 
HETATM   16  C2  UNL     1      25.223   5.781  49.811  1.00  0.00     0.026 A 
HETATM   17  C1  UNL     1      26.327   5.539  49.043  1.00  0.00     0.034 A 
HETATM   18 CL1  UNL     1      26.893   6.759  47.897  1.00  0.00    -0.084 Cl
HETATM   19  C17 UNL     1      27.022   4.333  49.150  1.00  0.00     0.026 A 
HETATM   20  C16 UNL     1      26.568   3.378  50.056  1.00  0.00     0.038 A 
ENDBRANCH  13  14
ENDBRANCH  12  13
ENDBRANCH   1  12
TORSDOF 3
ENDMDL
MODEL 4
REMARK VINA RESULT:      -7.9      1.660      2.774
REMARK  3 active torsions:
REMARK  status: ('A' for Active; 'I' for Inactive)
REMARK    1  A    between atoms: C4_5  and  O1_6 
REMARK    2  A    between atoms: O1_6  and  C5_7 
REMARK    3  A    between atoms: C5_7  and  C6_8 
ROOT
HETATM    1  C6  UNL     1      25.910  -0.437  53.842  1.00  0.00    -0.048 C 
HETATM    2  C7  UNL     1      27.086   0.009  54.320  1.00  0.00     0.032 C 
HETATM    3  C8  UNL     1      27.723   1.050  53.478  1.00  0.00     0.032 C 
HETATM    4  N1  UNL     1      26.937   1.278  52.450  1.00  0.00    -0.293 NA
HETATM    5  C9  UNL     1      26.590   0.107  51.606  1.00  0.00     0.158 C 
HETATM    6  C10 UNL     1      26.408  -1.048  52.553  1.00  0.00     0.042 C 
HETATM    7  C11 UNL     1      27.597  -1.922  52.719  1.00  0.00     0.036 C 
HETATM    8  C12 UNL     1      28.884  -1.905  53.153  1.00  0.00    -0.001 C 
HETATM    9  C13 UNL     1      30.016  -1.110  53.743  1.00  0.00    -0.029 C 
HETATM   10  C14 UNL     1      29.913   0.196  54.048  1.00  0.00    -0.025 C 
HETATM   11  C15 UNL     1      29.034   1.405  54.064  1.00  0.00     0.085 C 
ENDROOT
BRANCH   1  12
HETATM   12  C5  UNL     1      24.436  -0.512  54.146  1.00  0.00     0.210 C 
BRANCH  12  13
HETATM   13  O1  UNL     1      23.808   0.675  53.737  1.00  0.00    -0.347 OA
BRANCH  13  14
HETATM   14  C4  UNL     1      23.140   0.891  52.566  1.00  0.00     0.069 A 
HETATM   15  C3  UNL     1      22.043   0.094  52.281  1.00  0.00     0.038 A 
HETATM   16  C2  UNL     1      21.329   0.274  51.104  1.00  0.00     0.026 A 
HETATM   17  C1  UNL     1      21.701   1.240  50.212  1.00  0.00     0.034 A 
HETATM   18 CL1  UNL     1      20.787   1.463  48.717  1.00  0.00    -0.084 Cl
HETATM   19  C17 UNL     1      22.801   2.062  50.466  1.00  0.00     0.026 A 
HETATM   20  C16 UNL     1      23.514   1.878  51.648  1.00  0.00     0.038 A 
ENDBRANCH  13  14
ENDBRANCH  12  13
ENDBRANCH   1  12
TORSDOF 3
ENDMDL
MODEL 5
REMARK VINA RESULT:      -7.8      3.243      6.756
REMARK  3 active torsions:
REMARK  status: ('A' for Active; 'I' for Inactive)
REMARK    1  A    between atoms: C4_5  and  O1_6 
REMARK    2  A    between atoms: O1_6  and  C5_7 
REMARK    3  A    between atoms: C5_7  and  C6_8 
ROOT
HETATM    1  C6  UNL     1      22.898   0.631  52.074  1.00  0.00    -0.048 C 
HETATM    2  C7  UNL     1      23.455   1.427  51.143  1.00  0.00     0.032 C 
HETATM    3  C8  UNL     1      23.045   2.849  51.243  1.00  0.00     0.032 C 
HETATM    4  N1  UNL     1      22.219   2.963  52.258  1.00  0.00    -0.293 NA
HETATM    5  C9  UNL     1      21.009   2.103  52.231  1.00  0.00     0.158 C 
HETATM    6  C10 UNL     1      21.452   0.782  51.663  1.00  0.00     0.042 C 
HETATM    7  C11 UNL     1      21.217   0.610  50.207  1.00  0.00     0.036 C 
HETATM    8  C12 UNL     1      21.565   1.127  49.000  1.00  0.00    -0.001 C 
HETATM    9  C13 UNL     1      22.360   2.151  48.237  1.00  0.00    -0.029 C 
HETATM   10  C14 UNL     1      23.144   3.063  48.836  1.00  0.00    -0.025 C 
HETATM   11  C15 UNL     1      23.661   3.605  50.130  1.00  0.00     0.085 C 
ENDROOT
BRANCH   1  12
HETATM   12  C5  UNL     1      23.218  -0.255  53.251  1.00  0.00     0.210 C 
BRANCH  12  13
HETATM   13  O1  UNL     1      24.294   0.288  53.971  1.00  0.00    -0.347 OA
BRANCH  13  14
HETATM   14  C4  UNL     1      25.614  -0.041  53.851  1.00  0.00     0.069 A 
HETATM   15  C3  UNL     1      26.517   0.551  54.717  1.00  0.00     0.038 A 
HETATM   16  C2  UNL     1      27.871   0.250  54.637  1.00  0.00     0.026 A 
HETATM   17  C1  UNL     1      28.327  -0.635  53.702  1.00  0.00     0.034 A 
HETATM   18 CL1  UNL     1      30.050  -1.013  53.606  1.00  0.00    -0.084 Cl
HETATM   19  C17 UNL     1      27.445  -1.252  52.811  1.00  0.00     0.026 A 
HETATM   20  C16 UNL     1      26.089  -0.947  52.895  1.00  0.00     0.038 A 
ENDBRANCH  13  14
ENDBRANCH  12  13
ENDBRANCH   1  12
TORSDOF 3
ENDMDL
MODEL 6
REMARK VINA RESULT:      -7.7      2.636      3.690
REMARK  3 active torsions:
REMARK  status: ('A' for Active; 'I' for Inactive)
REMARK    1  A    between atoms: C4_5  and  O1_6 
REMARK    2  A    between atoms: O1_6  and  C5_7 
REMARK    3  A    between atoms: C5_7  and  C6_8 
ROOT
HETATM    1  C6  UNL     1      25.476   1.349  53.165  1.00  0.00    -0.048 C 
HETATM    2  C7  UNL     1      26.636   1.515  53.827  1.00  0.00     0.032 C 
HETATM    3  C8  UNL     1      27.682   2.215  53.044  1.00  0.00     0.032 C 
HETATM    4  N1  UNL     1      27.180   2.508  51.865  1.00  0.00    -0.293 NA
HETATM    5  C9  UNL     1      26.646   1.373  51.070  1.00  0.00     0.158 C 
HETATM    6  C10 UNL     1      25.977   0.454  52.055  1.00  0.00     0.042 C 
HETATM    7  C11 UNL     1      26.810  -0.682  52.525  1.00  0.00     0.036 C 
HETATM    8  C12 UNL     1      27.955  -0.961  53.202  1.00  0.00    -0.001 C 
HETATM    9  C13 UNL     1      29.158  -0.435  53.935  1.00  0.00    -0.029 C 
HETATM   10  C14 UNL     1      29.396   0.878  54.104  1.00  0.00    -0.025 C 
HETATM   11  C15 UNL     1      28.924   2.273  53.845  1.00  0.00     0.085 C 
ENDROOT
BRANCH   1  12
HETATM   12  C5  UNL     1      24.017   1.725  53.177  1.00  0.00     0.210 C 
BRANCH  12  13
HETATM   13  O1  UNL     1      23.823   2.886  52.414  1.00  0.00    -0.347 OA
BRANCH  13  14
HETATM   14  C4  UNL     1      23.453   2.956  51.101  1.00  0.00     0.069 A 
HETATM   15  C3  UNL     1      22.687   1.927  50.581  1.00  0.00     0.038 A 
HETATM   16  C2  UNL     1      22.285   1.951  49.252  1.00  0.00     0.026 A 
HETATM   17  C1  UNL     1      22.642   2.992  48.441  1.00  0.00     0.034 A 
HETATM   18 CL1  UNL     1      22.126   3.016  46.752  1.00  0.00    -0.084 Cl
HETATM   19  C17 UNL     1      23.414   4.047  48.932  1.00  0.00     0.026 A 
HETATM   20  C16 UNL     1      23.814   4.019  50.265  1.00  0.00     0.038 A 
ENDBRANCH  13  14
ENDBRANCH  12  13
ENDBRANCH   1  12
TORSDOF 3
ENDMDL
MODEL 7
REMARK VINA RESULT:      -7.5      3.320      6.172
REMARK  3 active torsions:
REMARK  status: ('A' for Active; 'I' for Inactive)
REMARK    1  A    between atoms: C4_5  and  O1_6 
REMARK    2  A    between atoms: O1_6  and  C5_7 
REMARK    3  A    between atoms: C5_7  and  C6_8 
ROOT
HETATM    1  C6  UNL     1      23.764   1.290  52.175  1.00  0.00    -0.048 C 
HETATM    2  C7  UNL     1      24.446   1.720  51.098  1.00  0.00     0.032 C 
HETATM    3  C8  UNL     1      25.566   2.637  51.420  1.00  0.00     0.032 C 
HETATM    4  N1  UNL     1      25.604   2.788  52.725  1.00  0.00    -0.293 NA
HETATM    5  C9  UNL     1      24.363   3.281  53.373  1.00  0.00     0.158 C 
HETATM    6  C10 UNL     1      23.224   2.620  52.645  1.00  0.00     0.042 C 
HETATM    7  C11 UNL     1      22.605   3.436  51.569  1.00  0.00     0.036 C 
HETATM    8  C12 UNL     1      22.887   4.024  50.378  1.00  0.00    -0.001 C 
HETATM    9  C13 UNL     1      23.906   4.304  49.308  1.00  0.00    -0.029 C 
HETATM   10  C14 UNL     1      25.174   3.862  49.371  1.00  0.00    -0.025 C 
HETATM   11  C15 UNL     1      26.188   3.096  50.159  1.00  0.00     0.085 C 
ENDROOT
BRANCH   1  12
HETATM   12  C5  UNL     1      23.411   0.055  52.964  1.00  0.00     0.210 C 
BRANCH  12  13
HETATM   13  O1  UNL     1      24.333  -0.118  54.007  1.00  0.00    -0.347 OA
BRANCH  13  14
HETATM   14  C4  UNL     1      25.679  -0.319  53.891  1.00  0.00     0.069 A 
HETATM   15  C3  UNL     1      26.514   0.303  54.804  1.00  0.00     0.038 A 
HETATM   16  C2  UNL     1      27.890   0.131  54.730  1.00  0.00     0.026 A 
HETATM   17  C1  UNL     1      28.436  -0.654  53.754  1.00  0.00     0.034 A 
HETATM   18 CL1  UNL     1      30.188  -0.869  53.667  1.00  0.00    -0.084 Cl
HETATM   19  C17 UNL     1      27.625  -1.296  52.816  1.00  0.00     0.026 A 
HETATM   20  C16 UNL     1      26.246  -1.121  52.894  1.00  0.00     0.038 A 
ENDBRANCH  13  14
ENDBRANCH  12  13
ENDBRANCH   1  12
TORSDOF 3
ENDMDL
MODEL 8
REMARK VINA RESULT:      -7.2      3.125      6.726
REMARK  3 active torsions:
REMARK  status: ('A' for Active; 'I' for Inactive)
REMARK    1  A    between atoms: C4_5  and  O1_6 
REMARK    2  A    between atoms: O1_6  and  C5_7 
REMARK    3  A    between atoms: C5_7  and  C6_8 
ROOT
HETATM    1  C6  UNL     1      23.601   2.606  52.751  1.00  0.00    -0.048 C 
HETATM    2  C7  UNL     1      22.652   1.676  52.538  1.00  0.00     0.032 C 
HETATM    3  C8  UNL     1      22.494   1.289  51.116  1.00  0.00     0.032 C 
HETATM    4  N1  UNL     1      23.362   1.977  50.409  1.00  0.00    -0.293 NA
HETATM    5  C9  UNL     1      23.292   3.456  50.527  1.00  0.00     0.158 C 
HETATM    6  C10 UNL     1      22.980   3.742  51.971  1.00  0.00     0.042 C 
HETATM    7  C11 UNL     1      21.544   3.969  52.274  1.00  0.00     0.036 C 
HETATM    8  C12 UNL     1      20.335   3.350  52.244  1.00  0.00    -0.001 C 
HETATM    9  C13 UNL     1      19.551   2.106  51.929  1.00  0.00    -0.029 C 
HETATM   10  C14 UNL     1      20.117   0.987  51.443  1.00  0.00    -0.025 C 
HETATM   11  C15 UNL     1      21.381   0.321  51.002  1.00  0.00     0.085 C 
ENDROOT
BRANCH   1  12
HETATM   12  C5  UNL     1      24.922   2.846  53.434  1.00  0.00     0.210 C 
BRANCH  12  13
HETATM   13  O1  UNL     1      25.966   2.388  52.616  1.00  0.00    -0.347 OA
BRANCH  13  14
HETATM   14  C4  UNL     1      26.679   1.232  52.760  1.00  0.00     0.069 A 
HETATM   15  C3  UNL     1      27.964   1.314  53.271  1.00  0.00     0.038 A 
HETATM   16  C2  UNL     1      28.729   0.168  53.437  1.00  0.00     0.026 A 
HETATM   17  C1  UNL     1      28.224  -1.056  53.098  1.00  0.00     0.034 A 
HETATM   18 CL1  UNL     1      29.204  -2.510  53.313  1.00  0.00    -0.084 Cl
HETATM   19  C17 UNL     1      26.933  -1.177  52.580  1.00  0.00     0.026 A 
HETATM   20  C16 UNL     1      26.168  -0.025  52.415  1.00  0.00     0.038 A 
ENDBRANCH  13  14
ENDBRANCH  12  13
ENDBRANCH   1  12
TORSDOF 3
ENDMDL
MODEL 9
REMARK VINA RESULT:      -7.1      4.333      6.768
REMARK  3 active torsions:
REMARK  status: ('A' for Active; 'I' for Inactive)
REMARK    1  A    between atoms: C4_5  and  O1_6 
REMARK    2  A    between atoms: O1_6  and  C5_7 
REMARK    3  A    between atoms: C5_7  and  C6_8 
ROOT
HETATM    1  C6  UNL     1      24.329   4.025  51.162  1.00  0.00    -0.048 C 
HETATM    2  C7  UNL     1      24.716   5.205  50.645  1.00  0.00     0.032 C 
HETATM    3  C8  UNL     1      24.012   5.575  49.393  1.00  0.00     0.032 C 
HETATM    4  N1  UNL     1      23.157   4.618  49.111  1.00  0.00    -0.293 NA
HETATM    5  C9  UNL     1      23.711   3.248  48.977  1.00  0.00     0.158 C 
HETATM    6  C10 UNL     1      24.777   3.127  50.033  1.00  0.00     0.042 C 
HETATM    7  C11 UNL     1      26.162   3.389  49.565  1.00  0.00     0.036 C 
HETATM    8  C12 UNL     1      26.944   4.365  49.036  1.00  0.00    -0.001 C 
HETATM    9  C13 UNL     1      27.053   5.785  48.553  1.00  0.00    -0.029 C 
HETATM   10  C14 UNL     1      26.017   6.642  48.561  1.00  0.00    -0.025 C 
HETATM   11  C15 UNL     1      24.572   6.847  48.885  1.00  0.00     0.085 C 
ENDROOT
BRANCH   1  12
HETATM   12  C5  UNL     1      23.672   3.392  52.362  1.00  0.00     0.210 C 
BRANCH  12  13
HETATM   13  O1  UNL     1      24.071   2.051  52.466  1.00  0.00    -0.347 OA
BRANCH  13  14
HETATM   14  C4  UNL     1      25.317   1.584  52.770  1.00  0.00     0.069 A 
HETATM   15  C3  UNL     1      25.729   0.393  52.195  1.00  0.00     0.038 A 
HETATM   16  C2  UNL     1      26.987  -0.125  52.472  1.00  0.00     0.026 A 
HETATM   17  C1  UNL     1      27.835   0.535  53.317  1.00  0.00     0.034 A 
HETATM   18 CL1  UNL     1      29.434  -0.129  53.664  1.00  0.00    -0.084 Cl
HETATM   19  C17 UNL     1      27.454   1.738  53.915  1.00  0.00     0.026 A 
HETATM   20  C16 UNL     1      26.191   2.254  53.634  1.00  0.00     0.038 A 
ENDBRANCH  13  14
ENDBRANCH  12  13
ENDBRANCH   1  12
TORSDOF 3
ENDMDL
