MODEL 1
REMARK VINA RESULT:      -8.1      0.000      0.000
REMARK  0 active torsions:
REMARK  status: ('A' for Active; 'I' for Inactive)
ROOT
HETATM    1  C1  UNL     1      27.266  -2.321  53.060  1.00  0.00     0.149 C 
HETATM    2  N1  UNL     1      26.910  -0.914  52.857  1.00  0.00    -0.384 N 
HETATM    3  C2  UNL     1      25.503  -0.916  53.013  1.00  0.00     0.085 C 
HETATM    4  C3  UNL     1      24.594  -0.249  53.669  1.00  0.00     0.017 C 
HETATM    5  C4  UNL     1      23.171  -0.187  53.879  1.00  0.00    -0.001 C 
HETATM    6  C5  UNL     1      22.066  -0.774  53.515  1.00  0.00    -0.007 C 
HETATM    7  C6  UNL     1      20.626  -0.756  53.692  1.00  0.00     0.165 C 
HETATM    8  N2  UNL     1      19.846  -0.540  52.503  1.00  0.00    -0.219 N 
HETATM    9  C7  UNL     1      19.956   0.614  51.687  1.00  0.00     0.722 A 
HETATM   10  N3  UNL     1      19.353   1.706  52.181  1.00  0.00    -0.075 NA
HETATM   11  C8  UNL     1      19.417   2.851  51.448  1.00  0.00     0.138 A 
HETATM   12  C9  UNL     1      20.100   2.841  50.230  1.00  0.00     0.048 A 
HETATM   13  C10 UNL     1      20.715   1.702  49.740  1.00  0.00     0.059 A 
HETATM   14  N4  UNL     1      20.622   0.610  50.495  1.00  0.00    -0.067 NA
HETATM   15  C11 UNL     1      21.443   1.652  48.460  1.00  0.00     0.106 C 
HETATM   16  C12 UNL     1      22.441   2.778  48.516  1.00  0.00     0.089 C 
HETATM   17  N5  UNL     1      23.043   3.143  49.571  1.00  0.00    -0.303 NA
HETATM   18  C13 UNL     1      23.979   4.230  49.526  1.00  0.00     0.174 C 
HETATM   19  C14 UNL     1      24.951   4.112  50.666  1.00  0.00     0.196 C 
HETATM   20  O1  UNL     1      25.622   2.868  50.513  1.00  0.00    -0.362 OA
HETATM   21  C15 UNL     1      26.626   2.500  51.437  1.00  0.00     0.133 C 
HETATM   22  C16 UNL     1      27.655   2.477  52.261  1.00  0.00     0.036 C 
HETATM   23  C17 UNL     1      28.098   1.304  53.023  1.00  0.00     0.126 C 
HETATM   24  F1  UNL     1      29.083   2.098  53.524  1.00  0.00    -0.242 F 
HETATM   25  C18 UNL     1      27.174   0.451  52.588  1.00  0.00     0.238 C 
HETATM   26  H10 UNL     1      19.105  -0.985  51.917  1.00  0.00     0.178 HD
ENDROOT
TORSDOF 0
ENDMDL
MODEL 2
REMARK VINA RESULT:      -7.8      2.040      4.924
REMARK  0 active torsions:
REMARK  status: ('A' for Active; 'I' for Inactive)
ROOT
HETATM    1  C1  UNL     1      28.838   2.408  53.746  1.00  0.00     0.149 C 
HETATM    2  N1  UNL     1      27.701   1.630  53.246  1.00  0.00    -0.384 N 
HETATM    3  C2  UNL     1      27.126   2.491  52.281  1.00  0.00     0.085 C 
HETATM    4  C3  UNL     1      26.716   2.433  51.044  1.00  0.00     0.017 C 
HETATM    5  C4  UNL     1      26.130   3.246  50.010  1.00  0.00    -0.001 C 
HETATM    6  C5  UNL     1      25.712   4.460  49.790  1.00  0.00    -0.007 C 
HETATM    7  C6  UNL     1      25.122   5.323  48.784  1.00  0.00     0.165 C 
HETATM    8  N2  UNL     1      23.851   5.907  49.119  1.00  0.00    -0.219 N 
HETATM    9  C7  UNL     1      22.693   5.151  49.429  1.00  0.00     0.722 A 
HETATM   10  N3  UNL     1      22.074   4.618  48.364  1.00  0.00    -0.075 NA
HETATM   11  C8  UNL     1      20.953   3.879  48.588  1.00  0.00     0.138 A 
HETATM   12  C9  UNL     1      20.500   3.710  49.899  1.00  0.00     0.048 A 
HETATM   13  C10 UNL     1      21.156   4.270  50.981  1.00  0.00     0.059 A 
HETATM   14  N4  UNL     1      22.246   4.982  50.707  1.00  0.00    -0.067 NA
HETATM   15  C11 UNL     1      20.710   4.115  52.377  1.00  0.00     0.106 C 
HETATM   16  C12 UNL     1      20.559   2.633  52.592  1.00  0.00     0.089 C 
HETATM   17  N5  UNL     1      21.313   1.757  52.070  1.00  0.00    -0.303 NA
HETATM   18  C13 UNL     1      21.090   0.364  52.334  1.00  0.00     0.174 C 
HETATM   19  C14 UNL     1      22.363  -0.405  52.121  1.00  0.00     0.196 C 
HETATM   20  O1  UNL     1      23.325   0.127  53.022  1.00  0.00    -0.362 OA
HETATM   21  C15 UNL     1      24.623  -0.431  53.064  1.00  0.00     0.133 C 
HETATM   22  C16 UNL     1      25.664  -1.240  53.089  1.00  0.00     0.036 C 
HETATM   23  C17 UNL     1      27.065  -0.809  53.159  1.00  0.00     0.126 C 
HETATM   24  F1  UNL     1      27.391  -2.130  53.142  1.00  0.00    -0.242 F 
HETATM   25  C18 UNL     1      26.845   0.503  53.182  1.00  0.00     0.238 C 
HETATM   26  H10 UNL     1      23.380   6.832  49.238  1.00  0.00     0.178 HD
ENDROOT
TORSDOF 0
ENDMDL
MODEL 3
REMARK VINA RESULT:      -7.6      3.236      6.184
REMARK  0 active torsions:
REMARK  status: ('A' for Active; 'I' for Inactive)
ROOT
HETATM    1  C1  UNL     1      26.921   1.181  54.171  1.00  0.00     0.149 C 
HETATM    2  N1  UNL     1      25.697   1.315  53.377  1.00  0.00    -0.384 N 
HETATM    3  C2  UNL     1      26.085   2.195  52.339  1.00  0.00     0.085 C 
HETATM    4  C3  UNL     1      26.014   2.259  51.038  1.00  0.00     0.017 C 
HETATM    5  C4  UNL     1      26.376   3.102  49.928  1.00  0.00    -0.001 C 
HETATM    6  C5  UNL     1      26.964   4.235  49.664  1.00  0.00    -0.007 C 
HETATM    7  C6  UNL     1      27.352   5.120  48.583  1.00  0.00     0.165 C 
HETATM    8  N2  UNL     1      26.799   6.447  48.623  1.00  0.00    -0.219 N 
HETATM    9  C7  UNL     1      25.409   6.723  48.610  1.00  0.00     0.722 A 
HETATM   10  N3  UNL     1      24.829   6.608  47.405  1.00  0.00    -0.075 NA
HETATM   11  C8  UNL     1      23.494   6.859  47.318  1.00  0.00     0.138 A 
HETATM   12  C9  UNL     1      22.794   7.221  48.471  1.00  0.00     0.048 A 
HETATM   13  C10 UNL     1      23.414   7.334  49.703  1.00  0.00     0.059 A 
HETATM   14  N4  UNL     1      24.720   7.077  49.733  1.00  0.00    -0.067 NA
HETATM   15  C11 UNL     1      22.711   7.715  50.941  1.00  0.00     0.106 C 
HETATM   16  C12 UNL     1      21.543   6.771  51.050  1.00  0.00     0.089 C 
HETATM   17  N5  UNL     1      21.573   5.556  50.690  1.00  0.00    -0.303 NA
HETATM   18  C13 UNL     1      20.406   4.732  50.832  1.00  0.00     0.174 C 
HETATM   19  C14 UNL     1      20.809   3.287  50.903  1.00  0.00     0.196 C 
HETATM   20  O1  UNL     1      21.660   3.147  52.032  1.00  0.00    -0.362 OA
HETATM   21  C15 UNL     1      22.172   1.872  52.366  1.00  0.00     0.133 C 
HETATM   22  C16 UNL     1      22.337   0.587  52.608  1.00  0.00     0.036 C 
HETATM   23  C17 UNL     1      23.595  -0.036  53.035  1.00  0.00     0.126 C 
HETATM   24  F1  UNL     1      22.918  -1.216  53.042  1.00  0.00    -0.242 F 
HETATM   25  C18 UNL     1      24.339   1.067  53.059  1.00  0.00     0.238 C 
HETATM   26  H10 UNL     1      27.082   7.451  48.663  1.00  0.00     0.178 HD
ENDROOT
TORSDOF 0
ENDMDL
MODEL 4
REMARK VINA RESULT:      -7.0      2.730      4.826
REMARK  0 active torsions:
REMARK  status: ('A' for Active; 'I' for Inactive)
ROOT
HETATM    1  C1  UNL     1      27.401   4.354  48.957  1.00  0.00     0.149 C 
HETATM    2  N1  UNL     1      26.152   4.755  49.611  1.00  0.00    -0.384 N 
HETATM    3  C2  UNL     1      25.853   3.645  50.436  1.00  0.00     0.085 C 
HETATM    4  C3  UNL     1      25.524   3.413  51.677  1.00  0.00     0.017 C 
HETATM    5  C4  UNL     1      25.208   2.336  52.579  1.00  0.00    -0.001 C 
HETATM    6  C5  UNL     1      25.093   1.038  52.608  1.00  0.00    -0.007 C 
HETATM    7  C6  UNL     1      24.783  -0.084  53.473  1.00  0.00     0.165 C 
HETATM    8  N2  UNL     1      23.660  -0.893  53.083  1.00  0.00    -0.219 N 
HETATM    9  C7  UNL     1      22.342  -0.392  52.934  1.00  0.00     0.722 A 
HETATM   10  N3  UNL     1      21.690  -0.191  54.090  1.00  0.00    -0.075 NA
HETATM   11  C8  UNL     1      20.417   0.288  54.022  1.00  0.00     0.138 A 
HETATM   12  C9  UNL     1      19.853   0.546  52.771  1.00  0.00     0.048 A 
HETATM   13  C10 UNL     1      20.546   0.330  51.593  1.00  0.00     0.059 A 
HETATM   14  N4  UNL     1      21.785  -0.139  51.715  1.00  0.00    -0.067 NA
HETATM   15  C11 UNL     1      19.985   0.588  50.255  1.00  0.00     0.106 C 
HETATM   16  C12 UNL     1      19.486   2.008  50.292  1.00  0.00     0.089 C 
HETATM   17  N5  UNL     1      20.053   2.946  50.930  1.00  0.00    -0.303 NA
HETATM   18  C13 UNL     1      19.501   4.270  50.906  1.00  0.00     0.174 C 
HETATM   19  C14 UNL     1      20.577   5.275  51.207  1.00  0.00     0.196 C 
HETATM   20  O1  UNL     1      21.573   5.131  50.204  1.00  0.00    -0.362 OA
HETATM   21  C15 UNL     1      22.704   5.979  50.218  1.00  0.00     0.133 C 
HETATM   22  C16 UNL     1      23.529   7.004  50.297  1.00  0.00     0.036 C 
HETATM   23  C17 UNL     1      24.983   6.932  50.117  1.00  0.00     0.126 C 
HETATM   24  F1  UNL     1      25.000   8.274  50.343  1.00  0.00    -0.242 F 
HETATM   25  C18 UNL     1      25.067   5.625  49.885  1.00  0.00     0.238 C 
HETATM   26  H10 UNL     1      23.406  -1.872  52.826  1.00  0.00     0.178 HD
ENDROOT
TORSDOF 0
ENDMDL
MODEL 5
REMARK VINA RESULT:      -6.8      8.170     10.499
REMARK  0 active torsions:
REMARK  status: ('A' for Active; 'I' for Inactive)
ROOT
HETATM    1  C1  UNL     1      33.273   5.206  45.047  1.00  0.00     0.149 C 
HETATM    2  N1  UNL     1      33.061   6.361  45.924  1.00  0.00    -0.384 N 
HETATM    3  C2  UNL     1      31.815   6.077  46.530  1.00  0.00     0.085 C 
HETATM    4  C3  UNL     1      31.296   6.052  47.727  1.00  0.00     0.017 C 
HETATM    5  C4  UNL     1      30.062   5.780  48.416  1.00  0.00    -0.001 C 
HETATM    6  C5  UNL     1      28.830   5.418  48.188  1.00  0.00    -0.007 C 
HETATM    7  C6  UNL     1      27.563   5.132  48.832  1.00  0.00     0.165 C 
HETATM    8  N2  UNL     1      26.450   5.947  48.427  1.00  0.00    -0.219 N 
HETATM    9  C7  UNL     1      26.418   7.358  48.555  1.00  0.00     0.722 A 
HETATM   10  N3  UNL     1      26.182   7.800  49.800  1.00  0.00    -0.075 NA
HETATM   11  C8  UNL     1      26.137   9.146  49.996  1.00  0.00     0.138 A 
HETATM   12  C9  UNL     1      26.336   9.999  48.908  1.00  0.00     0.048 A 
HETATM   13  C10 UNL     1      26.578   9.520  47.632  1.00  0.00     0.059 A 
HETATM   14  N4  UNL     1      26.612   8.197  47.496  1.00  0.00    -0.067 NA
HETATM   15  C11 UNL     1      26.791  10.387  46.460  1.00  0.00     0.106 C 
HETATM   16  C12 UNL     1      27.887  11.341  46.856  1.00  0.00     0.089 C 
HETATM   17  N5  UNL     1      28.867  11.031  47.598  1.00  0.00    -0.303 NA
HETATM   18  C13 UNL     1      29.864  12.012  47.921  1.00  0.00     0.174 C 
HETATM   19  C14 UNL     1      31.151  11.328  48.287  1.00  0.00     0.196 C 
HETATM   20  O1  UNL     1      31.550  10.563  47.158  1.00  0.00    -0.362 OA
HETATM   21  C15 UNL     1      32.757   9.829  47.204  1.00  0.00     0.133 C 
HETATM   22  C16 UNL     1      33.998   9.424  47.391  1.00  0.00     0.036 C 
HETATM   23  C17 UNL     1      34.519   8.105  47.017  1.00  0.00     0.126 C 
HETATM   24  F1  UNL     1      35.715   8.523  47.514  1.00  0.00    -0.242 F 
HETATM   25  C18 UNL     1      33.395   7.608  46.507  1.00  0.00     0.238 C 
HETATM   26  H10 UNL     1      25.496   5.881  48.006  1.00  0.00     0.178 HD
ENDROOT
TORSDOF 0
ENDMDL
MODEL 6
REMARK VINA RESULT:      -6.7      3.657      6.772
REMARK  0 active torsions:
REMARK  status: ('A' for Active; 'I' for Inactive)
ROOT
HETATM    1  C1  UNL     1      24.331   9.901  47.821  1.00  0.00     0.149 C 
HETATM    2  N1  UNL     1      24.911   8.558  47.902  1.00  0.00    -0.384 N 
HETATM    3  C2  UNL     1      23.781   7.715  47.788  1.00  0.00     0.085 C 
HETATM    4  C3  UNL     1      23.409   6.671  47.099  1.00  0.00     0.017 C 
HETATM    5  C4  UNL     1      22.300   5.771  46.925  1.00  0.00    -0.001 C 
HETATM    6  C5  UNL     1      21.097   5.545  47.373  1.00  0.00    -0.007 C 
HETATM    7  C6  UNL     1      19.950   4.666  47.237  1.00  0.00     0.165 C 
HETATM    8  N2  UNL     1      19.555   3.955  48.422  1.00  0.00    -0.219 N 
HETATM    9  C7  UNL     1      20.402   3.061  49.124  1.00  0.00     0.722 A 
HETATM   10  N3  UNL     1      20.541   1.857  48.548  1.00  0.00    -0.075 NA
HETATM   11  C8  UNL     1      21.340   0.947  49.169  1.00  0.00     0.138 A 
HETATM   12  C9  UNL     1      21.973   1.300  50.364  1.00  0.00     0.048 A 
HETATM   13  C10 UNL     1      21.813   2.549  50.939  1.00  0.00     0.059 A 
HETATM   14  N4  UNL     1      21.022   3.400  50.292  1.00  0.00    -0.067 NA
HETATM   15  C11 UNL     1      22.462   2.958  52.197  1.00  0.00     0.106 C 
HETATM   16  C12 UNL     1      23.929   2.674  52.008  1.00  0.00     0.089 C 
HETATM   17  N5  UNL     1      24.544   2.810  50.908  1.00  0.00    -0.303 NA
HETATM   18  C13 UNL     1      25.946   2.514  50.825  1.00  0.00     0.174 C 
HETATM   19  C14 UNL     1      26.557   3.261  49.673  1.00  0.00     0.196 C 
HETATM   20  O1  UNL     1      26.352   4.646  49.921  1.00  0.00    -0.362 OA
HETATM   21  C15 UNL     1      26.855   5.599  49.007  1.00  0.00     0.133 C 
HETATM   22  C16 UNL     1      27.594   6.289  48.160  1.00  0.00     0.036 C 
HETATM   23  C17 UNL     1      27.179   7.531  47.498  1.00  0.00     0.126 C 
HETATM   24  F1  UNL     1      28.400   7.527  46.898  1.00  0.00    -0.242 F 
HETATM   25  C18 UNL     1      25.965   7.621  48.036  1.00  0.00     0.238 C 
HETATM   26  H10 UNL     1      18.744   3.825  49.067  1.00  0.00     0.178 HD
ENDROOT
TORSDOF 0
ENDMDL
MODEL 7
REMARK VINA RESULT:      -6.7      3.789      7.131
REMARK  0 active torsions:
REMARK  status: ('A' for Active; 'I' for Inactive)
ROOT
HETATM    1  C1  UNL     1      15.688   3.590  49.726  1.00  0.00     0.149 C 
HETATM    2  N1  UNL     1      16.992   3.203  49.178  1.00  0.00    -0.384 N 
HETATM    3  C2  UNL     1      17.499   2.316  50.157  1.00  0.00     0.085 C 
HETATM    4  C3  UNL     1      18.036   1.128  50.211  1.00  0.00     0.017 C 
HETATM    5  C4  UNL     1      18.569   0.173  51.147  1.00  0.00    -0.001 C 
HETATM    6  C5  UNL     1      18.783   0.013  52.422  1.00  0.00    -0.007 C 
HETATM    7  C6  UNL     1      19.308  -0.914  53.407  1.00  0.00     0.165 C 
HETATM    8  N2  UNL     1      20.412  -0.439  54.197  1.00  0.00    -0.219 N 
HETATM    9  C7  UNL     1      21.649  -0.017  53.649  1.00  0.00     0.722 A 
HETATM   10  N3  UNL     1      22.460  -1.016  53.268  1.00  0.00    -0.075 NA
HETATM   11  C8  UNL     1      23.666  -0.683  52.733  1.00  0.00     0.138 A 
HETATM   12  C9  UNL     1      24.005   0.667  52.606  1.00  0.00     0.048 A 
HETATM   13  C10 UNL     1      23.152   1.680  53.007  1.00  0.00     0.059 A 
HETATM   14  N4  UNL     1      21.986   1.300  53.523  1.00  0.00    -0.067 NA
HETATM   15  C11 UNL     1      23.473   3.113  52.891  1.00  0.00     0.106 C 
HETATM   16  C12 UNL     1      23.866   3.325  51.453  1.00  0.00     0.089 C 
HETATM   17  N5  UNL     1      23.339   2.715  50.474  1.00  0.00    -0.303 NA
HETATM   18  C13 UNL     1      23.781   2.984  49.135  1.00  0.00     0.174 C 
HETATM   19  C14 UNL     1      22.695   2.628  48.159  1.00  0.00     0.196 C 
HETATM   20  O1  UNL     1      21.566   3.428  48.483  1.00  0.00    -0.362 OA
HETATM   21  C15 UNL     1      20.392   3.325  47.703  1.00  0.00     0.133 C 
HETATM   22  C16 UNL     1      19.517   3.230  46.722  1.00  0.00     0.036 C 
HETATM   23  C17 UNL     1      18.062   3.156  46.895  1.00  0.00     0.126 C 
HETATM   24  F1  UNL     1      17.982   3.088  45.538  1.00  0.00    -0.242 F 
HETATM   25  C18 UNL     1      18.039   3.217  48.224  1.00  0.00     0.238 C 
HETATM   26  H10 UNL     1      20.694  -0.259  55.186  1.00  0.00     0.178 HD
ENDROOT
TORSDOF 0
ENDMDL
MODEL 8
REMARK VINA RESULT:      -6.7      7.814     11.449
REMARK  0 active torsions:
REMARK  status: ('A' for Active; 'I' for Inactive)
ROOT
HETATM    1  C1  UNL     1      24.986   5.352  50.431  1.00  0.00     0.149 C 
HETATM    2  N1  UNL     1      25.263   6.229  49.291  1.00  0.00    -0.384 N 
HETATM    3  C2  UNL     1      26.670   6.150  49.162  1.00  0.00     0.085 C 
HETATM    4  C3  UNL     1      27.553   5.940  48.226  1.00  0.00     0.017 C 
HETATM    5  C4  UNL     1      28.974   5.846  48.016  1.00  0.00    -0.001 C 
HETATM    6  C5  UNL     1      30.103   5.923  48.663  1.00  0.00    -0.007 C 
HETATM    7  C6  UNL     1      31.543   5.838  48.507  1.00  0.00     0.165 C 
HETATM    8  N2  UNL     1      32.288   7.012  48.870  1.00  0.00    -0.219 N 
HETATM    9  C7  UNL     1      32.103   8.282  48.267  1.00  0.00     0.722 A 
HETATM   10  N3  UNL     1      32.656   8.408  47.051  1.00  0.00    -0.075 NA
HETATM   11  C8  UNL     1      32.518   9.602  46.413  1.00  0.00     0.138 A 
HETATM   12  C9  UNL     1      31.815  10.632  47.043  1.00  0.00     0.048 A 
HETATM   13  C10 UNL     1      31.254  10.479  48.299  1.00  0.00     0.059 A 
HETATM   14  N4  UNL     1      31.418   9.292  48.878  1.00  0.00    -0.067 NA
HETATM   15  C11 UNL     1      30.507  11.540  48.996  1.00  0.00     0.106 C 
HETATM   16  C12 UNL     1      29.452  11.999  48.025  1.00  0.00     0.089 C 
HETATM   17  N5  UNL     1      28.849  11.232  47.214  1.00  0.00    -0.303 NA
HETATM   18  C13 UNL     1      27.856  11.762  46.324  1.00  0.00     0.174 C 
HETATM   19  C14 UNL     1      26.912  10.670  45.906  1.00  0.00     0.196 C 
HETATM   20  O1  UNL     1      26.306  10.170  47.090  1.00  0.00    -0.362 OA
HETATM   21  C15 UNL     1      25.339   9.143  46.998  1.00  0.00     0.133 C 
HETATM   22  C16 UNL     1      24.327   8.370  46.654  1.00  0.00     0.036 C 
HETATM   23  C17 UNL     1      23.960   7.116  47.321  1.00  0.00     0.126 C 
HETATM   24  F1  UNL     1      22.944   7.025  46.421  1.00  0.00    -0.242 F 
HETATM   25  C18 UNL     1      24.921   7.118  48.242  1.00  0.00     0.238 C 
HETATM   26  H10 UNL     1      33.042   7.337  49.516  1.00  0.00     0.178 HD
ENDROOT
TORSDOF 0
ENDMDL
MODEL 9
REMARK VINA RESULT:      -6.7     10.284     13.064
REMARK  0 active torsions:
REMARK  status: ('A' for Active; 'I' for Inactive)
ROOT
HETATM    1  C1  UNL     1      33.002   3.798  40.659  1.00  0.00     0.149 C 
HETATM    2  N1  UNL     1      33.020   5.093  41.344  1.00  0.00    -0.384 N 
HETATM    3  C2  UNL     1      33.187   4.732  42.703  1.00  0.00     0.085 C 
HETATM    4  C3  UNL     1      33.945   5.060  43.712  1.00  0.00     0.017 C 
HETATM    5  C4  UNL     1      34.175   4.748  45.099  1.00  0.00    -0.001 C 
HETATM    6  C5  UNL     1      33.737   3.974  46.051  1.00  0.00    -0.007 C 
HETATM    7  C6  UNL     1      33.927   3.621  47.445  1.00  0.00     0.165 C 
HETATM    8  N2  UNL     1      32.792   3.816  48.307  1.00  0.00    -0.219 N 
HETATM    9  C7  UNL     1      32.161   5.068  48.508  1.00  0.00     0.722 A 
HETATM   10  N3  UNL     1      32.821   5.900  49.328  1.00  0.00    -0.075 NA
HETATM   11  C8  UNL     1      32.271   7.122  49.567  1.00  0.00     0.138 A 
HETATM   12  C9  UNL     1      31.059   7.454  48.958  1.00  0.00     0.048 A 
HETATM   13  C10 UNL     1      30.396   6.578  48.115  1.00  0.00     0.059 A 
HETATM   14  N4  UNL     1      30.977   5.398  47.915  1.00  0.00    -0.067 NA
HETATM   15  C11 UNL     1      29.116   6.890  47.455  1.00  0.00     0.106 C 
HETATM   16  C12 UNL     1      29.334   8.202  46.748  1.00  0.00     0.089 C 
HETATM   17  N5  UNL     1      30.426   8.542  46.201  1.00  0.00    -0.303 NA
HETATM   18  C13 UNL     1      30.539   9.816  45.549  1.00  0.00     0.174 C 
HETATM   19  C14 UNL     1      31.638   9.769  44.526  1.00  0.00     0.196 C 
HETATM   20  O1  UNL     1      31.292   8.758  43.590  1.00  0.00    -0.362 OA
HETATM   21  C15 UNL     1      32.139   8.510  42.486  1.00  0.00     0.133 C 
HETATM   22  C16 UNL     1      32.940   8.613  41.444  1.00  0.00     0.036 C 
HETATM   23  C17 UNL     1      33.510   7.482  40.704  1.00  0.00     0.126 C 
HETATM   24  F1  UNL     1      34.117   8.407  39.911  1.00  0.00    -0.242 F 
HETATM   25  C18 UNL     1      32.960   6.506  41.421  1.00  0.00     0.238 C 
HETATM   26  H10 UNL     1      32.153   3.296  48.948  1.00  0.00     0.178 HD
ENDROOT
TORSDOF 0
ENDMDL
