MODEL 1
REMARK VINA RESULT:      -7.4      0.000      0.000
REMARK  7 active torsions:
REMARK  status: ('A' for Active; 'I' for Inactive)
REMARK    1  A    between atoms: O1_2  and  C2_3 
REMARK    2  A    between atoms: N2_9  and  C7_10 
REMARK    3  A    between atoms: C9_12  and  O2_13 
REMARK    4  A    between atoms: O2_13  and  C10_14 
REMARK    5  A    between atoms: C10_14  and  C11_15 
REMARK    6  A    between atoms: C11_15  and  C12_16 
REMARK    7  A    between atoms: C12_16  and  N3_17 
ROOT
HETATM    1  C2  UNL     1      23.706   3.028  52.622  1.00  0.00     0.098 A 
HETATM    2  C3  UNL     1      25.016   3.071  53.150  1.00  0.00     0.033 A 
HETATM    3  C4  UNL     1      25.524   1.762  53.086  1.00  0.00     0.072 A 
HETATM    4  C5  UNL     1      26.820   1.739  53.562  1.00  0.00     0.045 A 
HETATM    5  N1  UNL     1      26.601   0.522  53.218  1.00  0.00     0.000 N 
HETATM    6  C6  UNL     1      27.185  -0.529  53.201  1.00  0.00     0.136 A 
HETATM    7  N2  UNL     1      25.964  -0.545  52.753  1.00  0.00    -0.173 NA
HETATM    8  C7  UNL     1      25.059   0.474  52.641  1.00  0.00     0.101 A 
HETATM    9  C8  UNL     1      23.797   0.544  52.156  1.00  0.00     0.044 A 
HETATM   10  C9  UNL     1      23.216   1.789  52.177  1.00  0.00     0.100 A 
HETATM   11  N4  UNL     1      28.427  -0.354  53.702  1.00  0.00    -0.371 N 
HETATM   12  C16 UNL     1      28.632  -1.670  53.160  1.00  0.00     0.150 C 
HETATM   13  C17 UNL     1      29.167   0.687  54.421  1.00  0.00     0.143 C 
HETATM   14  C18 UNL     1      28.995   2.106  53.964  1.00  0.00     0.139 C 
HETATM   15  N5  UNL     1      27.658   2.694  54.089  1.00  0.00    -0.389 N 
HETATM   16  H25 UNL     1      26.964   3.382  54.336  1.00  0.00     0.159 HD
ENDROOT
BRANCH  10  17
HETATM   17  O2  UNL     1      21.940   1.733  51.661  1.00  0.00    -0.348 OA
BRANCH  17  18
HETATM   18  C10 UNL     1      21.394   0.714  50.885  1.00  0.00     0.177 C 
BRANCH  18  19
HETATM   19  C11 UNL     1      20.120   0.260  51.614  1.00  0.00     0.057 C 
BRANCH  19  20
HETATM   20  C12 UNL     1      20.013   0.883  52.964  1.00  0.00     0.274 C 
BRANCH  20  21
HETATM   21  N3  UNL     1      20.131  -0.002  54.074  1.00  0.00     0.088 N 
HETATM   22  C13 UNL     1      20.186  -1.393  53.705  1.00  0.00     0.274 A 
HETATM   23  C14 UNL     1      21.463  -1.573  54.526  1.00  0.00     0.060 A 
HETATM   24  C15 UNL     1      21.367  -0.086  54.777  1.00  0.00     0.274 A 
ENDBRANCH  20  21
ENDBRANCH  19  20
ENDBRANCH  18  19
ENDBRANCH  17  18
ENDBRANCH  10  17
BRANCH   1  25
HETATM   25  O1  UNL     1      23.017   4.200  52.585  1.00  0.00    -0.353 OA
HETATM   26  C1  UNL     1      23.521   5.264  51.803  1.00  0.00     0.210 C 
ENDBRANCH   1  25
TORSDOF 7
ENDMDL
MODEL 2
REMARK VINA RESULT:      -7.3      1.991      3.204
REMARK  7 active torsions:
REMARK  status: ('A' for Active; 'I' for Inactive)
REMARK    1  A    between atoms: O1_2  and  C2_3 
REMARK    2  A    between atoms: N2_9  and  C7_10 
REMARK    3  A    between atoms: C9_12  and  O2_13 
REMARK    4  A    between atoms: O2_13  and  C10_14 
REMARK    5  A    between atoms: C10_14  and  C11_15 
REMARK    6  A    between atoms: C11_15  and  C12_16 
REMARK    7  A    between atoms: C12_16  and  N3_17 
ROOT
HETATM    1  C2  UNL     1      23.364   2.413  52.767  1.00  0.00     0.098 A 
HETATM    2  C3  UNL     1      24.695   2.709  53.140  1.00  0.00     0.033 A 
HETATM    3  C4  UNL     1      25.379   1.483  53.215  1.00  0.00     0.072 A 
HETATM    4  C5  UNL     1      26.700   1.704  53.548  1.00  0.00     0.045 A 
HETATM    5  N1  UNL     1      26.630   0.429  53.412  1.00  0.00     0.000 N 
HETATM    6  C6  UNL     1      27.355  -0.527  53.487  1.00  0.00     0.136 A 
HETATM    7  N2  UNL     1      26.116  -0.771  53.180  1.00  0.00    -0.173 NA
HETATM    8  C7  UNL     1      25.067   0.091  53.016  1.00  0.00     0.101 A 
HETATM    9  C8  UNL     1      23.771  -0.081  52.664  1.00  0.00     0.044 A 
HETATM   10  C9  UNL     1      23.021   1.066  52.563  1.00  0.00     0.100 A 
HETATM   11  N4  UNL     1      28.598  -0.116  53.822  1.00  0.00    -0.371 N 
HETATM   12  C16 UNL     1      28.943  -1.464  53.461  1.00  0.00     0.150 C 
HETATM   13  C17 UNL     1      29.239   1.114  54.298  1.00  0.00     0.143 C 
HETATM   14  C18 UNL     1      28.826   2.407  53.657  1.00  0.00     0.139 C 
HETATM   15  N5  UNL     1      27.434   2.830  53.837  1.00  0.00    -0.389 N 
HETATM   16  H25 UNL     1      26.672   3.454  54.052  1.00  0.00     0.159 HD
ENDROOT
BRANCH  10  17
HETATM   17  O2  UNL     1      21.727   0.764  52.200  1.00  0.00    -0.348 OA
BRANCH  17  18
HETATM   18  C10 UNL     1      21.299   0.243  50.981  1.00  0.00     0.177 C 
BRANCH  18  19
HETATM   19  C11 UNL     1      20.754   1.434  50.178  1.00  0.00     0.057 C 
BRANCH  19  20
HETATM   20  C12 UNL     1      21.139   1.344  48.741  1.00  0.00     0.274 C 
BRANCH  20  21
HETATM   21  N3  UNL     1      22.316   2.053  48.362  1.00  0.00     0.088 N 
HETATM   22  C13 UNL     1      22.139   2.901  47.213  1.00  0.00     0.274 A 
HETATM   23  C14 UNL     1      22.709   4.091  47.986  1.00  0.00     0.060 A 
HETATM   24  C15 UNL     1      22.766   3.143  49.162  1.00  0.00     0.274 A 
ENDBRANCH  20  21
ENDBRANCH  19  20
ENDBRANCH  18  19
ENDBRANCH  17  18
ENDBRANCH  10  17
BRANCH   1  25
HETATM   25  O1  UNL     1      22.514   3.465  52.632  1.00  0.00    -0.353 OA
HETATM   26  C1  UNL     1      23.051   4.767  52.513  1.00  0.00     0.210 C 
ENDBRANCH   1  25
TORSDOF 7
ENDMDL
MODEL 3
REMARK VINA RESULT:      -7.2      2.059      7.539
REMARK  7 active torsions:
REMARK  status: ('A' for Active; 'I' for Inactive)
REMARK    1  A    between atoms: O1_2  and  C2_3 
REMARK    2  A    between atoms: N2_9  and  C7_10 
REMARK    3  A    between atoms: C9_12  and  O2_13 
REMARK    4  A    between atoms: O2_13  and  C10_14 
REMARK    5  A    between atoms: C10_14  and  C11_15 
REMARK    6  A    between atoms: C11_15  and  C12_16 
REMARK    7  A    between atoms: C12_16  and  N3_17 
ROOT
HETATM    1  C2  UNL     1      23.157  -0.348  53.636  1.00  0.00     0.098 A 
HETATM    2  C3  UNL     1      21.880  -0.889  53.908  1.00  0.00     0.033 A 
HETATM    3  C4  UNL     1      20.984  -0.288  53.007  1.00  0.00     0.072 A 
HETATM    4  C5  UNL     1      19.715  -0.797  53.199  1.00  0.00     0.045 A 
HETATM    5  N1  UNL     1      19.568   0.028  52.226  1.00  0.00     0.000 N 
HETATM    6  C6  UNL     1      18.690   0.426  51.507  1.00  0.00     0.136 A 
HETATM    7  N2  UNL     1      19.871   0.932  51.304  1.00  0.00    -0.173 NA
HETATM    8  C7  UNL     1      21.053   0.682  51.944  1.00  0.00     0.101 A 
HETATM    9  C8  UNL     1      22.317   1.135  51.768  1.00  0.00     0.044 A 
HETATM   10  C9  UNL     1      23.266   0.602  52.607  1.00  0.00     0.100 A 
HETATM   11  N4  UNL     1      17.531  -0.180  51.845  1.00  0.00    -0.371 N 
HETATM   12  C16 UNL     1      17.085   0.388  50.602  1.00  0.00     0.150 C 
HETATM   13  C17 UNL     1      17.025  -1.013  52.940  1.00  0.00     0.143 C 
HETATM   14  C18 UNL     1      17.915  -2.108  53.451  1.00  0.00     0.139 C 
HETATM   15  N5  UNL     1      19.178  -1.708  54.077  1.00  0.00    -0.389 N 
HETATM   16  H25 UNL     1      19.905  -1.690  54.775  1.00  0.00     0.159 HD
ENDROOT
BRANCH  10  17
HETATM   17  O2  UNL     1      24.505   1.137  52.333  1.00  0.00    -0.348 OA
BRANCH  17  18
HETATM   18  C10 UNL     1      24.988   2.380  52.734  1.00  0.00     0.177 C 
BRANCH  18  19
HETATM   19  C11 UNL     1      26.085   2.095  53.771  1.00  0.00     0.057 C 
BRANCH  19  20
HETATM   20  C12 UNL     1      27.272   1.447  53.145  1.00  0.00     0.274 C 
BRANCH  20  21
HETATM   21  N3  UNL     1      27.874   0.392  53.889  1.00  0.00     0.088 N 
HETATM   22  C13 UNL     1      27.937  -0.859  53.178  1.00  0.00     0.274 A 
HETATM   23  C14 UNL     1      29.436  -0.961  53.462  1.00  0.00     0.060 A 
HETATM   24  C15 UNL     1      29.283   0.399  54.104  1.00  0.00     0.274 A 
ENDBRANCH  20  21
ENDBRANCH  19  20
ENDBRANCH  18  19
ENDBRANCH  17  18
ENDBRANCH  10  17
BRANCH   1  25
HETATM   25  O1  UNL     1      24.191  -0.794  54.399  1.00  0.00    -0.353 OA
HETATM   26  C1  UNL     1      23.918  -1.301  55.690  1.00  0.00     0.210 C 
ENDBRANCH   1  25
TORSDOF 7
ENDMDL
MODEL 4
REMARK VINA RESULT:      -7.0      2.956      6.575
REMARK  7 active torsions:
REMARK  status: ('A' for Active; 'I' for Inactive)
REMARK    1  A    between atoms: O1_2  and  C2_3 
REMARK    2  A    between atoms: N2_9  and  C7_10 
REMARK    3  A    between atoms: C9_12  and  O2_13 
REMARK    4  A    between atoms: O2_13  and  C10_14 
REMARK    5  A    between atoms: C10_14  and  C11_15 
REMARK    6  A    between atoms: C11_15  and  C12_16 
REMARK    7  A    between atoms: C12_16  and  N3_17 
ROOT
HETATM    1  C2  UNL     1      26.662   1.607  52.339  1.00  0.00     0.098 A 
HETATM    2  C3  UNL     1      25.844   0.783  53.144  1.00  0.00     0.033 A 
HETATM    3  C4  UNL     1      24.515   1.019  52.750  1.00  0.00     0.072 A 
HETATM    4  C5  UNL     1      23.660   0.218  53.480  1.00  0.00     0.045 A 
HETATM    5  N1  UNL     1      22.877   0.859  52.691  1.00  0.00     0.000 N 
HETATM    6  C6  UNL     1      21.701   0.926  52.448  1.00  0.00     0.136 A 
HETATM    7  N2  UNL     1      22.476   1.700  51.747  1.00  0.00    -0.173 NA
HETATM    8  C7  UNL     1      23.836   1.845  51.786  1.00  0.00     0.101 A 
HETATM    9  C8  UNL     1      24.709   2.594  51.071  1.00  0.00     0.044 A 
HETATM   10  C9  UNL     1      26.036   2.429  51.387  1.00  0.00     0.100 A 
HETATM   11  N4  UNL     1      21.031   0.078  53.257  1.00  0.00    -0.371 N 
HETATM   12  C16 UNL     1      19.948   0.363  52.356  1.00  0.00     0.150 C 
HETATM   13  C17 UNL     1      21.311  -0.729  54.449  1.00  0.00     0.143 C 
HETATM   14  C18 UNL     1      22.607  -1.485  54.488  1.00  0.00     0.139 C 
HETATM   15  N5  UNL     1      23.844  -0.697  54.490  1.00  0.00    -0.389 N 
HETATM   16  H25 UNL     1      24.762  -0.408  54.789  1.00  0.00     0.159 HD
ENDROOT
BRANCH  10  17
HETATM   17  O2  UNL     1      26.822   3.238  50.597  1.00  0.00    -0.348 OA
BRANCH  17  18
HETATM   18  C10 UNL     1      26.714   3.426  49.221  1.00  0.00     0.177 C 
BRANCH  18  19
HETATM   19  C11 UNL     1      27.313   4.811  48.933  1.00  0.00     0.057 C 
BRANCH  19  20
HETATM   20  C12 UNL     1      26.253   5.856  48.850  1.00  0.00     0.274 C 
BRANCH  20  21
HETATM   21  N3  UNL     1      25.763   6.351  50.093  1.00  0.00     0.088 N 
HETATM   22  C13 UNL     1      25.677   7.787  50.154  1.00  0.00     0.274 A 
HETATM   23  C14 UNL     1      24.217   7.694  50.598  1.00  0.00     0.060 A 
HETATM   24  C15 UNL     1      24.382   6.204  50.412  1.00  0.00     0.274 A 
ENDBRANCH  20  21
ENDBRANCH  19  20
ENDBRANCH  18  19
ENDBRANCH  17  18
ENDBRANCH  10  17
BRANCH   1  25
HETATM   25  O1  UNL     1      28.004   1.539  52.551  1.00  0.00    -0.353 OA
HETATM   26  C1  UNL     1      28.585   2.379  53.528  1.00  0.00     0.210 C 
ENDBRANCH   1  25
TORSDOF 7
ENDMDL
MODEL 5
REMARK VINA RESULT:      -6.9      1.428      2.309
REMARK  7 active torsions:
REMARK  status: ('A' for Active; 'I' for Inactive)
REMARK    1  A    between atoms: O1_2  and  C2_3 
REMARK    2  A    between atoms: N2_9  and  C7_10 
REMARK    3  A    between atoms: C9_12  and  O2_13 
REMARK    4  A    between atoms: O2_13  and  C10_14 
REMARK    5  A    between atoms: C10_14  and  C11_15 
REMARK    6  A    between atoms: C11_15  and  C12_16 
REMARK    7  A    between atoms: C12_16  and  N3_17 
ROOT
HETATM    1  C2  UNL     1      23.455   2.704  52.756  1.00  0.00     0.098 A 
HETATM    2  C3  UNL     1      24.793   2.886  53.172  1.00  0.00     0.033 A 
HETATM    3  C4  UNL     1      25.390   1.614  53.190  1.00  0.00     0.072 A 
HETATM    4  C5  UNL     1      26.716   1.724  53.561  1.00  0.00     0.045 A 
HETATM    5  N1  UNL     1      26.562   0.467  53.350  1.00  0.00     0.000 N 
HETATM    6  C6  UNL     1      27.219  -0.540  53.384  1.00  0.00     0.136 A 
HETATM    7  N2  UNL     1      25.973  -0.680  53.039  1.00  0.00    -0.173 NA
HETATM    8  C7  UNL     1      24.989   0.260  52.905  1.00  0.00     0.101 A 
HETATM    9  C8  UNL     1      23.694   0.198  52.518  1.00  0.00     0.044 A 
HETATM   10  C9  UNL     1      23.026   1.398  52.469  1.00  0.00     0.100 A 
HETATM   11  N4  UNL     1      28.478  -0.235  53.766  1.00  0.00    -0.371 N 
HETATM   12  C16 UNL     1      28.739  -1.581  53.335  1.00  0.00     0.150 C 
HETATM   13  C17 UNL     1      29.190   0.919  54.325  1.00  0.00     0.143 C 
HETATM   14  C18 UNL     1      28.881   2.272  53.752  1.00  0.00     0.139 C 
HETATM   15  N5  UNL     1      27.517   2.779  53.929  1.00  0.00    -0.389 N 
HETATM   16  H25 UNL     1      26.794   3.441  54.164  1.00  0.00     0.159 HD
ENDROOT
BRANCH  10  17
HETATM   17  O2  UNL     1      21.723   1.207  52.064  1.00  0.00    -0.348 OA
BRANCH  17  18
HETATM   18  C10 UNL     1      21.050  -0.007  51.952  1.00  0.00     0.177 C 
BRANCH  18  19
HETATM   19  C11 UNL     1      19.600   0.270  52.378  1.00  0.00     0.057 C 
BRANCH  19  20
HETATM   20  C12 UNL     1      18.667   0.192  51.218  1.00  0.00     0.274 C 
BRANCH  20  21
HETATM   21  N3  UNL     1      18.242   1.437  50.671  1.00  0.00     0.088 N 
HETATM   22  C13 UNL     1      18.466   2.561  51.542  1.00  0.00     0.274 A 
HETATM   23  C14 UNL     1      19.199   3.300  50.421  1.00  0.00     0.060 A 
HETATM   24  C15 UNL     1      18.994   2.035  49.620  1.00  0.00     0.274 A 
ENDBRANCH  20  21
ENDBRANCH  19  20
ENDBRANCH  18  19
ENDBRANCH  17  18
ENDBRANCH  10  17
BRANCH   1  25
HETATM   25  O1  UNL     1      22.681   3.819  52.666  1.00  0.00    -0.353 OA
HETATM   26  C1  UNL     1      23.161   4.927  51.931  1.00  0.00     0.210 C 
ENDBRANCH   1  25
TORSDOF 7
ENDMDL
MODEL 6
REMARK VINA RESULT:      -6.6      2.380      4.181
REMARK  7 active torsions:
REMARK  status: ('A' for Active; 'I' for Inactive)
REMARK    1  A    between atoms: O1_2  and  C2_3 
REMARK    2  A    between atoms: N2_9  and  C7_10 
REMARK    3  A    between atoms: C9_12  and  O2_13 
REMARK    4  A    between atoms: O2_13  and  C10_14 
REMARK    5  A    between atoms: C10_14  and  C11_15 
REMARK    6  A    between atoms: C11_15  and  C12_16 
REMARK    7  A    between atoms: C12_16  and  N3_17 
ROOT
HETATM    1  C2  UNL     1      23.056   1.658  50.687  1.00  0.00     0.098 A 
HETATM    2  C3  UNL     1      23.661   0.975  51.766  1.00  0.00     0.033 A 
HETATM    3  C4  UNL     1      24.964   1.488  51.893  1.00  0.00     0.072 A 
HETATM    4  C5  UNL     1      25.605   0.882  52.955  1.00  0.00     0.045 A 
HETATM    5  N1  UNL     1      26.474   1.716  52.511  1.00  0.00     0.000 N 
HETATM    6  C6  UNL     1      27.594   2.072  52.765  1.00  0.00     0.136 A 
HETATM    7  N2  UNL     1      27.023   2.658  51.755  1.00  0.00    -0.173 NA
HETATM    8  C7  UNL     1      25.773   2.478  51.229  1.00  0.00     0.101 A 
HETATM    9  C8  UNL     1      25.100   3.069  50.214  1.00  0.00     0.044 A 
HETATM   10  C9  UNL     1      23.814   2.631  50.014  1.00  0.00     0.100 A 
HETATM   11  N4  UNL     1      28.052   1.370  53.825  1.00  0.00    -0.371 N 
HETATM   12  C16 UNL     1      29.093   2.361  53.799  1.00  0.00     0.150 C 
HETATM   13  C17 UNL     1      27.648   0.194  54.600  1.00  0.00     0.143 C 
HETATM   14  C18 UNL     1      26.195   0.059  54.954  1.00  0.00     0.139 C 
HETATM   15  N5  UNL     1      25.247  -0.100  53.848  1.00  0.00    -0.389 N 
HETATM   16  H25 UNL     1      24.480  -0.501  53.330  1.00  0.00     0.159 HD
ENDROOT
BRANCH  10  17
HETATM   17  O2  UNL     1      23.235   3.302  48.960  1.00  0.00    -0.348 OA
BRANCH  17  18
HETATM   18  C10 UNL     1      23.524   4.595  48.530  1.00  0.00     0.177 C 
BRANCH  18  19
HETATM   19  C11 UNL     1      22.363   5.475  49.017  1.00  0.00     0.057 C 
BRANCH  19  20
HETATM   20  C12 UNL     1      22.697   6.160  50.298  1.00  0.00     0.274 C 
BRANCH  20  21
HETATM   21  N3  UNL     1      21.867   5.846  51.412  1.00  0.00     0.088 N 
HETATM   22  C13 UNL     1      20.764   4.978  51.088  1.00  0.00     0.274 A 
HETATM   23  C14 UNL     1      21.166   4.026  52.215  1.00  0.00     0.060 A 
HETATM   24  C15 UNL     1      22.344   4.952  52.413  1.00  0.00     0.274 A 
ENDBRANCH  20  21
ENDBRANCH  19  20
ENDBRANCH  18  19
ENDBRANCH  17  18
ENDBRANCH  10  17
BRANCH   1  25
HETATM   25  O1  UNL     1      21.775   1.317  50.383  1.00  0.00    -0.353 OA
HETATM   26  C1  UNL     1      21.128   0.330  51.161  1.00  0.00     0.210 C 
ENDBRANCH   1  25
TORSDOF 7
ENDMDL
MODEL 7
REMARK VINA RESULT:      -6.6      2.992      4.929
REMARK  7 active torsions:
REMARK  status: ('A' for Active; 'I' for Inactive)
REMARK    1  A    between atoms: O1_2  and  C2_3 
REMARK    2  A    between atoms: N2_9  and  C7_10 
REMARK    3  A    between atoms: C9_12  and  O2_13 
REMARK    4  A    between atoms: O2_13  and  C10_14 
REMARK    5  A    between atoms: C10_14  and  C11_15 
REMARK    6  A    between atoms: C11_15  and  C12_16 
REMARK    7  A    between atoms: C12_16  and  N3_17 
ROOT
HETATM    1  C2  UNL     1      25.158   1.318  53.217  1.00  0.00     0.098 A 
HETATM    2  C3  UNL     1      25.516   2.448  52.448  1.00  0.00     0.033 A 
HETATM    3  C4  UNL     1      24.515   2.611  51.475  1.00  0.00     0.072 A 
HETATM    4  C5  UNL     1      24.789   3.723  50.703  1.00  0.00     0.045 A 
HETATM    5  N1  UNL     1      23.681   3.286  50.224  1.00  0.00     0.000 N 
HETATM    6  C6  UNL     1      22.895   3.575  49.361  1.00  0.00     0.136 A 
HETATM    7  N2  UNL     1      22.611   2.518  50.064  1.00  0.00    -0.173 NA
HETATM    8  C7  UNL     1      23.293   1.946  51.101  1.00  0.00     0.101 A 
HETATM    9  C8  UNL     1      23.046   0.880  51.898  1.00  0.00     0.044 A 
HETATM   10  C9  UNL     1      23.974   0.641  52.883  1.00  0.00     0.100 A 
HETATM   11  N4  UNL     1      23.330   4.680  48.718  1.00  0.00    -0.371 N 
HETATM   12  C16 UNL     1      22.002   4.661  48.169  1.00  0.00     0.150 C 
HETATM   13  C17 UNL     1      24.556   5.482  48.653  1.00  0.00     0.143 C 
HETATM   14  C18 UNL     1      25.264   5.777  49.943  1.00  0.00     0.139 C 
HETATM   15  N5  UNL     1      25.815   4.637  50.681  1.00  0.00    -0.389 N 
HETATM   16  H25 UNL     1      26.503   4.103  51.189  1.00  0.00     0.159 HD
ENDROOT
BRANCH  10  17
HETATM   17  O2  UNL     1      23.615  -0.462  53.625  1.00  0.00    -0.348 OA
BRANCH  17  18
HETATM   18  C10 UNL     1      22.426  -1.183  53.534  1.00  0.00     0.177 C 
BRANCH  18  19
HETATM   19  C11 UNL     1      21.538  -0.685  54.684  1.00  0.00     0.057 C 
BRANCH  19  20
HETATM   20  C12 UNL     1      20.342   0.043  54.173  1.00  0.00     0.274 C 
BRANCH  20  21
HETATM   21  N3  UNL     1      19.745  -0.483  52.991  1.00  0.00     0.088 N 
HETATM   22  C13 UNL     1      18.435  -1.042  53.199  1.00  0.00     0.274 A 
HETATM   23  C14 UNL     1      17.874  -0.182  52.067  1.00  0.00     0.060 A 
HETATM   24  C15 UNL     1      19.263   0.410  51.991  1.00  0.00     0.274 A 
ENDBRANCH  20  21
ENDBRANCH  19  20
ENDBRANCH  18  19
ENDBRANCH  17  18
ENDBRANCH  10  17
BRANCH   1  25
HETATM   25  O1  UNL     1      25.997   0.972  54.230  1.00  0.00    -0.353 OA
HETATM   26  C1  UNL     1      27.126   0.171  53.940  1.00  0.00     0.210 C 
ENDBRANCH   1  25
TORSDOF 7
ENDMDL
MODEL 8
REMARK VINA RESULT:      -6.6      4.311      7.536
REMARK  7 active torsions:
REMARK  status: ('A' for Active; 'I' for Inactive)
REMARK    1  A    between atoms: O1_2  and  C2_3 
REMARK    2  A    between atoms: N2_9  and  C7_10 
REMARK    3  A    between atoms: C9_12  and  O2_13 
REMARK    4  A    between atoms: O2_13  and  C10_14 
REMARK    5  A    between atoms: C10_14  and  C11_15 
REMARK    6  A    between atoms: C11_15  and  C12_16 
REMARK    7  A    between atoms: C12_16  and  N3_17 
ROOT
HETATM    1  C2  UNL     1      24.380   4.234  49.356  1.00  0.00     0.098 A 
HETATM    2  C3  UNL     1      23.619   3.310  50.108  1.00  0.00     0.033 A 
HETATM    3  C4  UNL     1      24.533   2.524  50.831  1.00  0.00     0.072 A 
HETATM    4  C5  UNL     1      23.851   1.614  51.615  1.00  0.00     0.045 A 
HETATM    5  N1  UNL     1      25.084   1.387  51.889  1.00  0.00     0.000 N 
HETATM    6  C6  UNL     1      25.731   0.658  52.593  1.00  0.00     0.136 A 
HETATM    7  N2  UNL     1      26.406   1.496  51.862  1.00  0.00    -0.173 NA
HETATM    8  C7  UNL     1      25.963   2.442  50.979  1.00  0.00     0.101 A 
HETATM    9  C8  UNL     1      26.593   3.367  50.218  1.00  0.00     0.044 A 
HETATM   10  C9  UNL     1      25.779   4.185  49.473  1.00  0.00     0.100 A 
HETATM   11  N4  UNL     1      24.897  -0.155  53.276  1.00  0.00    -0.371 N 
HETATM   12  C16 UNL     1      26.090  -0.449  54.023  1.00  0.00     0.150 C 
HETATM   13  C17 UNL     1      23.476  -0.516  53.250  1.00  0.00     0.143 C 
HETATM   14  C18 UNL     1      22.479   0.591  53.063  1.00  0.00     0.139 C 
HETATM   15  N5  UNL     1      22.519   1.321  51.792  1.00  0.00    -0.389 N 
HETATM   16  H25 UNL     1      22.159   1.743  50.951  1.00  0.00     0.159 HD
ENDROOT
BRANCH  10  17
HETATM   17  O2  UNL     1      26.531   5.080  48.745  1.00  0.00    -0.348 OA
BRANCH  17  18
HETATM   18  C10 UNL     1      27.910   5.051  48.550  1.00  0.00     0.177 C 
BRANCH  18  19
HETATM   19  C11 UNL     1      28.303   6.460  48.082  1.00  0.00     0.057 C 
BRANCH  19  20
HETATM   20  C12 UNL     1      29.751   6.536  47.735  1.00  0.00     0.274 C 
BRANCH  20  21
HETATM   21  N3  UNL     1      30.622   5.707  48.500  1.00  0.00     0.088 N 
HETATM   22  C13 UNL     1      31.602   5.008  47.711  1.00  0.00     0.274 A 
HETATM   23  C14 UNL     1      32.721   5.538  48.607  1.00  0.00     0.060 A 
HETATM   24  C15 UNL     1      31.628   6.307  49.312  1.00  0.00     0.274 A 
ENDBRANCH  20  21
ENDBRANCH  19  20
ENDBRANCH  18  19
ENDBRANCH  17  18
ENDBRANCH  10  17
BRANCH   1  25
HETATM   25  O1  UNL     1      23.690   5.106  48.572  1.00  0.00    -0.353 OA
HETATM   26  C1  UNL     1      22.347   4.814  48.243  1.00  0.00     0.210 C 
ENDBRANCH   1  25
TORSDOF 7
ENDMDL
MODEL 9
REMARK VINA RESULT:      -6.5      2.127      4.391
REMARK  7 active torsions:
REMARK  status: ('A' for Active; 'I' for Inactive)
REMARK    1  A    between atoms: O1_2  and  C2_3 
REMARK    2  A    between atoms: N2_9  and  C7_10 
REMARK    3  A    between atoms: C9_12  and  O2_13 
REMARK    4  A    between atoms: O2_13  and  C10_14 
REMARK    5  A    between atoms: C10_14  and  C11_15 
REMARK    6  A    between atoms: C11_15  and  C12_16 
REMARK    7  A    between atoms: C12_16  and  N3_17 
ROOT
HETATM    1  C2  UNL     1      22.249   0.243  52.622  1.00  0.00     0.098 A 
HETATM    2  C3  UNL     1      23.318  -0.166  53.452  1.00  0.00     0.033 A 
HETATM    3  C4  UNL     1      24.440   0.590  53.070  1.00  0.00     0.072 A 
HETATM    4  C5  UNL     1      25.519   0.260  53.866  1.00  0.00     0.045 A 
HETATM    5  N1  UNL     1      25.981   1.171  53.089  1.00  0.00     0.000 N 
HETATM    6  C6  UNL     1      27.015   1.757  52.902  1.00  0.00     0.136 A 
HETATM    7  N2  UNL     1      26.022   2.086  52.130  1.00  0.00    -0.173 NA
HETATM    8  C7  UNL     1      24.740   1.611  52.101  1.00  0.00     0.101 A 
HETATM    9  C8  UNL     1      23.651   1.926  51.360  1.00  0.00     0.044 A 
HETATM   10  C9  UNL     1      22.502   1.237  51.663  1.00  0.00     0.100 A 
HETATM   11  N4  UNL     1      27.946   1.301  53.768  1.00  0.00    -0.371 N 
HETATM   12  C16 UNL     1      28.673   2.453  53.309  1.00  0.00     0.150 C 
HETATM   13  C17 UNL     1      28.095   0.186  54.708  1.00  0.00     0.143 C 
HETATM   14  C18 UNL     1      26.915  -0.163  55.568  1.00  0.00     0.139 C 
HETATM   15  N5  UNL     1      25.708  -0.641  54.888  1.00  0.00    -0.389 N 
HETATM   16  H25 UNL     1      24.919  -1.242  54.705  1.00  0.00     0.159 HD
ENDROOT
BRANCH  10  17
HETATM   17  O2  UNL     1      21.468   1.643  50.847  1.00  0.00    -0.348 OA
BRANCH  17  18
HETATM   18  C10 UNL     1      21.249   2.925  50.347  1.00  0.00     0.177 C 
BRANCH  18  19
HETATM   19  C11 UNL     1      20.641   3.734  51.502  1.00  0.00     0.057 C 
BRANCH  19  20
HETATM   20  C12 UNL     1      21.574   4.799  51.971  1.00  0.00     0.274 C 
BRANCH  20  21
HETATM   21  N3  UNL     1      22.391   5.401  50.972  1.00  0.00     0.088 N 
HETATM   22  C13 UNL     1      22.041   6.767  50.680  1.00  0.00     0.274 A 
HETATM   23  C14 UNL     1      23.491   7.199  50.904  1.00  0.00     0.060 A 
HETATM   24  C15 UNL     1      23.734   5.757  51.284  1.00  0.00     0.274 A 
ENDBRANCH  20  21
ENDBRANCH  19  20
ENDBRANCH  18  19
ENDBRANCH  17  18
ENDBRANCH  10  17
BRANCH   1  25
HETATM   25  O1  UNL     1      21.048  -0.365  52.820  1.00  0.00    -0.353 OA
HETATM   26  C1  UNL     1      20.864  -1.152  53.979  1.00  0.00     0.210 C 
ENDBRANCH   1  25
TORSDOF 7
ENDMDL
