MODEL 1
REMARK VINA RESULT:      -8.4      0.000      0.000
REMARK  7 active torsions:
REMARK  status: ('A' for Active; 'I' for Inactive)
REMARK    1  A    between atoms: C2_2  and  N1_3 
REMARK    2  A    between atoms: N1_3  and  C3_4 
REMARK    3  A    between atoms: C3_4  and  C15_20 
REMARK    4  A    between atoms: C4_5  and  N2_6 
REMARK    5  A    between atoms: C4_5  and  C11_13 
REMARK    6  A    between atoms: N2_6  and  C5_7 
REMARK    7  A    between atoms: C14_17  and  N4_18 
ROOT
HETATM    1  C3  UNL     1      24.436   2.859  51.167  1.00  0.00     0.105 C 
HETATM    2  C4  UNL     1      24.600   1.940  52.135  1.00  0.00     0.088 C 
ENDROOT
BRANCH   2   3
HETATM    3  N2  UNL     1      23.450   1.394  52.752  1.00  0.00    -0.381 N 
HETATM    4  H3  UNL     1      22.953   2.086  53.397  1.00  0.00     0.160 HD
BRANCH   3   5
HETATM    5  C5  UNL     1      22.696   0.186  52.811  1.00  0.00     0.085 C 
HETATM    6  C6  UNL     1      23.199  -0.816  53.802  1.00  0.00     0.025 C 
HETATM    7  C7  UNL     1      22.127  -1.018  54.863  1.00  0.00     0.002 C 
HETATM    8  C8  UNL     1      21.137   0.097  54.621  1.00  0.00     0.006 C 
HETATM    9  C9  UNL     1      21.242   0.356  53.118  1.00  0.00     0.004 C 
HETATM   10  C10 UNL     1      20.693   1.724  52.863  1.00  0.00     0.012 C 
ENDBRANCH   3   5
ENDBRANCH   2   3
BRANCH   2  11
HETATM   11  C11 UNL     1      25.898   1.435  52.612  1.00  0.00     0.106 A 
HETATM   12  C12 UNL     1      26.209   0.107  52.274  1.00  0.00     0.054 A 
HETATM   13  C13 UNL     1      27.360  -0.546  52.633  1.00  0.00     0.139 A 
HETATM   14  N3  UNL     1      28.260   0.143  53.368  1.00  0.00    -0.075 NA
HETATM   15  C14 UNL     1      27.985   1.429  53.709  1.00  0.00     0.720 A 
HETATM   16  N5  UNL     1      26.854   2.021  53.336  1.00  0.00    -0.061 NA
BRANCH  15  17
HETATM   17  N4  UNL     1      28.869   2.219  54.471  1.00  0.00    -0.231 N 
HETATM   18  H17 UNL     1      29.155   2.509  55.425  1.00  0.00     0.174 HD
HETATM   19  H18 UNL     1      29.570   2.790  53.923  1.00  0.00     0.174 HD
ENDBRANCH  15  17
ENDBRANCH   2  11
BRANCH   1  20
HETATM   20  N1  UNL     1      23.071   3.155  50.899  1.00  0.00    -0.208 NA
BRANCH  20  21
HETATM   21  C2  UNL     1      22.489   2.637  49.866  1.00  0.00    -0.043 C 
HETATM   22  C1  UNL     1      21.903   1.793  49.026  1.00  0.00     0.119 C 
ENDBRANCH  20  21
ENDBRANCH   1  20
BRANCH   1  23
HETATM   23  C15 UNL     1      25.308   3.666  50.336  1.00  0.00    -0.004 A 
HETATM   24  C16 UNL     1      24.992   5.002  50.182  1.00  0.00     0.017 A 
HETATM   25  C17 UNL     1      25.713   5.916  49.446  1.00  0.00     0.043 A 
HETATM   26  C18 UNL     1      26.826   5.411  48.838  1.00  0.00     0.116 A 
HETATM   27  F1  UNL     1      27.579   6.267  48.097  1.00  0.00    -0.206 F 
HETATM   28  C19 UNL     1      27.233   4.110  48.923  1.00  0.00     0.043 A 
HETATM   29  C20 UNL     1      26.452   3.269  49.678  1.00  0.00     0.017 A 
ENDBRANCH   1  23
TORSDOF 7
ENDMDL
MODEL 2
REMARK VINA RESULT:      -8.0      2.618      5.167
REMARK  7 active torsions:
REMARK  status: ('A' for Active; 'I' for Inactive)
REMARK    1  A    between atoms: C2_2  and  N1_3 
REMARK    2  A    between atoms: N1_3  and  C3_4 
REMARK    3  A    between atoms: C3_4  and  C15_20 
REMARK    4  A    between atoms: C4_5  and  N2_6 
REMARK    5  A    between atoms: C4_5  and  C11_13 
REMARK    6  A    between atoms: N2_6  and  C5_7 
REMARK    7  A    between atoms: C14_17  and  N4_18 
ROOT
HETATM    1  C3  UNL     1      24.749   1.838  52.426  1.00  0.00     0.105 C 
HETATM    2  C4  UNL     1      23.435   1.607  52.596  1.00  0.00     0.088 C 
ENDROOT
BRANCH   2   3
HETATM    3  N2  UNL     1      22.509   2.480  51.980  1.00  0.00    -0.381 N 
HETATM    4  H3  UNL     1      22.040   3.148  52.670  1.00  0.00     0.160 HD
BRANCH   3   5
HETATM    5  C5  UNL     1      21.962   2.787  50.700  1.00  0.00     0.085 C 
HETATM    6  C6  UNL     1      22.298   1.800  49.626  1.00  0.00     0.025 C 
HETATM    7  C7  UNL     1      21.005   1.153  49.151  1.00  0.00     0.002 C 
HETATM    8  C8  UNL     1      19.973   1.571  50.172  1.00  0.00     0.006 C 
HETATM    9  C9  UNL     1      20.474   2.930  50.659  1.00  0.00     0.004 C 
HETATM   10  C10 UNL     1      19.824   3.197  51.980  1.00  0.00     0.012 C 
ENDBRANCH   3   5
ENDBRANCH   2   3
BRANCH   2  11
HETATM   11  C11 UNL     1      22.865   0.496  53.377  1.00  0.00     0.106 A 
HETATM   12  C12 UNL     1      21.527   0.167  53.101  1.00  0.00     0.054 A 
HETATM   13  C13 UNL     1      20.817  -0.826  53.727  1.00  0.00     0.139 A 
HETATM   14  N3  UNL     1      21.456  -1.537  54.681  1.00  0.00    -0.075 NA
HETATM   15  C14 UNL     1      22.751  -1.241  54.967  1.00  0.00     0.720 A 
HETATM   16  N5  UNL     1      23.399  -0.269  54.332  1.00  0.00    -0.061 NA
BRANCH  15  17
HETATM   17  N4  UNL     1      23.492  -1.935  55.945  1.00  0.00    -0.231 N 
HETATM   18  H17 UNL     1      23.841  -1.927  56.922  1.00  0.00     0.174 HD
HETATM   19  H18 UNL     1      23.899  -2.863  55.645  1.00  0.00     0.174 HD
ENDBRANCH  15  17
ENDBRANCH   2  11
BRANCH   1  20
HETATM   20  N1  UNL     1      25.019   2.975  51.616  1.00  0.00    -0.208 NA
BRANCH  20  21
HETATM   21  C2  UNL     1      25.816   2.870  50.602  1.00  0.00    -0.043 C 
HETATM   22  C1  UNL     1      26.553   3.135  49.530  1.00  0.00     0.119 C 
ENDBRANCH  20  21
ENDBRANCH   1  20
BRANCH   1  23
HETATM   23  C15 UNL     1      25.983   1.236  52.892  1.00  0.00    -0.004 A 
HETATM   24  C16 UNL     1      26.309  -0.017  52.411  1.00  0.00     0.017 A 
HETATM   25  C17 UNL     1      27.444  -0.728  52.731  1.00  0.00     0.043 A 
HETATM   26  C18 UNL     1      28.288  -0.099  53.601  1.00  0.00     0.116 A 
HETATM   27  F1  UNL     1      29.426  -0.753  53.954  1.00  0.00    -0.206 F 
HETATM   28  C19 UNL     1      28.067   1.137  54.137  1.00  0.00     0.043 A 
HETATM   29  C20 UNL     1      26.909   1.773  53.761  1.00  0.00     0.017 A 
ENDBRANCH   1  23
TORSDOF 7
ENDMDL
MODEL 3
REMARK VINA RESULT:      -7.8      2.771      5.238
REMARK  7 active torsions:
REMARK  status: ('A' for Active; 'I' for Inactive)
REMARK    1  A    between atoms: C2_2  and  N1_3 
REMARK    2  A    between atoms: N1_3  and  C3_4 
REMARK    3  A    between atoms: C3_4  and  C15_20 
REMARK    4  A    between atoms: C4_5  and  N2_6 
REMARK    5  A    between atoms: C4_5  and  C11_13 
REMARK    6  A    between atoms: N2_6  and  C5_7 
REMARK    7  A    between atoms: C14_17  and  N4_18 
ROOT
HETATM    1  C3  UNL     1      24.145   0.761  52.464  1.00  0.00     0.105 C 
HETATM    2  C4  UNL     1      23.302   1.560  51.785  1.00  0.00     0.088 C 
ENDROOT
BRANCH   2   3
HETATM    3  N2  UNL     1      21.989   1.100  51.534  1.00  0.00    -0.381 N 
HETATM    4  H3  UNL     1      21.957   0.085  51.200  1.00  0.00     0.160 HD
BRANCH   3   5
HETATM    5  C5  UNL     1      20.635   1.545  51.575  1.00  0.00     0.085 C 
HETATM    6  C6  UNL     1      20.395   2.730  52.456  1.00  0.00     0.025 C 
HETATM    7  C7  UNL     1      19.924   3.885  51.584  1.00  0.00     0.002 C 
HETATM    8  C8  UNL     1      20.184   3.425  50.169  1.00  0.00     0.006 C 
HETATM    9  C9  UNL     1      20.042   1.905  50.250  1.00  0.00     0.004 C 
HETATM   10  C10 UNL     1      20.742   1.328  49.061  1.00  0.00     0.012 C 
ENDBRANCH   3   5
ENDBRANCH   2   3
BRANCH   2  11
HETATM   11  C11 UNL     1      23.632   2.903  51.278  1.00  0.00     0.106 A 
HETATM   12  C12 UNL     1      23.869   3.003  49.897  1.00  0.00     0.054 A 
HETATM   13  C13 UNL     1      24.199   4.160  49.239  1.00  0.00     0.139 A 
HETATM   14  N3  UNL     1      24.304   5.285  49.978  1.00  0.00    -0.075 NA
HETATM   15  C14 UNL     1      24.079   5.217  51.316  1.00  0.00     0.720 A 
HETATM   16  N5  UNL     1      23.760   4.071  51.911  1.00  0.00    -0.061 NA
BRANCH  15  17
HETATM   17  N4  UNL     1      24.165   6.343  52.160  1.00  0.00    -0.231 N 
HETATM   18  H17 UNL     1      24.717   7.184  52.414  1.00  0.00     0.174 HD
HETATM   19  H18 UNL     1      23.380   6.458  52.859  1.00  0.00     0.174 HD
ENDBRANCH  15  17
ENDBRANCH   2  11
BRANCH   1  20
HETATM   20  N1  UNL     1      23.562  -0.479  52.844  1.00  0.00    -0.208 NA
BRANCH  20  21
HETATM   21  C2  UNL     1      22.970  -0.590  53.989  1.00  0.00    -0.043 C 
HETATM   22  C1  UNL     1      22.054  -0.718  54.941  1.00  0.00     0.119 C 
ENDBRANCH  20  21
ENDBRANCH   1  20
BRANCH   1  23
HETATM   23  C15 UNL     1      25.531   0.826  52.886  1.00  0.00    -0.004 A 
HETATM   24  C16 UNL     1      26.356  -0.228  52.545  1.00  0.00     0.017 A 
HETATM   25  C17 UNL     1      27.696  -0.327  52.847  1.00  0.00     0.043 A 
HETATM   26  C18 UNL     1      28.206   0.731  53.542  1.00  0.00     0.116 A 
HETATM   27  F1  UNL     1      29.525   0.690  53.868  1.00  0.00    -0.206 F 
HETATM   28  C19 UNL     1      27.485   1.824  53.929  1.00  0.00     0.043 A 
HETATM   29  C20 UNL     1      26.155   1.837  53.585  1.00  0.00     0.017 A 
ENDBRANCH   1  23
TORSDOF 7
ENDMDL
MODEL 4
REMARK VINA RESULT:      -7.8      2.824      6.106
REMARK  7 active torsions:
REMARK  status: ('A' for Active; 'I' for Inactive)
REMARK    1  A    between atoms: C2_2  and  N1_3 
REMARK    2  A    between atoms: N1_3  and  C3_4 
REMARK    3  A    between atoms: C3_4  and  C15_20 
REMARK    4  A    between atoms: C4_5  and  N2_6 
REMARK    5  A    between atoms: C4_5  and  C11_13 
REMARK    6  A    between atoms: N2_6  and  C5_7 
REMARK    7  A    between atoms: C14_17  and  N4_18 
ROOT
HETATM    1  C3  UNL     1      23.094   1.027  52.185  1.00  0.00     0.105 C 
HETATM    2  C4  UNL     1      24.202   1.780  52.066  1.00  0.00     0.088 C 
ENDROOT
BRANCH   2   3
HETATM    3  N2  UNL     1      25.418   1.283  52.589  1.00  0.00    -0.381 N 
HETATM    4  H3  UNL     1      25.309   0.846  53.558  1.00  0.00     0.160 HD
BRANCH   3   5
HETATM    5  C5  UNL     1      26.798   1.159  52.252  1.00  0.00     0.085 C 
HETATM    6  C6  UNL     1      27.665   2.267  52.761  1.00  0.00     0.025 C 
HETATM    7  C7  UNL     1      28.662   1.677  53.748  1.00  0.00     0.002 C 
HETATM    8  C8  UNL     1      28.156   0.279  54.011  1.00  0.00     0.006 C 
HETATM    9  C9  UNL     1      27.455  -0.105  52.708  1.00  0.00     0.004 C 
HETATM   10  C10 UNL     1      26.522  -1.231  53.019  1.00  0.00     0.012 C 
ENDBRANCH   3   5
ENDBRANCH   2   3
BRANCH   2  11
HETATM   11  C11 UNL     1      24.262   3.101  51.417  1.00  0.00     0.106 A 
HETATM   12  C12 UNL     1      24.411   3.099  50.020  1.00  0.00     0.054 A 
HETATM   13  C13 UNL     1      24.498   4.222  49.238  1.00  0.00     0.139 A 
HETATM   14  N3  UNL     1      24.437   5.418  49.862  1.00  0.00    -0.075 NA
HETATM   15  C14 UNL     1      24.293   5.449  51.212  1.00  0.00     0.720 A 
HETATM   16  N5  UNL     1      24.212   4.332  51.930  1.00  0.00    -0.061 NA
BRANCH  15  17
HETATM   17  N4  UNL     1      24.219   6.653  51.942  1.00  0.00    -0.231 N 
HETATM   18  H17 UNL     1      24.603   7.201  52.735  1.00  0.00     0.174 HD
HETATM   19  H18 UNL     1      23.495   7.350  51.613  1.00  0.00     0.174 HD
ENDBRANCH  15  17
ENDBRANCH   2  11
BRANCH   1  20
HETATM   20  N1  UNL     1      23.324  -0.210  52.848  1.00  0.00    -0.208 NA
BRANCH  20  21
HETATM   21  C2  UNL     1      22.705  -0.474  53.953  1.00  0.00    -0.043 C 
HETATM   22  C1  UNL     1      21.864  -0.967  54.854  1.00  0.00     0.119 C 
ENDBRANCH  20  21
ENDBRANCH   1  20
BRANCH   1  23
HETATM   23  C15 UNL     1      21.693   1.169  51.837  1.00  0.00    -0.004 A 
HETATM   24  C16 UNL     1      20.982   2.188  52.440  1.00  0.00     0.017 A 
HETATM   25  C17 UNL     1      19.655   2.480  52.217  1.00  0.00     0.043 A 
HETATM   26  C18 UNL     1      19.033   1.665  51.315  1.00  0.00     0.116 A 
HETATM   27  F1  UNL     1      17.720   1.904  51.054  1.00  0.00    -0.206 F 
HETATM   28  C19 UNL     1      19.637   0.630  50.661  1.00  0.00     0.043 A 
HETATM   29  C20 UNL     1      20.964   0.413  50.945  1.00  0.00     0.017 A 
ENDBRANCH   1  23
TORSDOF 7
ENDMDL
MODEL 5
REMARK VINA RESULT:      -7.6      2.710      5.103
REMARK  7 active torsions:
REMARK  status: ('A' for Active; 'I' for Inactive)
REMARK    1  A    between atoms: C2_2  and  N1_3 
REMARK    2  A    between atoms: N1_3  and  C3_4 
REMARK    3  A    between atoms: C3_4  and  C15_20 
REMARK    4  A    between atoms: C4_5  and  N2_6 
REMARK    5  A    between atoms: C4_5  and  C11_13 
REMARK    6  A    between atoms: N2_6  and  C5_7 
REMARK    7  A    between atoms: C14_17  and  N4_18 
ROOT
HETATM    1  C3  UNL     1      24.541   0.601  52.807  1.00  0.00     0.105 C 
HETATM    2  C4  UNL     1      23.651   1.401  52.195  1.00  0.00     0.088 C 
ENDROOT
BRANCH   2   3
HETATM    3  N2  UNL     1      22.311   0.964  52.086  1.00  0.00    -0.381 N 
HETATM    4  H3  UNL     1      22.218  -0.101  52.066  1.00  0.00     0.160 HD
BRANCH   3   5
HETATM    5  C5  UNL     1      20.985   1.478  51.988  1.00  0.00     0.085 C 
HETATM    6  C6  UNL     1      20.310   1.218  50.678  1.00  0.00     0.025 C 
HETATM    7  C7  UNL     1      19.104   0.325  50.932  1.00  0.00     0.002 C 
HETATM    8  C8  UNL     1      19.276  -0.154  52.354  1.00  0.00     0.006 C 
HETATM    9  C9  UNL     1      20.032   0.988  53.032  1.00  0.00     0.004 C 
HETATM   10  C10 UNL     1      20.670   0.430  54.265  1.00  0.00     0.012 C 
ENDBRANCH   3   5
ENDBRANCH   2   3
BRANCH   2  11
HETATM   11  C11 UNL     1      23.954   2.725  51.624  1.00  0.00     0.106 A 
HETATM   12  C12 UNL     1      24.436   2.736  50.305  1.00  0.00     0.054 A 
HETATM   13  C13 UNL     1      24.784   3.863  49.605  1.00  0.00     0.139 A 
HETATM   14  N3  UNL     1      24.653   5.049  50.236  1.00  0.00    -0.075 NA
HETATM   15  C14 UNL     1      24.189   5.068  51.513  1.00  0.00     0.720 A 
HETATM   16  N5  UNL     1      23.863   3.947  52.152  1.00  0.00    -0.061 NA
BRANCH  15  17
HETATM   17  N4  UNL     1      24.020   6.262  52.243  1.00  0.00    -0.231 N 
HETATM   18  H17 UNL     1      24.046   7.298  52.211  1.00  0.00     0.174 HD
HETATM   19  H18 UNL     1      23.754   6.148  53.261  1.00  0.00     0.174 HD
ENDBRANCH  15  17
ENDBRANCH   2  11
BRANCH   1  20
HETATM   20  N1  UNL     1      23.975  -0.618  53.273  1.00  0.00    -0.208 NA
BRANCH  20  21
HETATM   21  C2  UNL     1      23.973  -0.886  54.539  1.00  0.00    -0.043 C 
HETATM   22  C1  UNL     1      24.349  -1.176  55.778  1.00  0.00     0.119 C 
ENDBRANCH  20  21
ENDBRANCH   1  20
BRANCH   1  23
HETATM   23  C15 UNL     1      25.963   0.645  53.089  1.00  0.00    -0.004 A 
HETATM   24  C16 UNL     1      26.716  -0.468  52.769  1.00  0.00     0.017 A 
HETATM   25  C17 UNL     1      28.075  -0.595  52.950  1.00  0.00     0.043 A 
HETATM   26  C18 UNL     1      28.685   0.498  53.495  1.00  0.00     0.116 A 
HETATM   27  F1  UNL     1      30.028   0.432  53.697  1.00  0.00    -0.206 F 
HETATM   28  C19 UNL     1      28.041   1.649  53.847  1.00  0.00     0.043 A 
HETATM   29  C20 UNL     1      26.685   1.687  53.631  1.00  0.00     0.017 A 
ENDBRANCH   1  23
TORSDOF 7
ENDMDL
MODEL 6
REMARK VINA RESULT:      -7.5      2.697      5.525
REMARK  7 active torsions:
REMARK  status: ('A' for Active; 'I' for Inactive)
REMARK    1  A    between atoms: C2_2  and  N1_3 
REMARK    2  A    between atoms: N1_3  and  C3_4 
REMARK    3  A    between atoms: C3_4  and  C15_20 
REMARK    4  A    between atoms: C4_5  and  N2_6 
REMARK    5  A    between atoms: C4_5  and  C11_13 
REMARK    6  A    between atoms: N2_6  and  C5_7 
REMARK    7  A    between atoms: C14_17  and  N4_18 
ROOT
HETATM    1  C3  UNL     1      25.938   1.612  52.381  1.00  0.00     0.105 C 
HETATM    2  C4  UNL     1      24.604   1.697  52.527  1.00  0.00     0.088 C 
ENDROOT
BRANCH   2   3
HETATM    3  N2  UNL     1      23.951   2.878  52.106  1.00  0.00    -0.381 N 
HETATM    4  H3  UNL     1      24.629   3.667  51.861  1.00  0.00     0.160 HD
BRANCH   3   5
HETATM    5  C5  UNL     1      22.643   3.400  51.887  1.00  0.00     0.085 C 
HETATM    6  C6  UNL     1      22.398   4.745  52.496  1.00  0.00     0.025 C 
HETATM    7  C7  UNL     1      22.128   5.736  51.372  1.00  0.00     0.002 C 
HETATM    8  C8  UNL     1      22.514   4.997  50.112  1.00  0.00     0.006 C 
HETATM    9  C9  UNL     1      22.240   3.532  50.452  1.00  0.00     0.004 C 
HETATM   10  C10 UNL     1      23.026   2.698  49.491  1.00  0.00     0.012 C 
ENDBRANCH   3   5
ENDBRANCH   2   3
BRANCH   2  11
HETATM   11  C11 UNL     1      23.745   0.642  53.090  1.00  0.00     0.106 A 
HETATM   12  C12 UNL     1      22.584   0.333  52.362  1.00  0.00     0.054 A 
HETATM   13  C13 UNL     1      21.655  -0.608  52.727  1.00  0.00     0.139 A 
HETATM   14  N3  UNL     1      21.876  -1.285  53.874  1.00  0.00    -0.075 NA
HETATM   15  C14 UNL     1      22.992  -1.007  54.598  1.00  0.00     0.720 A 
HETATM   16  N5  UNL     1      23.866  -0.085  54.203  1.00  0.00    -0.061 NA
BRANCH  15  17
HETATM   17  N4  UNL     1      23.300  -1.668  55.804  1.00  0.00    -0.231 N 
HETATM   18  H17 UNL     1      23.298  -1.608  56.840  1.00  0.00     0.174 HD
HETATM   19  H18 UNL     1      23.710  -2.638  55.709  1.00  0.00     0.174 HD
ENDBRANCH  15  17
ENDBRANCH   2  11
BRANCH   1  20
HETATM   20  N1  UNL     1      26.515   2.774  51.799  1.00  0.00    -0.208 NA
BRANCH  20  21
HETATM   21  C2  UNL     1      26.532   2.911  50.512  1.00  0.00    -0.043 C 
HETATM   22  C1  UNL     1      26.649   3.408  49.287  1.00  0.00     0.119 C 
ENDBRANCH  20  21
ENDBRANCH   1  20
BRANCH   1  23
HETATM   23  C15 UNL     1      26.963   0.637  52.702  1.00  0.00    -0.004 A 
HETATM   24  C16 UNL     1      28.118   1.095  53.305  1.00  0.00     0.017 A 
HETATM   25  C17 UNL     1      29.184   0.314  53.693  1.00  0.00     0.043 A 
HETATM   26  C18 UNL     1      29.038  -1.020  53.440  1.00  0.00     0.116 A 
HETATM   27  F1  UNL     1      30.058  -1.843  53.801  1.00  0.00    -0.206 F 
HETATM   28  C19 UNL     1      27.941  -1.581  52.851  1.00  0.00     0.043 A 
HETATM   29  C20 UNL     1      26.926  -0.725  52.497  1.00  0.00     0.017 A 
ENDBRANCH   1  23
TORSDOF 7
ENDMDL
MODEL 7
REMARK VINA RESULT:      -7.3      1.340      4.439
REMARK  7 active torsions:
REMARK  status: ('A' for Active; 'I' for Inactive)
REMARK    1  A    between atoms: C2_2  and  N1_3 
REMARK    2  A    between atoms: N1_3  and  C3_4 
REMARK    3  A    between atoms: C3_4  and  C15_20 
REMARK    4  A    between atoms: C4_5  and  N2_6 
REMARK    5  A    between atoms: C4_5  and  C11_13 
REMARK    6  A    between atoms: N2_6  and  C5_7 
REMARK    7  A    between atoms: C14_17  and  N4_18 
ROOT
HETATM    1  C3  UNL     1      24.630   2.800  51.339  1.00  0.00     0.105 C 
HETATM    2  C4  UNL     1      23.376   2.316  51.376  1.00  0.00     0.088 C 
ENDROOT
BRANCH   2   3
HETATM    3  N2  UNL     1      23.019   1.441  52.428  1.00  0.00    -0.381 N 
HETATM    4  H3  UNL     1      23.129   1.883  53.395  1.00  0.00     0.160 HD
BRANCH   3   5
HETATM    5  C5  UNL     1      22.544   0.116  52.651  1.00  0.00     0.085 C 
HETATM    6  C6  UNL     1      23.389  -0.702  53.576  1.00  0.00     0.025 C 
HETATM    7  C7  UNL     1      22.560  -1.040  54.806  1.00  0.00     0.002 C 
HETATM    8  C8  UNL     1      21.339  -0.158  54.697  1.00  0.00     0.006 C 
HETATM    9  C9  UNL     1      21.152   0.019  53.190  1.00  0.00     0.004 C 
HETATM   10  C10 UNL     1      20.304   1.234  52.986  1.00  0.00     0.012 C 
ENDBRANCH   3   5
ENDBRANCH   2   3
BRANCH   2  11
HETATM   11  C11 UNL     1      22.317   2.631  50.402  1.00  0.00     0.106 A 
HETATM   12  C12 UNL     1      22.181   1.740  49.324  1.00  0.00     0.054 A 
HETATM   13  C13 UNL     1      21.265   1.867  48.311  1.00  0.00     0.139 A 
HETATM   14  N3  UNL     1      20.433   2.930  48.357  1.00  0.00    -0.075 NA
HETATM   15  C14 UNL     1      20.543   3.807  49.389  1.00  0.00     0.720 A 
HETATM   16  N5  UNL     1      21.447   3.642  50.350  1.00  0.00    -0.061 NA
BRANCH  15  17
HETATM   17  N4  UNL     1      19.714   4.941  49.514  1.00  0.00    -0.231 N 
HETATM   18  H17 UNL     1      18.980   5.408  50.078  1.00  0.00     0.174 HD
HETATM   19  H18 UNL     1      19.817   5.675  48.760  1.00  0.00     0.174 HD
ENDBRANCH  15  17
ENDBRANCH   2  11
BRANCH   1  20
HETATM   20  N1  UNL     1      25.443   2.339  52.410  1.00  0.00    -0.208 NA
BRANCH  20  21
HETATM   21  C2  UNL     1      26.171   1.280  52.258  1.00  0.00    -0.043 C 
HETATM   22  C1  UNL     1      26.988   0.256  52.472  1.00  0.00     0.119 C 
ENDBRANCH  20  21
ENDBRANCH   1  20
BRANCH   1  23
HETATM   23  C15 UNL     1      25.390   3.659  50.451  1.00  0.00    -0.004 A 
HETATM   24  C16 UNL     1      24.970   4.967  50.307  1.00  0.00     0.017 A 
HETATM   25  C17 UNL     1      25.578   5.922  49.523  1.00  0.00     0.043 A 
HETATM   26  C18 UNL     1      26.687   5.492  48.853  1.00  0.00     0.116 A 
HETATM   27  F1  UNL     1      27.330   6.392  48.063  1.00  0.00    -0.206 F 
HETATM   28  C19 UNL     1      27.191   4.225  48.923  1.00  0.00     0.043 A 
HETATM   29  C20 UNL     1      26.520   3.339  49.729  1.00  0.00     0.017 A 
ENDBRANCH   1  23
TORSDOF 7
ENDMDL
MODEL 8
REMARK VINA RESULT:      -7.1      2.158      4.954
REMARK  7 active torsions:
REMARK  status: ('A' for Active; 'I' for Inactive)
REMARK    1  A    between atoms: C2_2  and  N1_3 
REMARK    2  A    between atoms: N1_3  and  C3_4 
REMARK    3  A    between atoms: C3_4  and  C15_20 
REMARK    4  A    between atoms: C4_5  and  N2_6 
REMARK    5  A    between atoms: C4_5  and  C11_13 
REMARK    6  A    between atoms: N2_6  and  C5_7 
REMARK    7  A    between atoms: C14_17  and  N4_18 
ROOT
HETATM    1  C3  UNL     1      24.704   2.768  51.248  1.00  0.00     0.105 C 
HETATM    2  C4  UNL     1      24.537   1.594  51.881  1.00  0.00     0.088 C 
ENDROOT
BRANCH   2   3
HETATM    3  N2  UNL     1      25.685   0.850  52.240  1.00  0.00    -0.381 N 
HETATM    4  H3  UNL     1      26.457   0.889  51.502  1.00  0.00     0.160 HD
BRANCH   3   5
HETATM    5  C5  UNL     1      26.186   0.030  53.293  1.00  0.00     0.085 C 
HETATM    6  C6  UNL     1      26.539  -1.365  52.883  1.00  0.00     0.025 C 
HETATM    7  C7  UNL     1      28.035  -1.557  53.082  1.00  0.00     0.002 C 
HETATM    8  C8  UNL     1      28.569  -0.166  53.328  1.00  0.00     0.006 C 
HETATM    9  C9  UNL     1      27.398   0.559  53.992  1.00  0.00     0.004 C 
HETATM   10  C10 UNL     1      27.635   2.028  53.832  1.00  0.00     0.012 C 
ENDBRANCH   3   5
ENDBRANCH   2   3
BRANCH   2  11
HETATM   11  C11 UNL     1      23.238   1.007  52.249  1.00  0.00     0.106 A 
HETATM   12  C12 UNL     1      22.346   0.763  51.191  1.00  0.00     0.054 A 
HETATM   13  C13 UNL     1      21.088   0.233  51.331  1.00  0.00     0.139 A 
HETATM   14  N3  UNL     1      20.681  -0.074  52.581  1.00  0.00    -0.075 NA
HETATM   15  C14 UNL     1      21.524   0.151  53.622  1.00  0.00     0.720 A 
HETATM   16  N5  UNL     1      22.736   0.667  53.438  1.00  0.00    -0.061 NA
BRANCH  15  17
HETATM   17  N4  UNL     1      21.179  -0.143  54.958  1.00  0.00    -0.231 N 
HETATM   18  H17 UNL     1      20.778   0.226  55.841  1.00  0.00     0.174 HD
HETATM   19  H18 UNL     1      21.376  -1.130  55.280  1.00  0.00     0.174 HD
ENDBRANCH  15  17
ENDBRANCH   2  11
BRANCH   1  20
HETATM   20  N1  UNL     1      26.069   3.099  51.025  1.00  0.00    -0.208 NA
BRANCH  20  21
HETATM   21  C2  UNL     1      26.415   3.718  49.943  1.00  0.00    -0.043 C 
HETATM   22  C1  UNL     1      27.112   4.342  49.001  1.00  0.00     0.119 C 
ENDBRANCH  20  21
ENDBRANCH   1  20
BRANCH   1  23
HETATM   23  C15 UNL     1      23.834   3.786  50.691  1.00  0.00    -0.004 A 
HETATM   24  C16 UNL     1      23.454   4.827  51.516  1.00  0.00     0.017 A 
HETATM   25  C17 UNL     1      22.650   5.884  51.153  1.00  0.00     0.043 A 
HETATM   26  C18 UNL     1      22.216   5.856  49.858  1.00  0.00     0.116 A 
HETATM   27  F1  UNL     1      21.418   6.875  49.442  1.00  0.00    -0.206 F 
HETATM   28  C19 UNL     1      22.529   4.879  48.958  1.00  0.00     0.043 A 
HETATM   29  C20 UNL     1      23.338   3.863  49.407  1.00  0.00     0.017 A 
ENDBRANCH   1  23
TORSDOF 7
ENDMDL
MODEL 9
REMARK VINA RESULT:      -7.0      2.738      6.042
REMARK  7 active torsions:
REMARK  status: ('A' for Active; 'I' for Inactive)
REMARK    1  A    between atoms: C2_2  and  N1_3 
REMARK    2  A    between atoms: N1_3  and  C3_4 
REMARK    3  A    between atoms: C3_4  and  C15_20 
REMARK    4  A    between atoms: C4_5  and  N2_6 
REMARK    5  A    between atoms: C4_5  and  C11_13 
REMARK    6  A    between atoms: N2_6  and  C5_7 
REMARK    7  A    between atoms: C14_17  and  N4_18 
ROOT
HETATM    1  C3  UNL     1      24.157   0.671  52.298  1.00  0.00     0.105 C 
HETATM    2  C4  UNL     1      25.313   1.284  51.988  1.00  0.00     0.088 C 
ENDROOT
BRANCH   2   3
HETATM    3  N2  UNL     1      26.528   0.672  52.373  1.00  0.00    -0.381 N 
HETATM    4  H3  UNL     1      27.189   0.500  51.552  1.00  0.00     0.160 HD
BRANCH   3   5
HETATM    5  C5  UNL     1      27.202   0.185  53.531  1.00  0.00     0.085 C 
HETATM    6  C6  UNL     1      27.765  -1.194  53.391  1.00  0.00     0.025 C 
HETATM    7  C7  UNL     1      29.280  -1.105  53.511  1.00  0.00     0.002 C 
HETATM    8  C8  UNL     1      29.583   0.372  53.425  1.00  0.00     0.006 C 
HETATM    9  C9  UNL     1      28.337   1.033  54.013  1.00  0.00     0.004 C 
HETATM   10  C10 UNL     1      28.318   2.451  53.538  1.00  0.00     0.012 C 
ENDBRANCH   3   5
ENDBRANCH   2   3
BRANCH   2  11
HETATM   11  C11 UNL     1      25.426   2.559  51.259  1.00  0.00     0.106 A 
HETATM   12  C12 UNL     1      24.437   3.519  51.531  1.00  0.00     0.054 A 
HETATM   13  C13 UNL     1      24.364   4.758  50.947  1.00  0.00     0.139 A 
HETATM   14  N3  UNL     1      25.316   5.074  50.043  1.00  0.00    -0.075 NA
HETATM   15  C14 UNL     1      26.285   4.165  49.762  1.00  0.00     0.720 A 
HETATM   16  N5  UNL     1      26.315   2.974  50.355  1.00  0.00    -0.061 NA
BRANCH  15  17
HETATM   17  N4  UNL     1      27.316   4.415  48.834  1.00  0.00    -0.231 N 
HETATM   18  H17 UNL     1      27.846   5.140  48.316  1.00  0.00     0.174 HD
HETATM   19  H18 UNL     1      27.814   3.563  48.454  1.00  0.00     0.174 HD
ENDBRANCH  15  17
ENDBRANCH   2  11
BRANCH   1  20
HETATM   20  N1  UNL     1      24.340  -0.554  52.997  1.00  0.00    -0.208 NA
BRANCH  20  21
HETATM   21  C2  UNL     1      23.769  -0.734  54.144  1.00  0.00    -0.043 C 
HETATM   22  C1  UNL     1      22.970  -1.161  55.115  1.00  0.00     0.119 C 
ENDBRANCH  20  21
ENDBRANCH   1  20
BRANCH   1  23
HETATM   23  C15 UNL     1      22.746   0.959  52.132  1.00  0.00    -0.004 A 
HETATM   24  C16 UNL     1      22.142   0.555  50.957  1.00  0.00     0.017 A 
HETATM   25  C17 UNL     1      20.814   0.730  50.637  1.00  0.00     0.043 A 
HETATM   26  C18 UNL     1      20.072   1.360  51.595  1.00  0.00     0.116 A 
HETATM   27  F1  UNL     1      18.753   1.561  51.335  1.00  0.00    -0.206 F 
HETATM   28  C19 UNL     1      20.564   1.800  52.790  1.00  0.00     0.043 A 
HETATM   29  C20 UNL     1      21.900   1.583  53.024  1.00  0.00     0.017 A 
ENDBRANCH   1  23
TORSDOF 7
ENDMDL
