MODEL 1
REMARK VINA RESULT:      -9.2      0.000      0.000
REMARK  4 active torsions:
REMARK  status: ('A' for Active; 'I' for Inactive)
REMARK    1  A    between atoms: S1_2  and  N1_5 
REMARK    2  A    between atoms: N1_5  and  C2_6 
REMARK    3  A    between atoms: C10_15  and  N3_16 
REMARK    4  A    between atoms: N3_16  and  C11_17 
ROOT
HETATM    1  C2  UNL     1      25.051  -0.138  53.014  1.00  0.00     0.043 A 
HETATM    2  C3  UNL     1      24.783   0.949  52.211  1.00  0.00     0.033 A 
HETATM    3  C4  UNL     1      23.481   1.394  52.019  1.00  0.00     0.040 A 
HETATM    4  C5  UNL     1      22.461   0.732  52.641  1.00  0.00     0.086 A 
HETATM    5  C6  UNL     1      22.649  -0.355  53.452  1.00  0.00    -0.004 A 
HETATM    6  C7  UNL     1      23.974  -0.772  53.621  1.00  0.00     0.041 A 
HETATM    7  C8  UNL     1      21.833  -1.284  54.256  1.00  0.00     0.161 C 
HETATM    8  N2  UNL     1      20.419  -1.093  54.153  1.00  0.00    -0.379 N 
HETATM    9  C9  UNL     1      19.617  -0.396  53.208  1.00  0.00     0.129 A 
HETATM   10  C10 UNL     1      18.357  -0.956  53.202  1.00  0.00     0.160 A 
HETATM   11  N4  UNL     1      17.436  -0.436  52.374  1.00  0.00    -0.222 NA
HETATM   12  C16 UNL     1      17.789   0.598  51.597  1.00  0.00     0.238 A 
HETATM   13  N5  UNL     1      19.018   1.142  51.604  1.00  0.00    -0.215 NA
HETATM   14  C17 UNL     1      19.982   0.667  52.410  1.00  0.00     0.202 A 
HETATM   15  O3  UNL     1      21.229   1.285  52.358  1.00  0.00    -0.289 OA
HETATM   16  H10 UNL     1      19.882  -1.556  54.922  1.00  0.00     0.160 HD
ENDROOT
BRANCH  10  17
HETATM   17  N3  UNL     1      17.932  -2.053  53.994  1.00  0.00    -0.339 N 
HETATM   18  H11 UNL     1      18.062  -2.457  54.942  1.00  0.00     0.167 HD
BRANCH  17  19
HETATM   19  C11 UNL     1      17.016  -3.047  53.498  1.00  0.00     0.031 A 
HETATM   20  C12 UNL     1      17.024  -4.363  53.771  1.00  0.00     0.008 A 
HETATM   21  C13 UNL     1      15.920  -5.125  53.085  1.00  0.00     0.075 A 
HETATM   22  C14 UNL     1      15.261  -4.010  52.356  1.00  0.00    -0.006 A 
HETATM   23 BR1  UNL     1      13.728  -4.298  51.247  1.00  0.00    -0.055 Br
HETATM   24  C15 UNL     1      15.872  -2.841  52.585  1.00  0.00     0.044 A 
ENDBRANCH  17  19
ENDBRANCH  10  17
BRANCH   1  25
HETATM   25  N1  UNL     1      26.370  -0.591  53.211  1.00  0.00    -0.285 N 
HETATM   26  H4  UNL     1      26.602  -1.489  52.722  1.00  0.00     0.178 HD
BRANCH  25  27
HETATM   27  S1  UNL     1      27.438   0.330  54.194  1.00  0.00     0.227 S 
HETATM   28  C1  UNL     1      28.262   1.560  53.221  1.00  0.00     0.186 C 
HETATM   29  O1  UNL     1      28.468  -0.515  54.858  1.00  0.00    -0.206 OA
HETATM   30  O2  UNL     1      26.687   1.039  55.299  1.00  0.00    -0.206 OA
ENDBRANCH  25  27
ENDBRANCH   1  25
TORSDOF 4
ENDMDL
MODEL 2
REMARK VINA RESULT:      -9.0      7.517     10.535
REMARK  4 active torsions:
REMARK  status: ('A' for Active; 'I' for Inactive)
REMARK    1  A    between atoms: S1_2  and  N1_5 
REMARK    2  A    between atoms: N1_5  and  C2_6 
REMARK    3  A    between atoms: C10_15  and  N3_16 
REMARK    4  A    between atoms: N3_16  and  C11_17 
ROOT
HETATM    1  C2  UNL     1      26.206   0.858  52.351  1.00  0.00     0.043 A 
HETATM    2  C3  UNL     1      25.185   1.270  53.180  1.00  0.00     0.033 A 
HETATM    3  C4  UNL     1      24.461   2.423  52.905  1.00  0.00     0.040 A 
HETATM    4  C5  UNL     1      24.777   3.150  51.793  1.00  0.00     0.086 A 
HETATM    5  C6  UNL     1      25.777   2.805  50.924  1.00  0.00    -0.004 A 
HETATM    6  C7  UNL     1      26.483   1.637  51.235  1.00  0.00     0.041 A 
HETATM    7  C8  UNL     1      26.379   3.316  49.679  1.00  0.00     0.161 C 
HETATM    8  N2  UNL     1      25.861   4.570  49.225  1.00  0.00    -0.379 N 
HETATM    9  C9  UNL     1      25.102   5.580  49.877  1.00  0.00     0.129 A 
HETATM   10  C10 UNL     1      25.333   6.782  49.244  1.00  0.00     0.160 A 
HETATM   11  N4  UNL     1      24.702   7.874  49.706  1.00  0.00    -0.222 NA
HETATM   12  C16 UNL     1      23.881   7.739  50.757  1.00  0.00     0.238 A 
HETATM   13  N5  UNL     1      23.658   6.566  51.374  1.00  0.00    -0.215 NA
HETATM   14  C17 UNL     1      24.259   5.438  50.959  1.00  0.00     0.202 A 
HETATM   15  O3  UNL     1      23.975   4.263  51.651  1.00  0.00    -0.289 OA
HETATM   16  H10 UNL     1      26.087   4.773  48.225  1.00  0.00     0.160 HD
ENDROOT
BRANCH  10  17
HETATM   17  N3  UNL     1      26.194   6.985  48.135  1.00  0.00    -0.339 N 
HETATM   18  H11 UNL     1      26.180   6.983  47.097  1.00  0.00     0.167 HD
BRANCH  17  19
HETATM   19  C11 UNL     1      27.587   7.308  48.296  1.00  0.00     0.031 A 
HETATM   20  C12 UNL     1      28.640   6.532  47.986  1.00  0.00     0.008 A 
HETATM   21  C13 UNL     1      29.970   7.178  48.281  1.00  0.00     0.075 A 
HETATM   22  C14 UNL     1      29.502   8.480  48.823  1.00  0.00    -0.006 A 
HETATM   23 BR1  UNL     1      30.728   9.826  49.411  1.00  0.00    -0.055 Br
HETATM   24  C15 UNL     1      28.165   8.559  48.833  1.00  0.00     0.044 A 
ENDBRANCH  17  19
ENDBRANCH  10  17
BRANCH   1  25
HETATM   25  N1  UNL     1      26.942  -0.310  52.627  1.00  0.00    -0.285 N 
HETATM   26  H4  UNL     1      26.702  -1.132  52.021  1.00  0.00     0.178 HD
BRANCH  25  27
HETATM   27  S1  UNL     1      28.118  -0.287  53.881  1.00  0.00     0.227 S 
HETATM   28  C1  UNL     1      29.068   1.206  53.804  1.00  0.00     0.186 C 
HETATM   29  O1  UNL     1      29.051  -1.444  53.803  1.00  0.00    -0.206 OA
HETATM   30  O2  UNL     1      27.465  -0.352  55.243  1.00  0.00    -0.206 OA
ENDBRANCH  25  27
ENDBRANCH   1  25
TORSDOF 4
ENDMDL
MODEL 3
REMARK VINA RESULT:      -8.8      1.343      1.863
REMARK  4 active torsions:
REMARK  status: ('A' for Active; 'I' for Inactive)
REMARK    1  A    between atoms: S1_2  and  N1_5 
REMARK    2  A    between atoms: N1_5  and  C2_6 
REMARK    3  A    between atoms: C10_15  and  N3_16 
REMARK    4  A    between atoms: N3_16  and  C11_17 
ROOT
HETATM    1  C2  UNL     1      26.393   0.189  52.490  1.00  0.00     0.043 A 
HETATM    2  C3  UNL     1      26.210   1.295  51.688  1.00  0.00     0.033 A 
HETATM    3  C4  UNL     1      24.955   1.872  51.538  1.00  0.00     0.040 A 
HETATM    4  C5  UNL     1      23.895   1.324  52.202  1.00  0.00     0.086 A 
HETATM    5  C6  UNL     1      23.999   0.226  53.015  1.00  0.00    -0.004 A 
HETATM    6  C7  UNL     1      25.279  -0.325  53.140  1.00  0.00     0.041 A 
HETATM    7  C8  UNL     1      23.121  -0.609  53.855  1.00  0.00     0.161 C 
HETATM    8  N2  UNL     1      21.731  -0.272  53.802  1.00  0.00    -0.379 N 
HETATM    9  C9  UNL     1      20.972   0.500  52.880  1.00  0.00     0.129 A 
HETATM   10  C10 UNL     1      19.662   0.076  52.924  1.00  0.00     0.160 A 
HETATM   11  N4  UNL     1      18.770   0.685  52.125  1.00  0.00    -0.222 NA
HETATM   12  C16 UNL     1      19.200   1.673  51.328  1.00  0.00     0.238 A 
HETATM   13  N5  UNL     1      20.478   2.085  51.286  1.00  0.00    -0.215 NA
HETATM   14  C17 UNL     1      21.416   1.516  52.061  1.00  0.00     0.202 A 
HETATM   15  O3  UNL     1      22.719   2.001  51.959  1.00  0.00    -0.289 OA
HETATM   16  H10 UNL     1      21.177  -0.672  54.593  1.00  0.00     0.160 HD
ENDROOT
BRANCH  10  17
HETATM   17  N3  UNL     1      19.153  -0.967  53.740  1.00  0.00    -0.339 N 
HETATM   18  H11 UNL     1      19.351  -1.455  54.635  1.00  0.00     0.167 HD
BRANCH  17  19
HETATM   19  C11 UNL     1      17.982  -1.722  53.378  1.00  0.00     0.031 A 
HETATM   20  C12 UNL     1      16.939  -1.297  52.646  1.00  0.00     0.008 A 
HETATM   21  C13 UNL     1      15.874  -2.347  52.452  1.00  0.00     0.075 A 
HETATM   22  C14 UNL     1      16.488  -3.469  53.207  1.00  0.00    -0.006 A 
HETATM   23 BR1  UNL     1      15.623  -5.169  53.364  1.00  0.00    -0.055 Br
HETATM   24  C15 UNL     1      17.672  -3.124  53.729  1.00  0.00     0.044 A 
ENDBRANCH  17  19
ENDBRANCH  10  17
BRANCH   1  25
HETATM   25  N1  UNL     1      27.663  -0.397  52.643  1.00  0.00    -0.285 N 
HETATM   26  H4  UNL     1      27.847  -1.214  52.013  1.00  0.00     0.178 HD
BRANCH  25  27
HETATM   27  S1  UNL     1      28.755   0.251  53.803  1.00  0.00     0.227 S 
HETATM   28  C1  UNL     1      28.734   2.021  53.744  1.00  0.00     0.186 C 
HETATM   29  O1  UNL     1      30.153  -0.212  53.585  1.00  0.00    -0.206 OA
HETATM   30  O2  UNL     1      28.376  -0.172  55.205  1.00  0.00    -0.206 OA
ENDBRANCH  25  27
ENDBRANCH   1  25
TORSDOF 4
ENDMDL
MODEL 4
REMARK VINA RESULT:      -8.7      5.998      7.927
REMARK  4 active torsions:
REMARK  status: ('A' for Active; 'I' for Inactive)
REMARK    1  A    between atoms: S1_2  and  N1_5 
REMARK    2  A    between atoms: N1_5  and  C2_6 
REMARK    3  A    between atoms: C10_15  and  N3_16 
REMARK    4  A    between atoms: N3_16  and  C11_17 
ROOT
HETATM    1  C2  UNL     1      28.434   6.430  48.109  1.00  0.00     0.043 A 
HETATM    2  C3  UNL     1      27.834   7.600  48.521  1.00  0.00     0.033 A 
HETATM    3  C4  UNL     1      26.678   7.579  49.292  1.00  0.00     0.040 A 
HETATM    4  C5  UNL     1      26.139   6.373  49.638  1.00  0.00     0.086 A 
HETATM    5  C6  UNL     1      26.678   5.170  49.266  1.00  0.00    -0.004 A 
HETATM    6  C7  UNL     1      27.841   5.233  48.492  1.00  0.00     0.041 A 
HETATM    7  C8  UNL     1      26.392   3.734  49.441  1.00  0.00     0.161 C 
HETATM    8  N2  UNL     1      25.176   3.438  50.137  1.00  0.00    -0.379 N 
HETATM    9  C9  UNL     1      24.031   4.226  50.431  1.00  0.00     0.129 A 
HETATM   10  C10 UNL     1      22.950   3.387  50.595  1.00  0.00     0.160 A 
HETATM   11  N4  UNL     1      21.759   3.936  50.886  1.00  0.00    -0.222 NA
HETATM   12  C16 UNL     1      21.683   5.270  51.003  1.00  0.00     0.238 A 
HETATM   13  N5  UNL     1      22.739   6.086  50.843  1.00  0.00    -0.215 NA
HETATM   14  C17 UNL     1      23.956   5.597  50.551  1.00  0.00     0.202 A 
HETATM   15  O3  UNL     1      24.998   6.510  50.401  1.00  0.00    -0.289 OA
HETATM   16  H10 UNL     1      25.132   2.456  50.492  1.00  0.00     0.160 HD
ENDROOT
BRANCH  10  17
HETATM   17  N3  UNL     1      22.969   1.974  50.475  1.00  0.00    -0.339 N 
HETATM   18  H11 UNL     1      22.967   1.230  49.752  1.00  0.00     0.167 HD
BRANCH  17  19
HETATM   19  C11 UNL     1      23.001   1.108  51.625  1.00  0.00     0.031 A 
HETATM   20  C12 UNL     1      24.049   0.871  52.431  1.00  0.00     0.008 A 
HETATM   21  C13 UNL     1      23.741  -0.093  53.549  1.00  0.00     0.075 A 
HETATM   22  C14 UNL     1      22.314  -0.378  53.249  1.00  0.00    -0.006 A 
HETATM   23 BR1  UNL     1      21.277  -1.571  54.326  1.00  0.00    -0.055 Br
HETATM   24  C15 UNL     1      21.894   0.295  52.170  1.00  0.00     0.044 A 
ENDBRANCH  17  19
ENDBRANCH  10  17
BRANCH   1  25
HETATM   25  N1  UNL     1      29.605   6.448  47.329  1.00  0.00    -0.285 N 
HETATM   26  H4  UNL     1      29.522   6.977  46.427  1.00  0.00     0.178 HD
BRANCH  25  27
HETATM   27  S1  UNL     1      31.009   5.633  47.898  1.00  0.00     0.227 S 
HETATM   28  C1  UNL     1      32.469   6.426  47.284  1.00  0.00     0.186 C 
HETATM   29  O1  UNL     1      31.040   4.203  47.487  1.00  0.00    -0.206 OA
HETATM   30  O2  UNL     1      31.073   5.648  49.409  1.00  0.00    -0.206 OA
ENDBRANCH  25  27
ENDBRANCH   1  25
TORSDOF 4
ENDMDL
MODEL 5
REMARK VINA RESULT:      -8.6      6.032      8.146
REMARK  4 active torsions:
REMARK  status: ('A' for Active; 'I' for Inactive)
REMARK    1  A    between atoms: S1_2  and  N1_5 
REMARK    2  A    between atoms: N1_5  and  C2_6 
REMARK    3  A    between atoms: C10_15  and  N3_16 
REMARK    4  A    between atoms: N3_16  and  C11_17 
ROOT
HETATM    1  C2  UNL     1      26.711   7.327  48.468  1.00  0.00     0.043 A 
HETATM    2  C3  UNL     1      27.788   6.521  48.169  1.00  0.00     0.033 A 
HETATM    3  C4  UNL     1      27.822   5.192  48.573  1.00  0.00     0.040 A 
HETATM    4  C5  UNL     1      26.766   4.692  49.279  1.00  0.00     0.086 A 
HETATM    5  C6  UNL     1      25.662   5.431  49.613  1.00  0.00    -0.004 A 
HETATM    6  C7  UNL     1      25.665   6.764  49.187  1.00  0.00     0.041 A 
HETATM    7  C8  UNL     1      24.388   5.244  50.330  1.00  0.00     0.161 C 
HETATM    8  N2  UNL     1      24.216   3.959  50.936  1.00  0.00    -0.379 N 
HETATM    9  C9  UNL     1      25.137   2.924  51.254  1.00  0.00     0.129 A 
HETATM   10  C10 UNL     1      24.620   2.178  52.292  1.00  0.00     0.160 A 
HETATM   11  N4  UNL     1      25.339   1.138  52.746  1.00  0.00    -0.222 NA
HETATM   12  C16 UNL     1      26.520   0.880  52.167  1.00  0.00     0.238 A 
HETATM   13  N5  UNL     1      27.023   1.609  51.156  1.00  0.00    -0.215 NA
HETATM   14  C17 UNL     1      26.351   2.660  50.658  1.00  0.00     0.202 A 
HETATM   15  O3  UNL     1      26.940   3.364  49.610  1.00  0.00    -0.289 OA
HETATM   16  H10 UNL     1      23.223   3.750  51.188  1.00  0.00     0.160 HD
ENDROOT
BRANCH  10  17
HETATM   17  N3  UNL     1      23.383   2.410  52.946  1.00  0.00    -0.339 N 
HETATM   18  H11 UNL     1      22.908   3.118  53.538  1.00  0.00     0.167 HD
BRANCH  17  19
HETATM   19  C11 UNL     1      22.297   1.466  52.890  1.00  0.00     0.031 A 
HETATM   20  C12 UNL     1      22.170   0.335  53.604  1.00  0.00     0.008 A 
HETATM   21  C13 UNL     1      20.906  -0.428  53.302  1.00  0.00     0.075 A 
HETATM   22  C14 UNL     1      20.313   0.467  52.274  1.00  0.00    -0.006 A 
HETATM   23 BR1  UNL     1      18.637   0.071  51.439  1.00  0.00    -0.055 Br
HETATM   24  C15 UNL     1      21.090   1.532  52.039  1.00  0.00     0.044 A 
ENDBRANCH  17  19
ENDBRANCH  10  17
BRANCH   1  25
HETATM   25  N1  UNL     1      26.674   8.674  48.059  1.00  0.00    -0.285 N 
HETATM   26  H4  UNL     1      26.218   8.837  47.129  1.00  0.00     0.178 HD
BRANCH  25  27
HETATM   27  S1  UNL     1      27.353   9.882  49.077  1.00  0.00     0.227 S 
HETATM   28  C1  UNL     1      29.061  10.130  48.679  1.00  0.00     0.186 C 
HETATM   29  O1  UNL     1      27.251   9.529  50.520  1.00  0.00    -0.206 OA
HETATM   30  O2  UNL     1      26.639  11.204  48.906  1.00  0.00    -0.206 OA
ENDBRANCH  25  27
ENDBRANCH   1  25
TORSDOF 4
ENDMDL
MODEL 6
REMARK VINA RESULT:      -8.5      6.936      9.854
REMARK  4 active torsions:
REMARK  status: ('A' for Active; 'I' for Inactive)
REMARK    1  A    between atoms: S1_2  and  N1_5 
REMARK    2  A    between atoms: N1_5  and  C2_6 
REMARK    3  A    between atoms: C10_15  and  N3_16 
REMARK    4  A    between atoms: N3_16  and  C11_17 
ROOT
HETATM    1  C2  UNL     1      26.252   0.751  52.310  1.00  0.00     0.043 A 
HETATM    2  C3  UNL     1      25.038   0.716  52.962  1.00  0.00     0.033 A 
HETATM    3  C4  UNL     1      24.025   1.609  52.639  1.00  0.00     0.040 A 
HETATM    4  C5  UNL     1      24.250   2.533  51.658  1.00  0.00     0.086 A 
HETATM    5  C6  UNL     1      25.429   2.630  50.967  1.00  0.00    -0.004 A 
HETATM    6  C7  UNL     1      26.424   1.712  51.322  1.00  0.00     0.041 A 
HETATM    7  C8  UNL     1      26.012   3.457  49.895  1.00  0.00     0.161 C 
HETATM    8  N2  UNL     1      25.184   4.533  49.442  1.00  0.00    -0.379 N 
HETATM    9  C9  UNL     1      24.045   5.164  50.010  1.00  0.00     0.129 A 
HETATM   10  C10 UNL     1      23.960   6.448  49.516  1.00  0.00     0.160 A 
HETATM   11  N4  UNL     1      22.942   7.221  49.928  1.00  0.00    -0.222 NA
HETATM   12  C16 UNL     1      22.061   6.704  50.797  1.00  0.00     0.238 A 
HETATM   13  N5  UNL     1      22.146   5.452  51.278  1.00  0.00    -0.215 NA
HETATM   14  C17 UNL     1      23.141   4.631  50.904  1.00  0.00     0.202 A 
HETATM   15  O3  UNL     1      23.158   3.349  51.448  1.00  0.00    -0.289 OA
HETATM   16  H10 UNL     1      25.481   4.921  48.517  1.00  0.00     0.160 HD
ENDROOT
BRANCH  10  17
HETATM   17  N3  UNL     1      24.865   7.048  48.604  1.00  0.00    -0.339 N 
HETATM   18  H11 UNL     1      25.021   7.159  47.583  1.00  0.00     0.167 HD
BRANCH  17  19
HETATM   19  C11 UNL     1      26.016   7.794  49.043  1.00  0.00     0.031 A 
HETATM   20  C12 UNL     1      26.052   8.736  50.001  1.00  0.00     0.008 A 
HETATM   21  C13 UNL     1      27.425   9.322  50.214  1.00  0.00     0.075 A 
HETATM   22  C14 UNL     1      28.189   8.548  49.202  1.00  0.00    -0.006 A 
HETATM   23 BR1  UNL     1      30.066   8.809  48.940  1.00  0.00    -0.055 Br
HETATM   24  C15 UNL     1      27.402   7.688  48.542  1.00  0.00     0.044 A 
ENDBRANCH  17  19
ENDBRANCH  10  17
BRANCH   1  25
HETATM   25  N1  UNL     1      27.280  -0.153  52.636  1.00  0.00    -0.285 N 
HETATM   26  H4  UNL     1      27.178  -1.105  52.208  1.00  0.00     0.178 HD
BRANCH  25  27
HETATM   27  S1  UNL     1      28.559   0.361  53.664  1.00  0.00     0.227 S 
HETATM   28  C1  UNL     1      29.865  -0.837  53.665  1.00  0.00     0.186 C 
HETATM   29  O1  UNL     1      28.109   0.568  55.067  1.00  0.00    -0.206 OA
HETATM   30  O2  UNL     1      29.137   1.678  53.199  1.00  0.00    -0.206 OA
ENDBRANCH  25  27
ENDBRANCH   1  25
TORSDOF 4
ENDMDL
MODEL 7
REMARK VINA RESULT:      -8.2      2.179      2.783
REMARK  4 active torsions:
REMARK  status: ('A' for Active; 'I' for Inactive)
REMARK    1  A    between atoms: S1_2  and  N1_5 
REMARK    2  A    between atoms: N1_5  and  C2_6 
REMARK    3  A    between atoms: C10_15  and  N3_16 
REMARK    4  A    between atoms: N3_16  and  C11_17 
ROOT
HETATM    1  C2  UNL     1      26.232   0.540  52.583  1.00  0.00     0.043 A 
HETATM    2  C3  UNL     1      26.242   1.909  52.424  1.00  0.00     0.033 A 
HETATM    3  C4  UNL     1      25.063   2.643  52.458  1.00  0.00     0.040 A 
HETATM    4  C5  UNL     1      23.882   1.984  52.652  1.00  0.00     0.086 A 
HETATM    5  C6  UNL     1      23.793   0.627  52.817  1.00  0.00    -0.004 A 
HETATM    6  C7  UNL     1      25.002  -0.076  52.777  1.00  0.00     0.041 A 
HETATM    7  C8  UNL     1      22.748  -0.389  53.039  1.00  0.00     0.161 C 
HETATM    8  N2  UNL     1      21.406   0.108  53.023  1.00  0.00    -0.379 N 
HETATM    9  C9  UNL     1      20.845   1.321  52.538  1.00  0.00     0.129 A 
HETATM   10  C10 UNL     1      19.518   1.102  52.234  1.00  0.00     0.160 A 
HETATM   11  N4  UNL     1      18.797   2.131  51.761  1.00  0.00    -0.222 NA
HETATM   12  C16 UNL     1      19.403   3.317  51.608  1.00  0.00     0.238 A 
HETATM   13  N5  UNL     1      20.697   3.529  51.903  1.00  0.00    -0.215 NA
HETATM   14  C17 UNL     1      21.470   2.539  52.381  1.00  0.00     0.202 A 
HETATM   15  O3  UNL     1      22.801   2.840  52.663  1.00  0.00    -0.289 OA
HETATM   16  H10 UNL     1      20.716  -0.550  53.450  1.00  0.00     0.160 HD
ENDROOT
BRANCH  10  17
HETATM   17  N3  UNL     1      18.828  -0.130  52.368  1.00  0.00    -0.339 N 
HETATM   18  H11 UNL     1      18.891  -1.034  52.875  1.00  0.00     0.167 HD
BRANCH  17  19
HETATM   19  C11 UNL     1      17.618  -0.414  51.642  1.00  0.00     0.031 A 
HETATM   20  C12 UNL     1      16.483  -0.940  52.133  1.00  0.00     0.008 A 
HETATM   21  C13 UNL     1      15.401  -1.107  51.097  1.00  0.00     0.075 A 
HETATM   22  C14 UNL     1      16.113  -0.580  49.903  1.00  0.00    -0.006 A 
HETATM   23 BR1  UNL     1      15.276  -0.504  48.184  1.00  0.00    -0.055 Br
HETATM   24  C15 UNL     1      17.358  -0.189  50.204  1.00  0.00     0.044 A 
ENDBRANCH  17  19
ENDBRANCH  10  17
BRANCH   1  25
HETATM   25  N1  UNL     1      27.425  -0.206  52.549  1.00  0.00    -0.285 N 
HETATM   26  H4  UNL     1      27.532  -0.822  51.708  1.00  0.00     0.178 HD
BRANCH  25  27
HETATM   27  S1  UNL     1      28.554  -0.047  53.837  1.00  0.00     0.227 S 
HETATM   28  C1  UNL     1      29.878  -1.208  53.639  1.00  0.00     0.186 C 
HETATM   29  O1  UNL     1      27.928  -0.268  55.169  1.00  0.00    -0.206 OA
HETATM   30  O2  UNL     1      29.154   1.341  53.869  1.00  0.00    -0.206 OA
ENDBRANCH  25  27
ENDBRANCH   1  25
TORSDOF 4
ENDMDL
MODEL 8
REMARK VINA RESULT:      -8.2      3.520      4.605
REMARK  4 active torsions:
REMARK  status: ('A' for Active; 'I' for Inactive)
REMARK    1  A    between atoms: S1_2  and  N1_5 
REMARK    2  A    between atoms: N1_5  and  C2_6 
REMARK    3  A    between atoms: C10_15  and  N3_16 
REMARK    4  A    between atoms: N3_16  and  C11_17 
ROOT
HETATM    1  C2  UNL     1      25.986   2.190  53.011  1.00  0.00     0.043 A 
HETATM    2  C3  UNL     1      26.650   2.353  51.814  1.00  0.00     0.033 A 
HETATM    3  C4  UNL     1      25.971   2.739  50.665  1.00  0.00     0.040 A 
HETATM    4  C5  UNL     1      24.624   2.954  50.737  1.00  0.00     0.086 A 
HETATM    5  C6  UNL     1      23.897   2.812  51.889  1.00  0.00    -0.004 A 
HETATM    6  C7  UNL     1      24.617   2.424  53.024  1.00  0.00     0.041 A 
HETATM    7  C8  UNL     1      22.498   2.951  52.331  1.00  0.00     0.161 C 
HETATM    8  N2  UNL     1      21.561   3.259  51.293  1.00  0.00    -0.379 N 
HETATM    9  C9  UNL     1      21.641   3.161  49.878  1.00  0.00     0.129 A 
HETATM   10  C10 UNL     1      20.366   3.024  49.373  1.00  0.00     0.160 A 
HETATM   11  N4  UNL     1      20.218   2.919  48.042  1.00  0.00    -0.222 NA
HETATM   12  C16 UNL     1      21.316   2.953  47.274  1.00  0.00     0.238 A 
HETATM   13  N5  UNL     1      22.559   3.086  47.768  1.00  0.00    -0.215 NA
HETATM   14  C17 UNL     1      22.772   3.196  49.091  1.00  0.00     0.202 A 
HETATM   15  O3  UNL     1      24.090   3.331  49.522  1.00  0.00    -0.289 OA
HETATM   16  H10 UNL     1      20.650   3.623  51.654  1.00  0.00     0.160 HD
ENDROOT
BRANCH  10  17
HETATM   17  N3  UNL     1      19.171   2.974  50.136  1.00  0.00    -0.339 N 
HETATM   18  H11 UNL     1      18.476   3.604  50.581  1.00  0.00     0.167 HD
BRANCH  17  19
HETATM   19  C11 UNL     1      18.563   1.729  50.527  1.00  0.00     0.031 A 
HETATM   20  C12 UNL     1      17.686   0.998  49.818  1.00  0.00     0.008 A 
HETATM   21  C13 UNL     1      17.244  -0.259  50.522  1.00  0.00     0.075 A 
HETATM   22  C14 UNL     1      18.025  -0.131  51.779  1.00  0.00    -0.006 A 
HETATM   23 BR1  UNL     1      17.925  -1.445  53.166  1.00  0.00    -0.055 Br
HETATM   24  C15 UNL     1      18.768   0.983  51.787  1.00  0.00     0.044 A 
ENDBRANCH  17  19
ENDBRANCH  10  17
BRANCH   1  25
HETATM   25  N1  UNL     1      26.671   1.800  54.177  1.00  0.00    -0.285 N 
HETATM   26  H4  UNL     1      26.889   2.583  54.839  1.00  0.00     0.178 HD
BRANCH  25  27
HETATM   27  S1  UNL     1      27.076   0.144  54.401  1.00  0.00     0.227 S 
HETATM   28  C1  UNL     1      28.820  -0.032  54.660  1.00  0.00     0.186 C 
HETATM   29  O1  UNL     1      26.685  -0.697  53.237  1.00  0.00    -0.206 OA
HETATM   30  O2  UNL     1      26.367  -0.433  55.606  1.00  0.00    -0.206 OA
ENDBRANCH  25  27
ENDBRANCH   1  25
TORSDOF 4
ENDMDL
MODEL 9
REMARK VINA RESULT:      -8.2      4.600      6.692
REMARK  4 active torsions:
REMARK  status: ('A' for Active; 'I' for Inactive)
REMARK    1  A    between atoms: S1_2  and  N1_5 
REMARK    2  A    between atoms: N1_5  and  C2_6 
REMARK    3  A    between atoms: C10_15  and  N3_16 
REMARK    4  A    between atoms: N3_16  and  C11_17 
ROOT
HETATM    1  C2  UNL     1      26.251   0.796  54.190  1.00  0.00     0.043 A 
HETATM    2  C3  UNL     1      25.705  -0.440  53.922  1.00  0.00     0.033 A 
HETATM    3  C4  UNL     1      24.524  -0.561  53.201  1.00  0.00     0.040 A 
HETATM    4  C5  UNL     1      23.905   0.573  52.757  1.00  0.00     0.086 A 
HETATM    5  C6  UNL     1      24.386   1.835  52.985  1.00  0.00    -0.004 A 
HETATM    6  C7  UNL     1      25.578   1.914  53.714  1.00  0.00     0.041 A 
HETATM    7  C8  UNL     1      24.012   3.227  52.678  1.00  0.00     0.161 C 
HETATM    8  N2  UNL     1      22.758   3.385  52.006  1.00  0.00    -0.379 N 
HETATM    9  C9  UNL     1      21.650   2.510  51.838  1.00  0.00     0.129 A 
HETATM   10  C10 UNL     1      20.518   3.269  51.636  1.00  0.00     0.160 A 
HETATM   11  N4  UNL     1      19.351   2.630  51.449  1.00  0.00    -0.222 NA
HETATM   12  C16 UNL     1      19.348   1.289  51.469  1.00  0.00     0.238 A 
HETATM   13  N5  UNL     1      20.454   0.551  51.668  1.00  0.00    -0.215 NA
HETATM   14  C17 UNL     1      21.650   1.132  51.860  1.00  0.00     0.202 A 
HETATM   15  O3  UNL     1      22.748   0.297  52.059  1.00  0.00    -0.289 OA
HETATM   16  H10 UNL     1      22.645   4.322  51.556  1.00  0.00     0.160 HD
ENDROOT
BRANCH  10  17
HETATM   17  N3  UNL     1      20.460   4.686  51.612  1.00  0.00    -0.339 N 
HETATM   18  H11 UNL     1      20.189   5.488  52.212  1.00  0.00     0.167 HD
BRANCH  17  19
HETATM   19  C11 UNL     1      20.866   5.450  50.461  1.00  0.00     0.031 A 
HETATM   20  C12 UNL     1      20.979   5.012  49.196  1.00  0.00     0.008 A 
HETATM   21  C13 UNL     1      21.430   6.077  48.229  1.00  0.00     0.075 A 
HETATM   22  C14 UNL     1      21.561   7.225  49.164  1.00  0.00    -0.006 A 
HETATM   23 BR1  UNL     1      22.118   8.954  48.563  1.00  0.00    -0.055 Br
HETATM   24  C15 UNL     1      21.245   6.878  50.418  1.00  0.00     0.044 A 
ENDBRANCH  17  19
ENDBRANCH  10  17
BRANCH   1  25
HETATM   25  N1  UNL     1      27.448   0.921  54.920  1.00  0.00    -0.285 N 
HETATM   26  H4  UNL     1      27.362   0.704  55.943  1.00  0.00     0.178 HD
BRANCH  25  27
HETATM   27  S1  UNL     1      28.885   1.400  54.106  1.00  0.00     0.227 S 
HETATM   28  C1  UNL     1      29.871  -0.019  53.717  1.00  0.00     0.186 C 
HETATM   29  O1  UNL     1      29.709   2.339  54.916  1.00  0.00    -0.206 OA
HETATM   30  O2  UNL     1      28.567   2.114  52.812  1.00  0.00    -0.206 OA
ENDBRANCH  25  27
ENDBRANCH   1  25
TORSDOF 4
ENDMDL
