MODEL 1
REMARK VINA RESULT:      -7.6      0.000      0.000
REMARK  9 active torsions:
REMARK  status: ('A' for Active; 'I' for Inactive)
REMARK    1  A    between atoms: C5_6  and  N1_7 
REMARK    2  A    between atoms: N1_7  and  C6_8 
REMARK    3  A    between atoms: C10_14  and  C11_15 
REMARK    4  A    between atoms: C11_15  and  C12_16 
REMARK    5  A    between atoms: C11_15  and  O2_22 
REMARK    6  A    between atoms: C12_16  and  O1_17 
REMARK    7  A    between atoms: O1_17  and  C13_18 
REMARK    8  A    between atoms: C13_18  and  C14_19 
REMARK    9  A    between atoms: C14_19  and  N4_20 
ROOT
HETATM    1  C6  UNL     1      26.946   0.022  53.978  1.00  0.00     0.143 A 
HETATM    2  N2  UNL     1      27.976  -0.057  54.838  1.00  0.00    -0.223 NA
HETATM    3  C7  UNL     1      28.955   0.862  54.905  1.00  0.00     0.236 A 
HETATM    4  N3  UNL     1      28.898   1.931  54.055  1.00  0.00    -0.240 NA
HETATM    5  C8  UNL     1      27.863   1.991  53.206  1.00  0.00     0.087 A 
HETATM    6  C9  UNL     1      26.835   1.078  53.096  1.00  0.00     0.055 A 
HETATM    7  C10 UNL     1      26.819   2.257  52.194  1.00  0.00     0.042 A 
ENDROOT
BRANCH   1   8
HETATM    8  N1  UNL     1      25.956  -0.998  53.981  1.00  0.00    -0.338 N 
HETATM    9  H4  UNL     1      26.220  -1.999  54.133  1.00  0.00     0.167 HD
BRANCH   8  10
HETATM   10  C5  UNL     1      24.582  -0.691  53.779  1.00  0.00     0.075 A 
HETATM   11  C4  UNL     1      23.912  -0.148  52.604  1.00  0.00     0.057 A 
HETATM   12  C3  UNL     1      22.610   0.006  52.783  1.00  0.00     0.048 A 
HETATM   13  C2  UNL     1      22.324  -0.442  54.139  1.00  0.00     0.017 A 
HETATM   14 CL1  UNL     1      21.443   0.623  51.634  1.00  0.00    -0.083 Cl
HETATM   15  C1  UNL     1      21.151  -0.476  54.773  1.00  0.00     0.028 C 
HETATM   16  C17 UNL     1      23.618  -0.849  54.658  1.00  0.00     0.154 A 
HETATM   17  F1  UNL     1      23.786  -1.342  55.926  1.00  0.00    -0.203 F 
ENDBRANCH   8  10
ENDBRANCH   1   8
BRANCH   7  18
HETATM   18  C11 UNL     1      26.097   2.805  51.219  1.00  0.00     0.083 C 
BRANCH  18  19
HETATM   19  C12 UNL     1      24.667   3.156  51.343  1.00  0.00     0.233 C 
BRANCH  19  20
HETATM   20  O1  UNL     1      24.250   3.499  52.604  1.00  0.00    -0.383 OA
BRANCH  20  21
HETATM   21  C13 UNL     1      23.577   4.690  52.684  1.00  0.00     0.198 C 
BRANCH  21  22
HETATM   22  C14 UNL     1      23.829   5.522  51.428  1.00  0.00     0.295 C 
BRANCH  22  23
HETATM   23  N4  UNL     1      24.274   6.834  51.850  1.00  0.00     0.081 N 
HETATM   24  C15 UNL     1      23.923   7.840  50.865  1.00  0.00     0.306 C 
HETATM   25  H12 UNL     1      25.297   6.813  52.013  1.00  0.00     0.315 HD
ENDBRANCH  22  23
ENDBRANCH  21  22
ENDBRANCH  20  21
ENDBRANCH  19  20
ENDBRANCH  18  19
BRANCH  18  26
HETATM   26  O2  UNL     1      26.907   2.970  50.135  1.00  0.00    -0.357 OA
HETATM   27  C16 UNL     1      26.709   4.145  49.332  1.00  0.00     0.209 C 
ENDBRANCH  18  26
ENDBRANCH   7  18
TORSDOF 9
ENDMDL
MODEL 2
REMARK VINA RESULT:      -7.4      2.971      5.995
REMARK  9 active torsions:
REMARK  status: ('A' for Active; 'I' for Inactive)
REMARK    1  A    between atoms: C5_6  and  N1_7 
REMARK    2  A    between atoms: N1_7  and  C6_8 
REMARK    3  A    between atoms: C10_14  and  C11_15 
REMARK    4  A    between atoms: C11_15  and  C12_16 
REMARK    5  A    between atoms: C11_15  and  O2_22 
REMARK    6  A    between atoms: C12_16  and  O1_17 
REMARK    7  A    between atoms: O1_17  and  C13_18 
REMARK    8  A    between atoms: C13_18  and  C14_19 
REMARK    9  A    between atoms: C14_19  and  N4_20 
ROOT
HETATM    1  C6  UNL     1      21.758  -0.158  52.788  1.00  0.00     0.143 A 
HETATM    2  N2  UNL     1      20.784  -0.815  53.442  1.00  0.00    -0.223 NA
HETATM    3  C7  UNL     1      20.993  -1.515  54.571  1.00  0.00     0.236 A 
HETATM    4  N3  UNL     1      22.261  -1.560  55.078  1.00  0.00    -0.240 NA
HETATM    5  C8  UNL     1      23.217  -0.898  54.412  1.00  0.00     0.087 A 
HETATM    6  C9  UNL     1      23.058  -0.167  53.254  1.00  0.00     0.055 A 
HETATM    7  C10 UNL     1      24.417  -0.246  53.845  1.00  0.00     0.042 A 
ENDROOT
BRANCH   1   8
HETATM    8  N1  UNL     1      21.442   0.557  51.601  1.00  0.00    -0.338 N 
HETATM    9  H4  UNL     1      20.752   0.174  50.914  1.00  0.00     0.167 HD
BRANCH   8  10
HETATM   10  C5  UNL     1      22.048   1.810  51.313  1.00  0.00     0.075 A 
HETATM   11  C4  UNL     1      23.137   2.130  50.398  1.00  0.00     0.057 A 
HETATM   12  C3  UNL     1      23.438   3.418  50.391  1.00  0.00     0.048 A 
HETATM   13  C2  UNL     1      22.534   4.059  51.336  1.00  0.00     0.017 A 
HETATM   14 CL1  UNL     1      24.672   4.217  49.442  1.00  0.00    -0.083 Cl
HETATM   15  C1  UNL     1      22.458   5.347  51.670  1.00  0.00     0.028 C 
HETATM   16  C17 UNL     1      21.722   2.967  51.845  1.00  0.00     0.154 A 
HETATM   17  F1  UNL     1      20.732   3.151  52.775  1.00  0.00    -0.203 F 
ENDBRANCH   8  10
ENDBRANCH   1   8
BRANCH   7  18
HETATM   18  C11 UNL     1      25.662   0.176  53.638  1.00  0.00     0.083 C 
BRANCH  18  19
HETATM   19  C12 UNL     1      26.022   1.575  53.325  1.00  0.00     0.233 C 
BRANCH  19  20
HETATM   20  O1  UNL     1      26.973   2.136  54.139  1.00  0.00    -0.383 OA
BRANCH  20  21
HETATM   21  C13 UNL     1      28.227   2.213  53.590  1.00  0.00     0.198 C 
BRANCH  21  22
HETATM   22  C14 UNL     1      29.200   1.339  54.378  1.00  0.00     0.295 C 
BRANCH  22  23
HETATM   23  N4  UNL     1      30.025   0.627  53.424  1.00  0.00     0.081 N 
HETATM   24  C15 UNL     1      30.043  -0.794  53.717  1.00  0.00     0.306 C 
HETATM   25  H12 UNL     1      30.982   1.022  53.436  1.00  0.00     0.315 HD
ENDBRANCH  22  23
ENDBRANCH  21  22
ENDBRANCH  20  21
ENDBRANCH  19  20
ENDBRANCH  18  19
BRANCH  18  26
HETATM   26  O2  UNL     1      26.498  -0.893  53.770  1.00  0.00    -0.357 OA
HETATM   27  C16 UNL     1      26.665  -1.750  52.629  1.00  0.00     0.209 C 
ENDBRANCH  18  26
ENDBRANCH   7  18
TORSDOF 9
ENDMDL
MODEL 3
REMARK VINA RESULT:      -7.3      3.946      6.856
REMARK  9 active torsions:
REMARK  status: ('A' for Active; 'I' for Inactive)
REMARK    1  A    between atoms: C5_6  and  N1_7 
REMARK    2  A    between atoms: N1_7  and  C6_8 
REMARK    3  A    between atoms: C10_14  and  C11_15 
REMARK    4  A    between atoms: C11_15  and  C12_16 
REMARK    5  A    between atoms: C11_15  and  O2_22 
REMARK    6  A    between atoms: C12_16  and  O1_17 
REMARK    7  A    between atoms: O1_17  and  C13_18 
REMARK    8  A    between atoms: C13_18  and  C14_19 
REMARK    9  A    between atoms: C14_19  and  N4_20 
ROOT
HETATM    1  C6  UNL     1      23.632  -0.029  53.459  1.00  0.00     0.143 A 
HETATM    2  N2  UNL     1      23.972  -0.823  54.490  1.00  0.00    -0.223 NA
HETATM    3  C7  UNL     1      23.076  -1.359  55.337  1.00  0.00     0.236 A 
HETATM    4  N3  UNL     1      21.753  -1.082  55.139  1.00  0.00    -0.240 NA
HETATM    5  C8  UNL     1      21.435  -0.289  54.106  1.00  0.00     0.087 A 
HETATM    6  C9  UNL     1      22.311   0.285  53.210  1.00  0.00     0.055 A 
HETATM    7  C10 UNL     1      20.862   0.556  53.037  1.00  0.00     0.042 A 
ENDROOT
BRANCH   1   8
HETATM    8  N1  UNL     1      24.650   0.491  52.615  1.00  0.00    -0.338 N 
HETATM    9  H4  UNL     1      24.411   0.932  51.697  1.00  0.00     0.167 HD
BRANCH   8  10
HETATM   10  C5  UNL     1      26.020   0.431  52.991  1.00  0.00     0.075 A 
HETATM   11  C4  UNL     1      26.863   1.450  53.604  1.00  0.00     0.057 A 
HETATM   12  C3  UNL     1      28.101   1.033  53.814  1.00  0.00     0.048 A 
HETATM   13  C2  UNL     1      28.160  -0.342  53.335  1.00  0.00     0.017 A 
HETATM   14 CL1  UNL     1      29.423   1.933  54.524  1.00  0.00    -0.083 Cl
HETATM   15  C1  UNL     1      29.198  -1.178  53.336  1.00  0.00     0.028 C 
HETATM   16  C17 UNL     1      26.816  -0.604  52.849  1.00  0.00     0.154 A 
HETATM   17  F1  UNL     1      26.447  -1.809  52.308  1.00  0.00    -0.203 F 
ENDBRANCH   8  10
ENDBRANCH   1   8
BRANCH   7  18
HETATM   18  C11 UNL     1      20.019   1.221  52.250  1.00  0.00     0.083 C 
BRANCH  18  19
HETATM   19  C12 UNL     1      19.329   0.628  51.085  1.00  0.00     0.233 C 
BRANCH  19  20
HETATM   20  O1  UNL     1      18.427  -0.363  51.375  1.00  0.00    -0.383 OA
BRANCH  20  21
HETATM   21  C13 UNL     1      17.250   0.074  51.926  1.00  0.00     0.198 C 
BRANCH  21  22
HETATM   22  C14 UNL     1      16.630  -1.027  52.785  1.00  0.00     0.295 C 
BRANCH  22  23
HETATM   23  N4  UNL     1      17.633  -1.460  53.736  1.00  0.00     0.081 N 
HETATM   24  C15 UNL     1      17.740  -2.907  53.750  1.00  0.00     0.306 C 
HETATM   25  H12 UNL     1      17.396  -1.094  54.675  1.00  0.00     0.315 HD
ENDBRANCH  22  23
ENDBRANCH  21  22
ENDBRANCH  20  21
ENDBRANCH  19  20
ENDBRANCH  18  19
BRANCH  18  26
HETATM   26  O2  UNL     1      19.925   2.499  52.715  1.00  0.00    -0.357 OA
HETATM   27  C16 UNL     1      19.648   3.535  51.759  1.00  0.00     0.209 C 
ENDBRANCH  18  26
ENDBRANCH   7  18
TORSDOF 9
ENDMDL
MODEL 4
REMARK VINA RESULT:      -7.3      2.952      5.267
REMARK  9 active torsions:
REMARK  status: ('A' for Active; 'I' for Inactive)
REMARK    1  A    between atoms: C5_6  and  N1_7 
REMARK    2  A    between atoms: N1_7  and  C6_8 
REMARK    3  A    between atoms: C10_14  and  C11_15 
REMARK    4  A    between atoms: C11_15  and  C12_16 
REMARK    5  A    between atoms: C11_15  and  O2_22 
REMARK    6  A    between atoms: C12_16  and  O1_17 
REMARK    7  A    between atoms: O1_17  and  C13_18 
REMARK    8  A    between atoms: C13_18  and  C14_19 
REMARK    9  A    between atoms: C14_19  and  N4_20 
ROOT
HETATM    1  C6  UNL     1      23.506   0.065  53.389  1.00  0.00     0.143 A 
HETATM    2  N2  UNL     1      23.675  -0.889  54.321  1.00  0.00    -0.223 NA
HETATM    3  C7  UNL     1      22.695  -1.302  55.143  1.00  0.00     0.236 A 
HETATM    4  N3  UNL     1      21.464  -0.721  55.023  1.00  0.00    -0.240 NA
HETATM    5  C8  UNL     1      21.315   0.227  54.088  1.00  0.00     0.087 A 
HETATM    6  C9  UNL     1      22.285   0.686  53.222  1.00  0.00     0.055 A 
HETATM    7  C10 UNL     1      20.930   1.286  53.131  1.00  0.00     0.042 A 
ENDROOT
BRANCH   1   8
HETATM    8  N1  UNL     1      24.602   0.435  52.564  1.00  0.00    -0.338 N 
HETATM    9  H4  UNL     1      24.444   0.903  51.642  1.00  0.00     0.167 HD
BRANCH   8  10
HETATM   10  C5  UNL     1      25.943   0.184  52.965  1.00  0.00     0.075 A 
HETATM   11  C4  UNL     1      26.785  -0.981  52.723  1.00  0.00     0.057 A 
HETATM   12  C3  UNL     1      27.991  -0.860  53.253  1.00  0.00     0.048 A 
HETATM   13  C2  UNL     1      28.028   0.442  53.904  1.00  0.00     0.017 A 
HETATM   14 CL1  UNL     1      29.301  -2.020  53.195  1.00  0.00    -0.083 Cl
HETATM   15  C1  UNL     1      29.032   1.009  54.573  1.00  0.00     0.028 C 
HETATM   16  C17 UNL     1      26.707   0.996  53.660  1.00  0.00     0.154 A 
HETATM   17  F1  UNL     1      26.327   2.232  54.116  1.00  0.00    -0.203 F 
ENDBRANCH   8  10
ENDBRANCH   1   8
BRANCH   7  18
HETATM   18  C11 UNL     1      20.245   2.199  52.447  1.00  0.00     0.083 C 
BRANCH  18  19
HETATM   19  C12 UNL     1      20.700   3.590  52.236  1.00  0.00     0.233 C 
BRANCH  19  20
HETATM   20  O1  UNL     1      22.002   3.730  51.827  1.00  0.00    -0.383 OA
BRANCH  20  21
HETATM   21  C13 UNL     1      22.682   4.763  52.418  1.00  0.00     0.198 C 
BRANCH  21  22
HETATM   22  C14 UNL     1      23.752   5.299  51.470  1.00  0.00     0.295 C 
BRANCH  22  23
HETATM   23  N4  UNL     1      24.175   6.592  51.968  1.00  0.00     0.081 N 
HETATM   24  C15 UNL     1      23.996   7.618  50.957  1.00  0.00     0.306 C 
HETATM   25  H12 UNL     1      25.163   6.536  52.272  1.00  0.00     0.315 HD
ENDBRANCH  22  23
ENDBRANCH  21  22
ENDBRANCH  20  21
ENDBRANCH  19  20
ENDBRANCH  18  19
BRANCH  18  26
HETATM   26  O2  UNL     1      19.095   1.620  52.001  1.00  0.00    -0.357 OA
HETATM   27  C16 UNL     1      19.205   0.655  50.942  1.00  0.00     0.209 C 
ENDBRANCH  18  26
ENDBRANCH   7  18
TORSDOF 9
ENDMDL
MODEL 5
REMARK VINA RESULT:      -7.2      3.330      5.028
REMARK  9 active torsions:
REMARK  status: ('A' for Active; 'I' for Inactive)
REMARK    1  A    between atoms: C5_6  and  N1_7 
REMARK    2  A    between atoms: N1_7  and  C6_8 
REMARK    3  A    between atoms: C10_14  and  C11_15 
REMARK    4  A    between atoms: C11_15  and  C12_16 
REMARK    5  A    between atoms: C11_15  and  O2_22 
REMARK    6  A    between atoms: C12_16  and  O1_17 
REMARK    7  A    between atoms: O1_17  and  C13_18 
REMARK    8  A    between atoms: C13_18  and  C14_19 
REMARK    9  A    between atoms: C14_19  and  N4_20 
ROOT
HETATM    1  C6  UNL     1      25.070   2.815  51.420  1.00  0.00     0.143 A 
HETATM    2  N2  UNL     1      23.929   2.116  51.289  1.00  0.00    -0.223 NA
HETATM    3  C7  UNL     1      23.126   2.207  50.214  1.00  0.00     0.236 A 
HETATM    4  N3  UNL     1      23.491   3.052  49.204  1.00  0.00    -0.240 NA
HETATM    5  C8  UNL     1      24.633   3.738  49.354  1.00  0.00     0.087 A 
HETATM    6  C9  UNL     1      25.490   3.683  50.432  1.00  0.00     0.055 A 
HETATM    7  C10 UNL     1      25.842   4.587  49.309  1.00  0.00     0.042 A 
ENDROOT
BRANCH   1   8
HETATM    8  N1  UNL     1      25.855   2.653  52.594  1.00  0.00    -0.338 N 
HETATM    9  H4  UNL     1      25.840   3.373  53.352  1.00  0.00     0.167 HD
BRANCH   8  10
HETATM   10  C5  UNL     1      26.682   1.510  52.775  1.00  0.00     0.075 A 
HETATM   11  C4  UNL     1      26.385   0.100  52.550  1.00  0.00     0.057 A 
HETATM   12  C3  UNL     1      27.408  -0.689  52.829  1.00  0.00     0.048 A 
HETATM   13  C2  UNL     1      28.491   0.178  53.272  1.00  0.00     0.017 A 
HETATM   14 CL1  UNL     1      27.474  -2.433  52.698  1.00  0.00    -0.083 Cl
HETATM   15  C1  UNL     1      29.721  -0.159  53.659  1.00  0.00     0.028 C 
HETATM   16  C17 UNL     1      27.926   1.514  53.198  1.00  0.00     0.154 A 
HETATM   17  F1  UNL     1      28.635   2.638  53.536  1.00  0.00    -0.203 F 
ENDBRANCH   8  10
ENDBRANCH   1   8
BRANCH   7  18
HETATM   18  C11 UNL     1      26.781   5.451  48.930  1.00  0.00     0.083 C 
BRANCH  18  19
HETATM   19  C12 UNL     1      26.564   6.907  48.799  1.00  0.00     0.233 C 
BRANCH  19  20
HETATM   20  O1  UNL     1      26.583   7.615  49.973  1.00  0.00    -0.383 OA
BRANCH  20  21
HETATM   21  C13 UNL     1      25.775   8.723  49.990  1.00  0.00     0.198 C 
BRANCH  21  22
HETATM   22  C14 UNL     1      24.309   8.303  50.065  1.00  0.00     0.295 C 
BRANCH  22  23
HETATM   23  N4  UNL     1      24.113   7.606  51.320  1.00  0.00     0.081 N 
HETATM   24  C15 UNL     1      23.166   6.518  51.164  1.00  0.00     0.306 C 
HETATM   25  H12 UNL     1      23.793   8.279  52.039  1.00  0.00     0.315 HD
ENDBRANCH  22  23
ENDBRANCH  21  22
ENDBRANCH  20  21
ENDBRANCH  19  20
ENDBRANCH  18  19
BRANCH  18  26
HETATM   26  O2  UNL     1      27.929   4.753  48.700  1.00  0.00    -0.357 OA
HETATM   27  C16 UNL     1      29.058   5.482  48.190  1.00  0.00     0.209 C 
ENDBRANCH  18  26
ENDBRANCH   7  18
TORSDOF 9
ENDMDL
MODEL 6
REMARK VINA RESULT:      -7.1      3.241      5.581
REMARK  9 active torsions:
REMARK  status: ('A' for Active; 'I' for Inactive)
REMARK    1  A    between atoms: C5_6  and  N1_7 
REMARK    2  A    between atoms: N1_7  and  C6_8 
REMARK    3  A    between atoms: C10_14  and  C11_15 
REMARK    4  A    between atoms: C11_15  and  C12_16 
REMARK    5  A    between atoms: C11_15  and  O2_22 
REMARK    6  A    between atoms: C12_16  and  O1_17 
REMARK    7  A    between atoms: O1_17  and  C13_18 
REMARK    8  A    between atoms: C13_18  and  C14_19 
REMARK    9  A    between atoms: C14_19  and  N4_20 
ROOT
HETATM    1  C6  UNL     1      23.833  -0.174  53.481  1.00  0.00     0.143 A 
HETATM    2  N2  UNL     1      24.164  -0.917  54.552  1.00  0.00    -0.223 NA
HETATM    3  C7  UNL     1      23.265  -1.381  55.436  1.00  0.00     0.236 A 
HETATM    4  N3  UNL     1      21.947  -1.082  55.235  1.00  0.00    -0.240 NA
HETATM    5  C8  UNL     1      21.637  -0.342  54.163  1.00  0.00     0.087 A 
HETATM    6  C9  UNL     1      22.517   0.159  53.227  1.00  0.00     0.055 A 
HETATM    7  C10 UNL     1      21.074   0.456  53.053  1.00  0.00     0.042 A 
ENDROOT
BRANCH   1   8
HETATM    8  N1  UNL     1      24.854   0.273  52.599  1.00  0.00    -0.338 N 
HETATM    9  H4  UNL     1      24.620   0.614  51.639  1.00  0.00     0.167 HD
BRANCH   8  10
HETATM   10  C5  UNL     1      26.220   0.271  52.994  1.00  0.00     0.075 A 
HETATM   11  C4  UNL     1      27.005   1.316  53.640  1.00  0.00     0.057 A 
HETATM   12  C3  UNL     1      28.258   0.954  53.859  1.00  0.00     0.048 A 
HETATM   13  C2  UNL     1      28.390  -0.406  53.353  1.00  0.00     0.017 A 
HETATM   14 CL1  UNL     1      29.525   1.901  54.607  1.00  0.00    -0.083 Cl
HETATM   15  C1  UNL     1      29.467  -1.191  53.351  1.00  0.00     0.028 C 
HETATM   16  C17 UNL     1      27.067  -0.722  52.841  1.00  0.00     0.154 A 
HETATM   17  F1  UNL     1      26.764  -1.931  52.270  1.00  0.00    -0.203 F 
ENDBRANCH   8  10
ENDBRANCH   1   8
BRANCH   7  18
HETATM   18  C11 UNL     1      20.239   1.097  52.238  1.00  0.00     0.083 C 
BRANCH  18  19
HETATM   19  C12 UNL     1      20.121   2.569  52.161  1.00  0.00     0.233 C 
BRANCH  19  20
HETATM   20  O1  UNL     1      20.935   3.180  51.242  1.00  0.00    -0.383 OA
BRANCH  20  21
HETATM   21  C13 UNL     1      22.027   3.815  51.773  1.00  0.00     0.198 C 
BRANCH  21  22
HETATM   22  C14 UNL     1      23.310   3.266  51.152  1.00  0.00     0.295 C 
BRANCH  22  23
HETATM   23  N4  UNL     1      24.427   3.794  51.909  1.00  0.00     0.081 N 
HETATM   24  C15 UNL     1      24.188   3.670  53.334  1.00  0.00     0.306 C 
HETATM   25  H12 UNL     1      24.586   4.781  51.641  1.00  0.00     0.315 HD
ENDBRANCH  22  23
ENDBRANCH  21  22
ENDBRANCH  20  21
ENDBRANCH  19  20
ENDBRANCH  18  19
BRANCH  18  26
HETATM   26  O2  UNL     1      19.549   0.165  51.521  1.00  0.00    -0.357 OA
HETATM   27  C16 UNL     1      18.385  -0.415  52.133  1.00  0.00     0.209 C 
ENDBRANCH  18  26
ENDBRANCH   7  18
TORSDOF 9
ENDMDL
MODEL 7
REMARK VINA RESULT:      -7.1      3.656      5.754
REMARK  9 active torsions:
REMARK  status: ('A' for Active; 'I' for Inactive)
REMARK    1  A    between atoms: C5_6  and  N1_7 
REMARK    2  A    between atoms: N1_7  and  C6_8 
REMARK    3  A    between atoms: C10_14  and  C11_15 
REMARK    4  A    between atoms: C11_15  and  C12_16 
REMARK    5  A    between atoms: C11_15  and  O2_22 
REMARK    6  A    between atoms: C12_16  and  O1_17 
REMARK    7  A    between atoms: O1_17  and  C13_18 
REMARK    8  A    between atoms: C13_18  and  C14_19 
REMARK    9  A    between atoms: C14_19  and  N4_20 
ROOT
HETATM    1  C6  UNL     1      25.078   3.014  51.319  1.00  0.00     0.143 A 
HETATM    2  N2  UNL     1      23.912   2.368  51.146  1.00  0.00    -0.223 NA
HETATM    3  C7  UNL     1      23.152   2.497  50.044  1.00  0.00     0.236 A 
HETATM    4  N3  UNL     1      23.589   3.327  49.051  1.00  0.00    -0.240 NA
HETATM    5  C8  UNL     1      24.753   3.961  49.243  1.00  0.00     0.087 A 
HETATM    6  C9  UNL     1      25.569   3.866  50.350  1.00  0.00     0.055 A 
HETATM    7  C10 UNL     1      26.000   4.756  49.243  1.00  0.00     0.042 A 
ENDROOT
BRANCH   1   8
HETATM    8  N1  UNL     1      25.814   2.815  52.519  1.00  0.00    -0.338 N 
HETATM    9  H4  UNL     1      25.787   3.525  53.287  1.00  0.00     0.167 HD
BRANCH   8  10
HETATM   10  C5  UNL     1      26.603   1.649  52.713  1.00  0.00     0.075 A 
HETATM   11  C4  UNL     1      26.276   0.250  52.464  1.00  0.00     0.057 A 
HETATM   12  C3  UNL     1      27.270  -0.570  52.765  1.00  0.00     0.048 A 
HETATM   13  C2  UNL     1      28.361   0.264  53.251  1.00  0.00     0.017 A 
HETATM   14 CL1  UNL     1      27.294  -2.314  52.616  1.00  0.00    -0.083 Cl
HETATM   15  C1  UNL     1      29.568  -0.110  53.672  1.00  0.00     0.028 C 
HETATM   16  C17 UNL     1      27.833   1.615  53.174  1.00  0.00     0.154 A 
HETATM   17  F1  UNL     1      28.561   2.716  53.547  1.00  0.00    -0.203 F 
ENDBRANCH   8  10
ENDBRANCH   1   8
BRANCH   7  18
HETATM   18  C11 UNL     1      26.989   5.578  48.900  1.00  0.00     0.083 C 
BRANCH  18  19
HETATM   19  C12 UNL     1      28.301   5.128  48.388  1.00  0.00     0.233 C 
BRANCH  19  20
HETATM   20  O1  UNL     1      29.096   6.111  47.856  1.00  0.00    -0.383 OA
BRANCH  20  21
HETATM   21  C13 UNL     1      30.315   6.259  48.465  1.00  0.00     0.198 C 
BRANCH  21  22
HETATM   22  C14 UNL     1      30.576   7.732  48.768  1.00  0.00     0.295 C 
BRANCH  22  23
HETATM   23  N4  UNL     1      29.381   8.274  49.383  1.00  0.00     0.081 N 
HETATM   24  C15 UNL     1      29.355   9.721  49.275  1.00  0.00     0.306 C 
HETATM   25  H12 UNL     1      29.339   7.973  50.373  1.00  0.00     0.315 HD
ENDBRANCH  22  23
ENDBRANCH  21  22
ENDBRANCH  20  21
ENDBRANCH  19  20
ENDBRANCH  18  19
BRANCH  18  26
HETATM   26  O2  UNL     1      26.566   6.857  49.105  1.00  0.00    -0.357 OA
HETATM   27  C16 UNL     1      25.824   7.489  48.049  1.00  0.00     0.209 C 
ENDBRANCH  18  26
ENDBRANCH   7  18
TORSDOF 9
ENDMDL
MODEL 8
REMARK VINA RESULT:      -6.9      3.376      5.874
REMARK  9 active torsions:
REMARK  status: ('A' for Active; 'I' for Inactive)
REMARK    1  A    between atoms: C5_6  and  N1_7 
REMARK    2  A    between atoms: N1_7  and  C6_8 
REMARK    3  A    between atoms: C10_14  and  C11_15 
REMARK    4  A    between atoms: C11_15  and  C12_16 
REMARK    5  A    between atoms: C11_15  and  O2_22 
REMARK    6  A    between atoms: C12_16  and  O1_17 
REMARK    7  A    between atoms: O1_17  and  C13_18 
REMARK    8  A    between atoms: C13_18  and  C14_19 
REMARK    9  A    between atoms: C14_19  and  N4_20 
ROOT
HETATM    1  C6  UNL     1      26.586   2.349  51.452  1.00  0.00     0.143 A 
HETATM    2  N2  UNL     1      27.724   2.564  52.134  1.00  0.00    -0.223 NA
HETATM    3  C7  UNL     1      27.886   2.228  53.426  1.00  0.00     0.236 A 
HETATM    4  N3  UNL     1      26.840   1.637  54.076  1.00  0.00    -0.240 NA
HETATM    5  C8  UNL     1      25.715   1.430  53.378  1.00  0.00     0.087 A 
HETATM    6  C9  UNL     1      25.496   1.755  52.056  1.00  0.00     0.055 A 
HETATM    7  C10 UNL     1      24.390   1.111  52.807  1.00  0.00     0.042 A 
ENDROOT
BRANCH   1   8
HETATM    8  N1  UNL     1      26.508   2.738  50.087  1.00  0.00    -0.338 N 
HETATM    9  H4  UNL     1      26.573   2.026  49.323  1.00  0.00     0.167 HD
BRANCH   8  10
HETATM   10  C5  UNL     1      26.336   4.101  49.718  1.00  0.00     0.075 A 
HETATM   11  C4  UNL     1      25.310   5.053  50.123  1.00  0.00     0.057 A 
HETATM   12  C3  UNL     1      25.472   6.246  49.574  1.00  0.00     0.048 A 
HETATM   13  C2  UNL     1      26.662   6.157  48.738  1.00  0.00     0.017 A 
HETATM   14 CL1  UNL     1      24.471   7.664  49.793  1.00  0.00    -0.083 Cl
HETATM   15  C1  UNL     1      27.223   7.105  47.988  1.00  0.00     0.028 C 
HETATM   16  C17 UNL     1      27.110   4.785  48.906  1.00  0.00     0.154 A 
HETATM   17  F1  UNL     1      28.222   4.287  48.276  1.00  0.00    -0.203 F 
ENDBRANCH   8  10
ENDBRANCH   1   8
BRANCH   7  18
HETATM   18  C11 UNL     1      23.136   0.692  52.648  1.00  0.00     0.083 C 
BRANCH  18  19
HETATM   19  C12 UNL     1      22.121   1.402  51.842  1.00  0.00     0.233 C 
BRANCH  19  20
HETATM   20  O1  UNL     1      21.486   2.441  52.474  1.00  0.00    -0.383 OA
BRANCH  20  21
HETATM   21  C13 UNL     1      21.513   3.631  51.794  1.00  0.00     0.198 C 
BRANCH  21  22
HETATM   22  C14 UNL     1      22.555   4.563  52.407  1.00  0.00     0.295 C 
BRANCH  22  23
HETATM   23  N4  UNL     1      22.253   5.911  51.970  1.00  0.00     0.081 N 
HETATM   24  C15 UNL     1      21.407   5.893  50.791  1.00  0.00     0.306 C 
HETATM   25  H12 UNL     1      23.137   6.418  51.787  1.00  0.00     0.315 HD
ENDBRANCH  22  23
ENDBRANCH  21  22
ENDBRANCH  20  21
ENDBRANCH  19  20
ENDBRANCH  18  19
BRANCH  18  26
HETATM   26  O2  UNL     1      22.987  -0.470  53.344  1.00  0.00    -0.357 OA
HETATM   27  C16 UNL     1      21.988  -0.501  54.377  1.00  0.00     0.209 C 
ENDBRANCH  18  26
ENDBRANCH   7  18
TORSDOF 9
ENDMDL
MODEL 9
REMARK VINA RESULT:      -6.9      3.695      5.443
REMARK  9 active torsions:
REMARK  status: ('A' for Active; 'I' for Inactive)
REMARK    1  A    between atoms: C5_6  and  N1_7 
REMARK    2  A    between atoms: N1_7  and  C6_8 
REMARK    3  A    between atoms: C10_14  and  C11_15 
REMARK    4  A    between atoms: C11_15  and  C12_16 
REMARK    5  A    between atoms: C11_15  and  O2_22 
REMARK    6  A    between atoms: C12_16  and  O1_17 
REMARK    7  A    between atoms: O1_17  and  C13_18 
REMARK    8  A    between atoms: C13_18  and  C14_19 
REMARK    9  A    between atoms: C14_19  and  N4_20 
ROOT
HETATM    1  C6  UNL     1      24.940   3.061  51.287  1.00  0.00     0.143 A 
HETATM    2  N2  UNL     1      23.762   2.439  51.106  1.00  0.00    -0.223 NA
HETATM    3  C7  UNL     1      23.027   2.557  49.986  1.00  0.00     0.236 A 
HETATM    4  N3  UNL     1      23.504   3.349  48.981  1.00  0.00    -0.240 NA
HETATM    5  C8  UNL     1      24.681   3.960  49.180  1.00  0.00     0.087 A 
HETATM    6  C9  UNL     1      25.472   3.874  50.306  1.00  0.00     0.055 A 
HETATM    7  C10 UNL     1      25.946   4.723  49.186  1.00  0.00     0.042 A 
ENDROOT
BRANCH   1   8
HETATM    8  N1  UNL     1      25.646   2.875  52.506  1.00  0.00    -0.338 N 
HETATM    9  H4  UNL     1      25.557   3.566  53.287  1.00  0.00     0.167 HD
BRANCH   8  10
HETATM   10  C5  UNL     1      26.492   1.749  52.703  1.00  0.00     0.075 A 
HETATM   11  C4  UNL     1      27.921   1.696  52.988  1.00  0.00     0.057 A 
HETATM   12  C3  UNL     1      28.372   0.458  53.110  1.00  0.00     0.048 A 
HETATM   13  C2  UNL     1      27.229  -0.421  52.905  1.00  0.00     0.017 A 
HETATM   14 CL1  UNL     1      30.013  -0.048  53.450  1.00  0.00    -0.083 Cl
HETATM   15  C1  UNL     1      27.190  -1.753  52.932  1.00  0.00     0.028 C 
HETATM   16  C17 UNL     1      26.123   0.489  52.661  1.00  0.00     0.154 A 
HETATM   17  F1  UNL     1      24.846   0.053  52.419  1.00  0.00    -0.203 F 
ENDBRANCH   8  10
ENDBRANCH   1   8
BRANCH   7  18
HETATM   18  C11 UNL     1      26.962   5.512  48.842  1.00  0.00     0.083 C 
BRANCH  18  19
HETATM   19  C12 UNL     1      26.866   6.982  48.718  1.00  0.00     0.233 C 
BRANCH  19  20
HETATM   20  O1  UNL     1      26.505   7.648  49.861  1.00  0.00    -0.383 OA
BRANCH  20  21
HETATM   21  C13 UNL     1      27.143   8.845  50.055  1.00  0.00     0.198 C 
BRANCH  21  22
HETATM   22  C14 UNL     1      28.397   8.920  49.187  1.00  0.00     0.295 C 
BRANCH  22  23
HETATM   23  N4  UNL     1      29.462   9.475  49.998  1.00  0.00     0.081 N 
HETATM   24  C15 UNL     1      30.245  10.430  49.237  1.00  0.00     0.306 C 
HETATM   25  H12 UNL     1      30.056   8.706  50.356  1.00  0.00     0.315 HD
ENDBRANCH  22  23
ENDBRANCH  21  22
ENDBRANCH  20  21
ENDBRANCH  19  20
ENDBRANCH  18  19
BRANCH  18  26
HETATM   26  O2  UNL     1      28.057   4.726  48.637  1.00  0.00    -0.357 OA
HETATM   27  C16 UNL     1      29.275   5.375  48.236  1.00  0.00     0.209 C 
ENDBRANCH  18  26
ENDBRANCH   7  18
TORSDOF 9
ENDMDL
