MODEL 1
REMARK VINA RESULT:      -7.9      0.000      0.000
REMARK  5 active torsions:
REMARK  status: ('A' for Active; 'I' for Inactive)
REMARK    1  A    between atoms: C2_2  and  C3_3 
REMARK    2  A    between atoms: C3_3  and  C4_4 
REMARK    3  A    between atoms: C10_12  and  N2_13 
REMARK    4  A    between atoms: N2_13  and  C11_14 
REMARK    5  A    between atoms: C11_14  and  C12_15 
ROOT
HETATM    1  C4  UNL     1      24.168   0.803  53.062  1.00  0.00     0.014 A 
HETATM    2  C5  UNL     1      23.711  -0.301  53.709  1.00  0.00     0.080 A 
HETATM    3  C6  UNL     1      22.545  -0.764  53.931  1.00  0.00     0.052 C 
HETATM    4  O1  UNL     1      24.731  -0.979  54.169  1.00  0.00    -0.291 OA
HETATM    5  C7  UNL     1      25.847  -0.395  53.870  1.00  0.00     0.183 A 
HETATM    6  N1  UNL     1      27.115  -0.746  54.146  1.00  0.00    -0.236 NA
HETATM    7  C8  UNL     1      28.143   0.014  53.737  1.00  0.00     0.122 A 
HETATM    8  C9  UNL     1      27.833   1.142  53.038  1.00  0.00     0.049 A 
HETATM    9  C10 UNL     1      26.548   1.543  52.732  1.00  0.00     0.045 A 
HETATM   10  C18 UNL     1      25.525   0.740  53.167  1.00  0.00     0.057 A 
ENDROOT
BRANCH   9  11
HETATM   11  N2  UNL     1      26.389   2.734  52.002  1.00  0.00    -0.385 N 
HETATM   12  H9  UNL     1      26.220   3.731  52.161  1.00  0.00     0.160 HD
BRANCH  11  13
HETATM   13  C11 UNL     1      26.462   2.683  50.570  1.00  0.00     0.158 C 
BRANCH  13  14
HETATM   14  C12 UNL     1      26.170   3.907  49.838  1.00  0.00    -0.039 A 
HETATM   15  C13 UNL     1      24.926   4.490  49.678  1.00  0.00     0.009 A 
HETATM   16  C14 UNL     1      24.746   5.658  48.965  1.00  0.00     0.002 A 
HETATM   17  C15 UNL     1      25.863   6.262  48.389  1.00  0.00     0.024 A 
HETATM   18  C16 UNL     1      27.116   5.700  48.534  1.00  0.00     0.034 A 
HETATM   19 CL1  UNL     1      28.478   6.508  47.785  1.00  0.00    -0.084 Cl
HETATM   20  C17 UNL     1      27.280   4.526  49.255  1.00  0.00     0.032 A 
ENDBRANCH  13  14
ENDBRANCH  11  13
ENDBRANCH   9  11
BRANCH   1  21
HETATM   21  C3  UNL     1      23.489   1.725  52.469  1.00  0.00     0.014 C 
BRANCH  21  22
HETATM   22  C2  UNL     1      22.923   1.616  51.140  1.00  0.00    -0.009 C 
HETATM   23  C1  UNL     1      21.865   1.069  50.604  1.00  0.00     0.011 C 
ENDBRANCH  21  22
ENDBRANCH   1  21
TORSDOF 5
ENDMDL
MODEL 2
REMARK VINA RESULT:      -7.8      2.193      3.917
REMARK  5 active torsions:
REMARK  status: ('A' for Active; 'I' for Inactive)
REMARK    1  A    between atoms: C2_2  and  C3_3 
REMARK    2  A    between atoms: C3_3  and  C4_4 
REMARK    3  A    between atoms: C10_12  and  N2_13 
REMARK    4  A    between atoms: N2_13  and  C11_14 
REMARK    5  A    between atoms: C11_14  and  C12_15 
ROOT
HETATM    1  C4  UNL     1      26.215   0.351  52.883  1.00  0.00     0.014 A 
HETATM    2  C5  UNL     1      27.300   0.068  53.650  1.00  0.00     0.080 A 
HETATM    3  C6  UNL     1      28.549   0.279  53.509  1.00  0.00     0.052 C 
HETATM    4  O1  UNL     1      26.907  -0.542  54.738  1.00  0.00    -0.291 OA
HETATM    5  C7  UNL     1      25.621  -0.687  54.748  1.00  0.00     0.183 A 
HETATM    6  N1  UNL     1      24.815  -1.254  55.663  1.00  0.00    -0.236 NA
HETATM    7  C8  UNL     1      23.487  -1.300  55.474  1.00  0.00     0.122 A 
HETATM    8  C9  UNL     1      23.011  -0.750  54.322  1.00  0.00     0.049 A 
HETATM    9  C10 UNL     1      23.798  -0.160  53.354  1.00  0.00     0.045 A 
HETATM   10  C18 UNL     1      25.150  -0.131  53.583  1.00  0.00     0.057 A 
ENDROOT
BRANCH   9  11
HETATM   11  N2  UNL     1      23.159   0.365  52.217  1.00  0.00    -0.385 N 
HETATM   12  H9  UNL     1      22.950   0.105  51.249  1.00  0.00     0.160 HD
BRANCH  11  13
HETATM   13  C11 UNL     1      22.566   1.668  52.297  1.00  0.00     0.158 C 
BRANCH  13  14
HETATM   14  C12 UNL     1      22.856   2.605  51.220  1.00  0.00    -0.039 A 
HETATM   15  C13 UNL     1      22.909   2.312  49.870  1.00  0.00     0.009 A 
HETATM   16  C14 UNL     1      23.193   3.270  48.918  1.00  0.00     0.002 A 
HETATM   17  C15 UNL     1      23.432   4.577  49.344  1.00  0.00     0.024 A 
HETATM   18  C16 UNL     1      23.386   4.895  50.686  1.00  0.00     0.034 A 
HETATM   19 CL1  UNL     1      23.697   6.555  51.155  1.00  0.00    -0.084 Cl
HETATM   20  C17 UNL     1      23.099   3.920  51.630  1.00  0.00     0.032 A 
ENDBRANCH  13  14
ENDBRANCH  11  13
ENDBRANCH   9  11
BRANCH   1  21
HETATM   21  C3  UNL     1      26.172   0.943  51.739  1.00  0.00     0.014 C 
BRANCH  21  22
HETATM   22  C2  UNL     1      26.465   2.345  51.517  1.00  0.00    -0.009 C 
HETATM   23  C1  UNL     1      26.632   3.126  50.484  1.00  0.00     0.011 C 
ENDBRANCH  21  22
ENDBRANCH   1  21
TORSDOF 5
ENDMDL
MODEL 3
REMARK VINA RESULT:      -7.7      3.801      5.664
REMARK  5 active torsions:
REMARK  status: ('A' for Active; 'I' for Inactive)
REMARK    1  A    between atoms: C2_2  and  C3_3 
REMARK    2  A    between atoms: C3_3  and  C4_4 
REMARK    3  A    between atoms: C10_12  and  N2_13 
REMARK    4  A    between atoms: N2_13  and  C11_14 
REMARK    5  A    between atoms: C11_14  and  C12_15 
ROOT
HETATM    1  C4  UNL     1      21.315   0.311  52.689  1.00  0.00     0.014 A 
HETATM    2  C5  UNL     1      20.003   0.586  52.468  1.00  0.00     0.080 A 
HETATM    3  C6  UNL     1      18.954  -0.136  52.425  1.00  0.00     0.052 C 
HETATM    4  O1  UNL     1      19.864   1.871  52.269  1.00  0.00    -0.291 OA
HETATM    5  C7  UNL     1      21.005   2.476  52.341  1.00  0.00     0.183 A 
HETATM    6  N1  UNL     1      21.312   3.778  52.200  1.00  0.00    -0.236 NA
HETATM    7  C8  UNL     1      22.580   4.202  52.316  1.00  0.00     0.122 A 
HETATM    8  C9  UNL     1      23.523   3.254  52.580  1.00  0.00     0.049 A 
HETATM    9  C10 UNL     1      23.257   1.908  52.732  1.00  0.00     0.045 A 
HETATM   10  C18 UNL     1      21.949   1.514  52.607  1.00  0.00     0.057 A 
ENDROOT
BRANCH   9  11
HETATM   11  N2  UNL     1      24.338   1.052  53.003  1.00  0.00    -0.385 N 
HETATM   12  H9  UNL     1      24.629   0.358  53.698  1.00  0.00     0.160 HD
BRANCH  11  13
HETATM   13  C11 UNL     1      25.456   1.044  52.105  1.00  0.00     0.158 C 
BRANCH  13  14
HETATM   14  C12 UNL     1      26.788   1.006  52.692  1.00  0.00    -0.039 A 
HETATM   15  C13 UNL     1      27.502   2.086  53.177  1.00  0.00     0.009 A 
HETATM   16  C14 UNL     1      28.765   1.952  53.719  1.00  0.00     0.002 A 
HETATM   17  C15 UNL     1      29.331   0.679  53.773  1.00  0.00     0.024 A 
HETATM   18  C16 UNL     1      28.639  -0.416  53.294  1.00  0.00     0.034 A 
HETATM   19 CL1  UNL     1      29.407  -1.988  53.391  1.00  0.00    -0.084 Cl
HETATM   20  C17 UNL     1      27.371  -0.264  52.753  1.00  0.00     0.032 A 
ENDBRANCH  13  14
ENDBRANCH  11  13
ENDBRANCH   9  11
BRANCH   1  21
HETATM   21  C3  UNL     1      21.869  -0.829  52.926  1.00  0.00     0.014 C 
BRANCH  21  22
HETATM   22  C2  UNL     1      21.985  -1.440  54.235  1.00  0.00    -0.009 C 
HETATM   23  C1  UNL     1      22.743  -1.286  55.287  1.00  0.00     0.011 C 
ENDBRANCH  21  22
ENDBRANCH   1  21
TORSDOF 5
ENDMDL
MODEL 4
REMARK VINA RESULT:      -7.6      2.880      5.607
REMARK  5 active torsions:
REMARK  status: ('A' for Active; 'I' for Inactive)
REMARK    1  A    between atoms: C2_2  and  C3_3 
REMARK    2  A    between atoms: C3_3  and  C4_4 
REMARK    3  A    between atoms: C10_12  and  N2_13 
REMARK    4  A    between atoms: N2_13  and  C11_14 
REMARK    5  A    between atoms: C11_14  and  C12_15 
ROOT
HETATM    1  C4  UNL     1      22.666   1.043  51.746  1.00  0.00     0.014 A 
HETATM    2  C5  UNL     1      21.435   1.199  51.193  1.00  0.00     0.080 A 
HETATM    3  C6  UNL     1      21.001   1.870  50.201  1.00  0.00     0.052 C 
HETATM    4  O1  UNL     1      20.571   0.485  51.868  1.00  0.00    -0.291 OA
HETATM    5  C7  UNL     1      21.149  -0.140  52.843  1.00  0.00     0.183 A 
HETATM    6  N1  UNL     1      20.639  -0.969  53.770  1.00  0.00    -0.236 NA
HETATM    7  C8  UNL     1      21.426  -1.520  54.708  1.00  0.00     0.122 A 
HETATM    8  C9  UNL     1      22.750  -1.195  54.666  1.00  0.00     0.049 A 
HETATM    9  C10 UNL     1      23.318  -0.350  53.735  1.00  0.00     0.045 A 
HETATM   10  C18 UNL     1      22.481   0.193  52.793  1.00  0.00     0.057 A 
ENDROOT
BRANCH   9  11
HETATM   11  N2  UNL     1      24.701  -0.112  53.822  1.00  0.00    -0.385 N 
HETATM   12  H9  UNL     1      25.353   0.559  54.236  1.00  0.00     0.160 HD
BRANCH  11  13
HETATM   13  C11 UNL     1      25.601  -1.019  53.170  1.00  0.00     0.158 C 
BRANCH  13  14
HETATM   14  C12 UNL     1      27.026  -0.745  53.279  1.00  0.00    -0.039 A 
HETATM   15  C13 UNL     1      28.047  -1.677  53.232  1.00  0.00     0.009 A 
HETATM   16  C14 UNL     1      29.376  -1.322  53.344  1.00  0.00     0.002 A 
HETATM   17  C15 UNL     1      29.689   0.028  53.509  1.00  0.00     0.024 A 
HETATM   18  C16 UNL     1      28.689   0.978  53.559  1.00  0.00     0.034 A 
HETATM   19 CL1  UNL     1      29.150   2.655  53.769  1.00  0.00    -0.084 Cl
HETATM   20  C17 UNL     1      27.358   0.604  53.445  1.00  0.00     0.032 A 
ENDBRANCH  13  14
ENDBRANCH  11  13
ENDBRANCH   9  11
BRANCH   1  21
HETATM   21  C3  UNL     1      23.784   1.573  51.380  1.00  0.00     0.014 C 
BRANCH  21  22
HETATM   22  C2  UNL     1      24.257   2.880  51.789  1.00  0.00    -0.009 C 
HETATM   23  C1  UNL     1      24.224   4.093  51.307  1.00  0.00     0.011 C 
ENDBRANCH  21  22
ENDBRANCH   1  21
TORSDOF 5
ENDMDL
MODEL 5
REMARK VINA RESULT:      -7.3      2.593      2.786
REMARK  5 active torsions:
REMARK  status: ('A' for Active; 'I' for Inactive)
REMARK    1  A    between atoms: C2_2  and  C3_3 
REMARK    2  A    between atoms: C3_3  and  C4_4 
REMARK    3  A    between atoms: C10_12  and  N2_13 
REMARK    4  A    between atoms: N2_13  and  C11_14 
REMARK    5  A    between atoms: C11_14  and  C12_15 
ROOT
HETATM    1  C4  UNL     1      23.546  -0.132  53.411  1.00  0.00     0.014 A 
HETATM    2  C5  UNL     1      23.218  -0.887  54.491  1.00  0.00     0.080 A 
HETATM    3  C6  UNL     1      22.121  -1.377  54.915  1.00  0.00     0.052 C 
HETATM    4  O1  UNL     1      24.298  -1.123  55.190  1.00  0.00    -0.291 OA
HETATM    5  C7  UNL     1      25.332  -0.569  54.645  1.00  0.00     0.183 A 
HETATM    6  N1  UNL     1      26.621  -0.559  55.029  1.00  0.00    -0.236 NA
HETATM    7  C8  UNL     1      27.549   0.087  54.307  1.00  0.00     0.122 A 
HETATM    8  C9  UNL     1      27.119   0.723  53.180  1.00  0.00     0.049 A 
HETATM    9  C10 UNL     1      25.808   0.742  52.747  1.00  0.00     0.045 A 
HETATM   10  C18 UNL     1      24.889   0.070  53.511  1.00  0.00     0.057 A 
ENDROOT
BRANCH   9  11
HETATM   11  N2  UNL     1      25.519   1.442  51.563  1.00  0.00    -0.385 N 
HETATM   12  H9  UNL     1      25.343   1.259  50.571  1.00  0.00     0.160 HD
BRANCH  11  13
HETATM   13  C11 UNL     1      25.406   2.870  51.613  1.00  0.00     0.158 C 
BRANCH  13  14
HETATM   14  C12 UNL     1      24.180   3.466  51.102  1.00  0.00    -0.039 A 
HETATM   15  C13 UNL     1      23.458   4.489  51.690  1.00  0.00     0.009 A 
HETATM   16  C14 UNL     1      22.301   4.992  51.128  1.00  0.00     0.002 A 
HETATM   17  C15 UNL     1      21.855   4.442  49.926  1.00  0.00     0.024 A 
HETATM   18  C16 UNL     1      22.557   3.420  49.320  1.00  0.00     0.034 A 
HETATM   19 CL1  UNL     1      21.942   2.773  47.812  1.00  0.00    -0.084 Cl
HETATM   20  C17 UNL     1      23.718   2.926  49.897  1.00  0.00     0.032 A 
ENDBRANCH  13  14
ENDBRANCH  11  13
ENDBRANCH   9  11
BRANCH   1  21
HETATM   21  C3  UNL     1      22.775   0.314  52.478  1.00  0.00     0.014 C 
BRANCH  21  22
HETATM   22  C2  UNL     1      21.789   1.362  52.645  1.00  0.00    -0.009 C 
HETATM   23  C1  UNL     1      20.515   1.512  52.400  1.00  0.00     0.011 C 
ENDBRANCH  21  22
ENDBRANCH   1  21
TORSDOF 5
ENDMDL
MODEL 6
REMARK VINA RESULT:      -7.3      2.885      4.778
REMARK  5 active torsions:
REMARK  status: ('A' for Active; 'I' for Inactive)
REMARK    1  A    between atoms: C2_2  and  C3_3 
REMARK    2  A    between atoms: C3_3  and  C4_4 
REMARK    3  A    between atoms: C10_12  and  N2_13 
REMARK    4  A    between atoms: N2_13  and  C11_14 
REMARK    5  A    between atoms: C11_14  and  C12_15 
ROOT
HETATM    1  C4  UNL     1      22.631  -0.398  53.448  1.00  0.00     0.014 A 
HETATM    2  C5  UNL     1      22.429  -0.997  54.650  1.00  0.00     0.080 A 
HETATM    3  C6  UNL     1      23.211  -1.353  55.592  1.00  0.00     0.052 C 
HETATM    4  O1  UNL     1      21.150  -1.223  54.805  1.00  0.00    -0.291 OA
HETATM    5  C7  UNL     1      20.480  -0.812  53.777  1.00  0.00     0.183 A 
HETATM    6  N1  UNL     1      19.160  -0.851  53.525  1.00  0.00    -0.236 NA
HETATM    7  C8  UNL     1      18.664  -0.362  52.378  1.00  0.00     0.122 A 
HETATM    8  C9  UNL     1      19.561   0.166  51.497  1.00  0.00     0.049 A 
HETATM    9  C10 UNL     1      20.923   0.226  51.711  1.00  0.00     0.045 A 
HETATM   10  C18 UNL     1      21.391  -0.283  52.895  1.00  0.00     0.057 A 
ENDROOT
BRANCH   9  11
HETATM   11  N2  UNL     1      21.720   0.802  50.706  1.00  0.00    -0.385 N 
HETATM   12  H9  UNL     1      22.506   0.558  50.098  1.00  0.00     0.160 HD
BRANCH  11  13
HETATM   13  C11 UNL     1      21.462   2.155  50.309  1.00  0.00     0.158 C 
BRANCH  13  14
HETATM   14  C12 UNL     1      22.483   3.150  50.604  1.00  0.00    -0.039 A 
HETATM   15  C13 UNL     1      22.354   4.232  51.455  1.00  0.00     0.009 A 
HETATM   16  C14 UNL     1      23.383   5.125  51.674  1.00  0.00     0.002 A 
HETATM   17  C15 UNL     1      24.591   4.920  51.008  1.00  0.00     0.024 A 
HETATM   18  C16 UNL     1      24.747   3.848  50.153  1.00  0.00     0.034 A 
HETATM   19 CL1  UNL     1      26.289   3.647  49.347  1.00  0.00    -0.084 Cl
HETATM   20  C17 UNL     1      23.702   2.959  49.944  1.00  0.00     0.032 A 
ENDBRANCH  13  14
ENDBRANCH  11  13
ENDBRANCH   9  11
BRANCH   1  21
HETATM   21  C3  UNL     1      23.742  -0.013  52.918  1.00  0.00     0.014 C 
BRANCH  21  22
HETATM   22  C2  UNL     1      24.366   1.275  53.143  1.00  0.00    -0.009 C 
HETATM   23  C1  UNL     1      25.576   1.763  53.089  1.00  0.00     0.011 C 
ENDBRANCH  21  22
ENDBRANCH   1  21
TORSDOF 5
ENDMDL
MODEL 7
REMARK VINA RESULT:      -7.3      3.250      6.076
REMARK  5 active torsions:
REMARK  status: ('A' for Active; 'I' for Inactive)
REMARK    1  A    between atoms: C2_2  and  C3_3 
REMARK    2  A    between atoms: C3_3  and  C4_4 
REMARK    3  A    between atoms: C10_12  and  N2_13 
REMARK    4  A    between atoms: N2_13  and  C11_14 
REMARK    5  A    between atoms: C11_14  and  C12_15 
ROOT
HETATM    1  C4  UNL     1      24.971   2.516  51.243  1.00  0.00     0.014 A 
HETATM    2  C5  UNL     1      26.149   2.777  50.620  1.00  0.00     0.080 A 
HETATM    3  C6  UNL     1      26.517   3.665  49.783  1.00  0.00     0.052 C 
HETATM    4  O1  UNL     1      27.040   1.900  51.006  1.00  0.00    -0.291 OA
HETATM    5  C7  UNL     1      26.529   1.064  51.851  1.00  0.00     0.183 A 
HETATM    6  N1  UNL     1      27.086   0.019  52.488  1.00  0.00    -0.236 NA
HETATM    7  C8  UNL     1      26.367  -0.731  53.338  1.00  0.00     0.122 A 
HETATM    8  C9  UNL     1      25.062  -0.378  53.516  1.00  0.00     0.049 A 
HETATM    9  C10 UNL     1      24.448   0.685  52.885  1.00  0.00     0.045 A 
HETATM   10  C18 UNL     1      25.215   1.427  52.024  1.00  0.00     0.057 A 
ENDROOT
BRANCH   9  11
HETATM   11  N2  UNL     1      23.093   0.924  53.173  1.00  0.00    -0.385 N 
HETATM   12  H9  UNL     1      22.422   1.698  53.188  1.00  0.00     0.160 HD
BRANCH  11  13
HETATM   13  C11 UNL     1      22.269  -0.174  53.588  1.00  0.00     0.158 C 
BRANCH  13  14
HETATM   14  C12 UNL     1      20.917  -0.241  53.052  1.00  0.00    -0.039 A 
HETATM   15  C13 UNL     1      19.838  -0.887  53.627  1.00  0.00     0.009 A 
HETATM   16  C14 UNL     1      18.587  -0.895  53.042  1.00  0.00     0.002 A 
HETATM   17  C15 UNL     1      18.417  -0.225  51.831  1.00  0.00     0.024 A 
HETATM   18  C16 UNL     1      19.479   0.428  51.236  1.00  0.00     0.034 A 
HETATM   19 CL1  UNL     1      19.199   1.249  49.714  1.00  0.00    -0.084 Cl
HETATM   20  C17 UNL     1      20.730   0.426  51.837  1.00  0.00     0.032 A 
ENDBRANCH  13  14
ENDBRANCH  11  13
ENDBRANCH   9  11
BRANCH   1  21
HETATM   21  C3  UNL     1      23.849   3.144  51.137  1.00  0.00     0.014 C 
BRANCH  21  22
HETATM   22  C2  UNL     1      22.852   2.896  50.115  1.00  0.00    -0.009 C 
HETATM   23  C1  UNL     1      22.853   2.580  48.848  1.00  0.00     0.011 C 
ENDBRANCH  21  22
ENDBRANCH   1  21
TORSDOF 5
ENDMDL
MODEL 8
REMARK VINA RESULT:      -7.1      3.410      5.605
REMARK  5 active torsions:
REMARK  status: ('A' for Active; 'I' for Inactive)
REMARK    1  A    between atoms: C2_2  and  C3_3 
REMARK    2  A    between atoms: C3_3  and  C4_4 
REMARK    3  A    between atoms: C10_12  and  N2_13 
REMARK    4  A    between atoms: N2_13  and  C11_14 
REMARK    5  A    between atoms: C11_14  and  C12_15 
ROOT
HETATM    1  C4  UNL     1      20.842   0.658  52.312  1.00  0.00     0.014 A 
HETATM    2  C5  UNL     1      19.638   0.239  51.845  1.00  0.00     0.080 A 
HETATM    3  C6  UNL     1      18.631  -0.316  52.396  1.00  0.00     0.052 C 
HETATM    4  O1  UNL     1      19.566   0.489  50.563  1.00  0.00    -0.291 OA
HETATM    5  C7  UNL     1      20.653   1.051  50.141  1.00  0.00     0.183 A 
HETATM    6  N1  UNL     1      20.997   1.467  48.910  1.00  0.00    -0.236 NA
HETATM    7  C8  UNL     1      22.192   2.033  48.684  1.00  0.00     0.122 A 
HETATM    8  C9  UNL     1      23.025   2.159  49.756  1.00  0.00     0.049 A 
HETATM    9  C10 UNL     1      22.717   1.745  51.037  1.00  0.00     0.045 A 
HETATM   10  C18 UNL     1      21.485   1.172  51.227  1.00  0.00     0.057 A 
ENDROOT
BRANCH   9  11
HETATM   11  N2  UNL     1      23.681   1.943  52.040  1.00  0.00    -0.385 N 
HETATM   12  H9  UNL     1      23.753   1.961  53.062  1.00  0.00     0.160 HD
BRANCH  11  13
HETATM   13  C11 UNL     1      25.035   2.216  51.655  1.00  0.00     0.158 C 
BRANCH  13  14
HETATM   14  C12 UNL     1      26.077   1.369  52.216  1.00  0.00    -0.039 A 
HETATM   15  C13 UNL     1      26.145  -0.010  52.137  1.00  0.00     0.009 A 
HETATM   16  C14 UNL     1      27.177  -0.732  52.703  1.00  0.00     0.002 A 
HETATM   17  C15 UNL     1      28.181  -0.035  53.375  1.00  0.00     0.024 A 
HETATM   18  C16 UNL     1      28.137   1.341  53.469  1.00  0.00     0.034 A 
HETATM   19 CL1  UNL     1      29.428   2.155  54.329  1.00  0.00    -0.084 Cl
HETATM   20  C17 UNL     1      27.092   2.051  52.895  1.00  0.00     0.032 A 
ENDBRANCH  13  14
ENDBRANCH  11  13
ENDBRANCH   9  11
BRANCH   1  21
HETATM   21  C3  UNL     1      21.304   0.594  53.515  1.00  0.00     0.014 C 
BRANCH  21  22
HETATM   22  C2  UNL     1      22.019  -0.537  54.071  1.00  0.00    -0.009 C 
HETATM   23  C1  UNL     1      23.264  -0.841  54.319  1.00  0.00     0.011 C 
ENDBRANCH  21  22
ENDBRANCH   1  21
TORSDOF 5
ENDMDL
MODEL 9
REMARK VINA RESULT:      -7.1      2.879      5.011
REMARK  5 active torsions:
REMARK  status: ('A' for Active; 'I' for Inactive)
REMARK    1  A    between atoms: C2_2  and  C3_3 
REMARK    2  A    between atoms: C3_3  and  C4_4 
REMARK    3  A    between atoms: C10_12  and  N2_13 
REMARK    4  A    between atoms: N2_13  and  C11_14 
REMARK    5  A    between atoms: C11_14  and  C12_15 
ROOT
HETATM    1  C4  UNL     1      23.681   1.261  52.935  1.00  0.00     0.014 A 
HETATM    2  C5  UNL     1      24.710   0.413  53.190  1.00  0.00     0.080 A 
HETATM    3  C6  UNL     1      25.975   0.508  53.062  1.00  0.00     0.052 C 
HETATM    4  O1  UNL     1      24.232  -0.710  53.662  1.00  0.00    -0.291 OA
HETATM    5  C7  UNL     1      22.941  -0.666  53.738  1.00  0.00     0.183 A 
HETATM    6  N1  UNL     1      22.061  -1.590  54.161  1.00  0.00    -0.236 NA
HETATM    7  C8  UNL     1      20.743  -1.337  54.157  1.00  0.00     0.122 A 
HETATM    8  C9  UNL     1      20.354  -0.110  53.708  1.00  0.00     0.049 A 
HETATM    9  C10 UNL     1      21.219   0.869  53.264  1.00  0.00     0.045 A 
HETATM   10  C18 UNL     1      22.558   0.573  53.283  1.00  0.00     0.057 A 
ENDROOT
BRANCH   9  11
HETATM   11  N2  UNL     1      20.666   2.087  52.831  1.00  0.00    -0.385 N 
HETATM   12  H9  UNL     1      20.632   3.072  53.109  1.00  0.00     0.160 HD
BRANCH  11  13
HETATM   13  C11 UNL     1      19.874   2.101  51.635  1.00  0.00     0.158 C 
BRANCH  13  14
HETATM   14  C12 UNL     1      20.581   2.135  50.363  1.00  0.00    -0.039 A 
HETATM   15  C13 UNL     1      21.091   1.047  49.678  1.00  0.00     0.009 A 
HETATM   16  C14 UNL     1      21.748   1.177  48.471  1.00  0.00     0.002 A 
HETATM   17  C15 UNL     1      21.897   2.455  47.933  1.00  0.00     0.024 A 
HETATM   18  C16 UNL     1      21.397   3.557  48.596  1.00  0.00     0.034 A 
HETATM   19 CL1  UNL     1      21.618   5.135  47.866  1.00  0.00    -0.084 Cl
HETATM   20  C17 UNL     1      20.739   3.409  49.808  1.00  0.00     0.032 A 
ENDBRANCH  13  14
ENDBRANCH  11  13
ENDBRANCH   9  11
BRANCH   1  21
HETATM   21  C3  UNL     1      23.726   2.461  52.464  1.00  0.00     0.014 C 
BRANCH  21  22
HETATM   22  C2  UNL     1      24.047   2.804  51.094  1.00  0.00    -0.009 C 
HETATM   23  C1  UNL     1      25.133   3.007  50.398  1.00  0.00     0.011 C 
ENDBRANCH  21  22
ENDBRANCH   1  21
TORSDOF 5
ENDMDL
