MODEL 1
REMARK VINA RESULT:      -8.2      0.000      0.000
REMARK  6 active torsions:
REMARK  status: ('A' for Active; 'I' for Inactive)
REMARK    1  A    between atoms: C2_2  and  C11_15 
REMARK    2  A    between atoms: N1_3  and  C3_4 
REMARK    3  A    between atoms: C3_4  and  N2_5 
REMARK    4  A    between atoms: N2_5  and  C4_6 
REMARK    5  A    between atoms: C4_6  and  N3_7 
REMARK    6  A    between atoms: N3_7  and  C5_8 
ROOT
HETATM    1  C1  UNL     1      22.993   2.651  48.703  1.00  0.00     0.068 C 
HETATM    2  C2  UNL     1      23.426   2.625  50.123  1.00  0.00     0.034 C 
HETATM    3  N1  UNL     1      22.892   1.546  50.644  1.00  0.00    -0.256 NA
ENDROOT
BRANCH   2   4
HETATM    4  C11 UNL     1      24.300   3.624  50.835  1.00  0.00     0.185 C 
HETATM    5  C12 UNL     1      25.565   3.849  50.075  1.00  0.00     0.081 A 
HETATM    6  C13 UNL     1      25.903   4.834  49.263  1.00  0.00    -0.002 A 
HETATM    7  O1  UNL     1      26.817   3.253  49.862  1.00  0.00    -0.348 OA
HETATM    8  C14 UNL     1      27.251   4.250  48.995  1.00  0.00     0.214 A 
HETATM    9  C15 UNL     1      25.132   6.037  48.845  1.00  0.00     0.114 C 
HETATM   10  C16 UNL     1      26.026   7.091  48.244  1.00  0.00     0.030 C 
HETATM   11  N4  UNL     1      24.300   6.596  49.833  1.00  0.00    -0.389 N 
HETATM   12  C17 UNL     1      25.287   8.416  48.295  1.00  0.00     0.004 C 
HETATM   13  C18 UNL     1      25.188   8.824  49.753  1.00  0.00     0.020 C 
HETATM   14  C19 UNL     1      24.825   7.644  50.624  1.00  0.00     0.119 C 
HETATM   15  C20 UNL     1      23.276   5.791  50.371  1.00  0.00     0.239 C 
HETATM   16  N5  UNL     1      23.626   4.774  51.252  1.00  0.00    -0.387 N 
HETATM   17  C21 UNL     1      23.205   4.847  52.603  1.00  0.00     0.146 C 
ENDBRANCH   2   4
BRANCH   3  18
HETATM   18  C3  UNL     1      23.076   1.174  51.980  1.00  0.00     0.807 C 
BRANCH  18  19
HETATM   19  N2  UNL     1      23.093   0.706  53.181  1.00  0.00     0.060 NA
BRANCH  19  20
HETATM   20  C4  UNL     1      24.240  -0.118  53.578  1.00  0.00     0.375 C 
BRANCH  20  21
HETATM   21  N3  UNL     1      25.327   0.097  52.619  1.00  0.00    -0.366 N 
HETATM   22  H7  UNL     1      25.110   0.156  51.599  1.00  0.00     0.161 HD
BRANCH  21  23
HETATM   23  C5  UNL     1      26.702   0.237  52.966  1.00  0.00     0.032 A 
HETATM   24  C6  UNL     1      27.558  -0.821  53.136  1.00  0.00     0.029 A 
HETATM   25  C7  UNL     1      28.880  -0.625  53.471  1.00  0.00     0.005 A 
HETATM   26  C8  UNL     1      29.412   0.636  53.653  1.00  0.00     0.042 A 
HETATM   27  C9  UNL     1      28.563   1.708  53.485  1.00  0.00     0.118 A 
HETATM   28  F1  UNL     1      29.122   2.926  53.672  1.00  0.00    -0.206 F 
HETATM   29  C10 UNL     1      27.236   1.475  53.147  1.00  0.00     0.071 A 
ENDBRANCH  21  23
ENDBRANCH  20  21
ENDBRANCH  19  20
ENDBRANCH  18  19
ENDBRANCH   3  18
TORSDOF 6
ENDMDL
MODEL 2
REMARK VINA RESULT:      -7.5      6.480      9.578
REMARK  6 active torsions:
REMARK  status: ('A' for Active; 'I' for Inactive)
REMARK    1  A    between atoms: C2_2  and  C11_15 
REMARK    2  A    between atoms: N1_3  and  C3_4 
REMARK    3  A    between atoms: C3_4  and  N2_5 
REMARK    4  A    between atoms: N2_5  and  C4_6 
REMARK    5  A    between atoms: C4_6  and  N3_7 
REMARK    6  A    between atoms: N3_7  and  C5_8 
ROOT
HETATM    1  C1  UNL     1      21.096   0.331  50.271  1.00  0.00     0.068 C 
HETATM    2  C2  UNL     1      20.603   1.358  51.223  1.00  0.00     0.034 C 
HETATM    3  N1  UNL     1      19.419   1.717  50.788  1.00  0.00    -0.256 NA
ENDROOT
BRANCH   2   4
HETATM    4  C11 UNL     1      21.307   1.890  52.444  1.00  0.00     0.185 C 
HETATM    5  C12 UNL     1      21.629   0.780  53.388  1.00  0.00     0.081 A 
HETATM    6  C13 UNL     1      22.766   0.139  53.587  1.00  0.00    -0.002 A 
HETATM    7  O1  UNL     1      21.018  -0.014  54.370  1.00  0.00    -0.348 OA
HETATM    8  C14 UNL     1      22.175  -0.738  54.641  1.00  0.00     0.214 A 
HETATM    9  C15 UNL     1      24.093   0.317  52.934  1.00  0.00     0.114 C 
HETATM   10  C16 UNL     1      25.197  -0.329  53.730  1.00  0.00     0.030 C 
HETATM   11  N4  UNL     1      24.430   1.642  52.601  1.00  0.00    -0.389 N 
HETATM   12  C17 UNL     1      26.513   0.287  53.290  1.00  0.00     0.004 C 
HETATM   13  C18 UNL     1      26.523   1.726  53.770  1.00  0.00     0.020 C 
HETATM   14  C19 UNL     1      25.186   2.387  53.536  1.00  0.00     0.119 C 
HETATM   15  C20 UNL     1      23.591   2.334  51.705  1.00  0.00     0.239 C 
HETATM   16  N5  UNL     1      22.352   2.771  52.160  1.00  0.00    -0.387 N 
HETATM   17  C21 UNL     1      22.094   4.163  52.250  1.00  0.00     0.146 C 
ENDBRANCH   2   4
BRANCH   3  18
HETATM   18  C3  UNL     1      18.630   2.677  51.431  1.00  0.00     0.807 C 
BRANCH  18  19
HETATM   19  N2  UNL     1      18.043   3.691  51.967  1.00  0.00     0.060 NA
BRANCH  19  20
HETATM   20  C4  UNL     1      16.690   4.021  51.505  1.00  0.00     0.375 C 
BRANCH  20  21
HETATM   21  N3  UNL     1      15.887   4.434  52.658  1.00  0.00    -0.366 N 
HETATM   22  H7  UNL     1      16.188   5.257  53.227  1.00  0.00     0.161 HD
BRANCH  21  23
HETATM   23  C5  UNL     1      14.691   3.791  53.089  1.00  0.00     0.032 A 
HETATM   24  C6  UNL     1      14.403   2.471  52.846  1.00  0.00     0.029 A 
HETATM   25  C7  UNL     1      13.229   1.901  53.288  1.00  0.00     0.005 A 
HETATM   26  C8  UNL     1      12.284   2.621  53.994  1.00  0.00     0.042 A 
HETATM   27  C9  UNL     1      12.561   3.947  54.244  1.00  0.00     0.118 A 
HETATM   28  F1  UNL     1      11.610   4.617  54.937  1.00  0.00    -0.206 F 
HETATM   29  C10 UNL     1      13.753   4.490  53.785  1.00  0.00     0.071 A 
ENDBRANCH  21  23
ENDBRANCH  20  21
ENDBRANCH  19  20
ENDBRANCH  18  19
ENDBRANCH   3  18
TORSDOF 6
ENDMDL
MODEL 3
REMARK VINA RESULT:      -7.4      4.306      7.462
REMARK  6 active torsions:
REMARK  status: ('A' for Active; 'I' for Inactive)
REMARK    1  A    between atoms: C2_2  and  C11_15 
REMARK    2  A    between atoms: N1_3  and  C3_4 
REMARK    3  A    between atoms: C3_4  and  N2_5 
REMARK    4  A    between atoms: N2_5  and  C4_6 
REMARK    5  A    between atoms: C4_6  and  N3_7 
REMARK    6  A    between atoms: N3_7  and  C5_8 
ROOT
HETATM    1  C1  UNL     1      22.667   2.089  49.446  1.00  0.00     0.068 C 
HETATM    2  C2  UNL     1      21.958   2.495  50.685  1.00  0.00     0.034 C 
HETATM    3  N1  UNL     1      20.740   2.814  50.318  1.00  0.00    -0.256 NA
ENDROOT
BRANCH   2   4
HETATM    4  C11 UNL     1      22.510   2.538  52.086  1.00  0.00     0.185 C 
HETATM    5  C12 UNL     1      22.605   1.161  52.654  1.00  0.00     0.081 A 
HETATM    6  C13 UNL     1      23.649   0.360  52.768  1.00  0.00    -0.002 A 
HETATM    7  O1  UNL     1      21.797   0.180  53.249  1.00  0.00    -0.348 OA
HETATM    8  C14 UNL     1      22.844  -0.723  53.406  1.00  0.00     0.214 A 
HETATM    9  C15 UNL     1      25.067   0.574  52.368  1.00  0.00     0.114 C 
HETATM   10  C16 UNL     1      25.990  -0.411  53.037  1.00  0.00     0.030 C 
HETATM   11  N4  UNL     1      25.548   1.888  52.520  1.00  0.00    -0.389 N 
HETATM   12  C17 UNL     1      27.399   0.152  52.976  1.00  0.00     0.004 C 
HETATM   13  C18 UNL     1      27.445   1.361  53.891  1.00  0.00     0.020 C 
HETATM   14  C19 UNL     1      26.209   2.214  53.727  1.00  0.00     0.119 C 
HETATM   15  C20 UNL     1      24.905   2.917  51.803  1.00  0.00     0.239 C 
HETATM   16  N5  UNL     1      23.648   3.334  52.226  1.00  0.00    -0.387 N 
HETATM   17  C21 UNL     1      23.484   4.650  52.728  1.00  0.00     0.146 C 
ENDBRANCH   2   4
BRANCH   3  18
HETATM   18  C3  UNL     1      19.762   3.250  51.218  1.00  0.00     0.807 C 
BRANCH  18  19
HETATM   19  N2  UNL     1      18.757   3.493  51.988  1.00  0.00     0.060 NA
BRANCH  19  20
HETATM   20  C4  UNL     1      17.475   2.862  51.659  1.00  0.00     0.375 C 
BRANCH  20  21
HETATM   21  N3  UNL     1      17.735   1.539  51.088  1.00  0.00    -0.366 N 
HETATM   22  H7  UNL     1      18.064   1.461  50.099  1.00  0.00     0.161 HD
BRANCH  21  23
HETATM   23  C5  UNL     1      17.573   0.306  51.783  1.00  0.00     0.032 A 
HETATM   24  C6  UNL     1      16.413  -0.428  51.777  1.00  0.00     0.029 A 
HETATM   25  C7  UNL     1      16.315  -1.616  52.468  1.00  0.00     0.005 A 
HETATM   26  C8  UNL     1      17.368  -2.130  53.199  1.00  0.00     0.042 A 
HETATM   27  C9  UNL     1      18.538  -1.403  53.213  1.00  0.00     0.118 A 
HETATM   28  F1  UNL     1      19.546  -1.940  53.940  1.00  0.00    -0.206 F 
HETATM   29  C10 UNL     1      18.604  -0.210  52.506  1.00  0.00     0.071 A 
ENDBRANCH  21  23
ENDBRANCH  20  21
ENDBRANCH  19  20
ENDBRANCH  18  19
ENDBRANCH   3  18
TORSDOF 6
ENDMDL
MODEL 4
REMARK VINA RESULT:      -7.3      1.692      2.344
REMARK  6 active torsions:
REMARK  status: ('A' for Active; 'I' for Inactive)
REMARK    1  A    between atoms: C2_2  and  C11_15 
REMARK    2  A    between atoms: N1_3  and  C3_4 
REMARK    3  A    between atoms: C3_4  and  N2_5 
REMARK    4  A    between atoms: N2_5  and  C4_6 
REMARK    5  A    between atoms: C4_6  and  N3_7 
REMARK    6  A    between atoms: N3_7  and  C5_8 
ROOT
HETATM    1  C1  UNL     1      22.927   5.134  47.804  1.00  0.00     0.068 C 
HETATM    2  C2  UNL     1      23.400   4.902  49.192  1.00  0.00     0.034 C 
HETATM    3  N1  UNL     1      22.691   3.900  49.654  1.00  0.00    -0.256 NA
ENDROOT
BRANCH   2   4
HETATM    4  C11 UNL     1      24.474   5.654  49.933  1.00  0.00     0.185 C 
HETATM    5  C12 UNL     1      25.827   5.235  49.462  1.00  0.00     0.081 A 
HETATM    6  C13 UNL     1      26.651   5.825  48.616  1.00  0.00    -0.002 A 
HETATM    7  O1  UNL     1      26.757   4.199  49.634  1.00  0.00    -0.348 OA
HETATM    8  C14 UNL     1      27.681   4.754  48.755  1.00  0.00     0.214 A 
HETATM    9  C15 UNL     1      26.497   7.098  47.859  1.00  0.00     0.114 C 
HETATM   10  C16 UNL     1      27.817   7.599  47.334  1.00  0.00     0.030 C 
HETATM   11  N4  UNL     1      25.809   8.124  48.535  1.00  0.00    -0.389 N 
HETATM   12  C17 UNL     1      27.666   9.076  47.018  1.00  0.00     0.004 C 
HETATM   13  C18 UNL     1      27.508   9.807  48.338  1.00  0.00     0.020 C 
HETATM   14  C19 UNL     1      26.575   9.063  49.264  1.00  0.00     0.119 C 
HETATM   15  C20 UNL     1      24.480   7.881  48.934  1.00  0.00     0.239 C 
HETATM   16  N5  UNL     1      24.255   7.031  50.010  1.00  0.00    -0.387 N 
HETATM   17  C21 UNL     1      23.690   7.551  51.202  1.00  0.00     0.146 C 
ENDBRANCH   2   4
BRANCH   3  18
HETATM   18  C3  UNL     1      22.851   3.384  50.944  1.00  0.00     0.807 C 
BRANCH  18  19
HETATM   19  N2  UNL     1      23.113   2.771  52.048  1.00  0.00     0.060 NA
BRANCH  19  20
HETATM   20  C4  UNL     1      24.161   3.330  52.908  1.00  0.00     0.375 C 
BRANCH  20  21
HETATM   21  N3  UNL     1      25.467   2.984  52.343  1.00  0.00    -0.366 N 
HETATM   22  H7  UNL     1      25.926   3.638  51.669  1.00  0.00     0.161 HD
BRANCH  21  23
HETATM   23  C5  UNL     1      26.193   1.794  52.639  1.00  0.00     0.032 A 
HETATM   24  C6  UNL     1      26.109   0.643  51.896  1.00  0.00     0.029 A 
HETATM   25  C7  UNL     1      26.836  -0.479  52.230  1.00  0.00     0.005 A 
HETATM   26  C8  UNL     1      27.682  -0.507  53.320  1.00  0.00     0.042 A 
HETATM   27  C9  UNL     1      27.776   0.643  54.075  1.00  0.00     0.118 A 
HETATM   28  F1  UNL     1      28.616   0.574  55.134  1.00  0.00    -0.206 F 
HETATM   29  C10 UNL     1      27.030   1.755  53.711  1.00  0.00     0.071 A 
ENDBRANCH  21  23
ENDBRANCH  20  21
ENDBRANCH  19  20
ENDBRANCH  18  19
ENDBRANCH   3  18
TORSDOF 6
ENDMDL
MODEL 5
REMARK VINA RESULT:      -7.3      2.479      3.356
REMARK  6 active torsions:
REMARK  status: ('A' for Active; 'I' for Inactive)
REMARK    1  A    between atoms: C2_2  and  C11_15 
REMARK    2  A    between atoms: N1_3  and  C3_4 
REMARK    3  A    between atoms: C3_4  and  N2_5 
REMARK    4  A    between atoms: N2_5  and  C4_6 
REMARK    5  A    between atoms: C4_6  and  N3_7 
REMARK    6  A    between atoms: N3_7  and  C5_8 
ROOT
HETATM    1  C1  UNL     1      22.716   2.310  47.918  1.00  0.00     0.068 C 
HETATM    2  C2  UNL     1      22.306   2.644  49.306  1.00  0.00     0.034 C 
HETATM    3  N1  UNL     1      21.179   2.006  49.513  1.00  0.00    -0.256 NA
ENDROOT
BRANCH   2   4
HETATM    4  C11 UNL     1      23.026   3.531  50.287  1.00  0.00     0.185 C 
HETATM    5  C12 UNL     1      24.442   3.088  50.453  1.00  0.00     0.081 A 
HETATM    6  C13 UNL     1      25.549   3.571  49.919  1.00  0.00    -0.002 A 
HETATM    7  O1  UNL     1      25.198   2.118  51.128  1.00  0.00    -0.348 OA
HETATM    8  C14 UNL     1      26.409   2.564  50.609  1.00  0.00     0.214 A 
HETATM    9  C15 UNL     1      25.742   4.712  48.982  1.00  0.00     0.114 C 
HETATM   10  C16 UNL     1      27.177   5.169  48.949  1.00  0.00     0.030 C 
HETATM   11  N4  UNL     1      24.877   5.805  49.174  1.00  0.00    -0.389 N 
HETATM   12  C17 UNL     1      27.207   6.578  48.383  1.00  0.00     0.004 C 
HETATM   13  C18 UNL     1      26.567   7.492  49.411  1.00  0.00     0.020 C 
HETATM   14  C19 UNL     1      25.324   6.865  49.997  1.00  0.00     0.119 C 
HETATM   15  C20 UNL     1      23.491   5.583  49.051  1.00  0.00     0.239 C 
HETATM   16  N5  UNL     1      22.836   4.896  50.066  1.00  0.00    -0.387 N 
HETATM   17  C21 UNL     1      21.865   5.570  50.850  1.00  0.00     0.146 C 
ENDBRANCH   2   4
BRANCH   3  18
HETATM   18  C3  UNL     1      20.477   2.073  50.722  1.00  0.00     0.807 C 
BRANCH  18  19
HETATM   19  N2  UNL     1      19.794   2.323  51.786  1.00  0.00     0.060 NA
BRANCH  19  20
HETATM   20  C4  UNL     1      20.383   1.958  53.079  1.00  0.00     0.375 C 
BRANCH  20  21
HETATM   21  N3  UNL     1      20.736   0.537  53.050  1.00  0.00    -0.366 N 
HETATM   22  H7  UNL     1      20.123  -0.136  52.537  1.00  0.00     0.161 HD
BRANCH  21  23
HETATM   23  C5  UNL     1      21.881  -0.030  53.681  1.00  0.00     0.032 A 
HETATM   24  C6  UNL     1      21.829  -0.768  54.836  1.00  0.00     0.029 A 
HETATM   25  C7  UNL     1      22.971  -1.293  55.402  1.00  0.00     0.005 A 
HETATM   26  C8  UNL     1      24.219  -1.108  54.842  1.00  0.00     0.042 A 
HETATM   27  C9  UNL     1      24.285  -0.369  53.681  1.00  0.00     0.118 A 
HETATM   28  F1  UNL     1      25.526  -0.210  53.164  1.00  0.00    -0.206 F 
HETATM   29  C10 UNL     1      23.116   0.146  53.137  1.00  0.00     0.071 A 
ENDBRANCH  21  23
ENDBRANCH  20  21
ENDBRANCH  19  20
ENDBRANCH  18  19
ENDBRANCH   3  18
TORSDOF 6
ENDMDL
MODEL 6
REMARK VINA RESULT:      -7.2      2.639      4.247
REMARK  6 active torsions:
REMARK  status: ('A' for Active; 'I' for Inactive)
REMARK    1  A    between atoms: C2_2  and  C11_15 
REMARK    2  A    between atoms: N1_3  and  C3_4 
REMARK    3  A    between atoms: C3_4  and  N2_5 
REMARK    4  A    between atoms: N2_5  and  C4_6 
REMARK    5  A    between atoms: C4_6  and  N3_7 
REMARK    6  A    between atoms: N3_7  and  C5_8 
ROOT
HETATM    1  C1  UNL     1      26.950   3.982  49.249  1.00  0.00     0.068 C 
HETATM    2  C2  UNL     1      26.135   3.548  50.412  1.00  0.00     0.034 C 
HETATM    3  N1  UNL     1      26.925   2.806  51.151  1.00  0.00    -0.256 NA
ENDROOT
BRANCH   2   4
HETATM    4  C11 UNL     1      24.695   3.883  50.700  1.00  0.00     0.185 C 
HETATM    5  C12 UNL     1      24.451   5.345  50.523  1.00  0.00     0.081 A 
HETATM    6  C13 UNL     1      23.914   5.999  49.509  1.00  0.00    -0.002 A 
HETATM    7  O1  UNL     1      24.629   6.559  51.204  1.00  0.00    -0.348 OA
HETATM    8  C14 UNL     1      24.075   7.323  50.181  1.00  0.00     0.214 A 
HETATM    9  C15 UNL     1      23.377   5.489  48.218  1.00  0.00     0.114 C 
HETATM   10  C16 UNL     1      22.501   6.508  47.536  1.00  0.00     0.030 C 
HETATM   11  N4  UNL     1      22.728   4.241  48.282  1.00  0.00    -0.389 N 
HETATM   12  C17 UNL     1      21.633   5.780  46.526  1.00  0.00     0.004 C 
HETATM   13  C18 UNL     1      20.648   4.929  47.305  1.00  0.00     0.020 C 
HETATM   14  C19 UNL     1      21.325   4.234  48.462  1.00  0.00     0.119 C 
HETATM   15  C20 UNL     1      23.472   3.130  48.726  1.00  0.00     0.239 C 
HETATM   16  N5  UNL     1      23.778   3.033  50.078  1.00  0.00    -0.387 N 
HETATM   17  C21 UNL     1      23.222   1.977  50.844  1.00  0.00     0.146 C 
ENDBRANCH   2   4
BRANCH   3  18
HETATM   18  C3  UNL     1      26.511   2.209  52.346  1.00  0.00     0.807 C 
BRANCH  18  19
HETATM   19  N2  UNL     1      26.247   1.792  53.537  1.00  0.00     0.060 NA
BRANCH  19  20
HETATM   20  C4  UNL     1      27.153   0.804  54.133  1.00  0.00     0.375 C 
BRANCH  20  21
HETATM   21  N3  UNL     1      26.516  -0.513  54.075  1.00  0.00    -0.366 N 
HETATM   22  H7  UNL     1      27.095  -1.358  53.869  1.00  0.00     0.161 HD
BRANCH  21  23
HETATM   23  C5  UNL     1      25.127  -0.755  54.283  1.00  0.00     0.032 A 
HETATM   24  C6  UNL     1      24.588  -1.126  55.489  1.00  0.00     0.029 A 
HETATM   25  C7  UNL     1      23.235  -1.346  55.631  1.00  0.00     0.005 A 
HETATM   26  C8  UNL     1      22.354  -1.206  54.577  1.00  0.00     0.042 A 
HETATM   27  C9  UNL     1      22.882  -0.833  53.360  1.00  0.00     0.118 A 
HETATM   28  F1  UNL     1      21.986  -0.708  52.353  1.00  0.00    -0.206 F 
HETATM   29  C10 UNL     1      24.250  -0.620  53.251  1.00  0.00     0.071 A 
ENDBRANCH  21  23
ENDBRANCH  20  21
ENDBRANCH  19  20
ENDBRANCH  18  19
ENDBRANCH   3  18
TORSDOF 6
ENDMDL
MODEL 7
REMARK VINA RESULT:      -7.1      3.480      6.672
REMARK  6 active torsions:
REMARK  status: ('A' for Active; 'I' for Inactive)
REMARK    1  A    between atoms: C2_2  and  C11_15 
REMARK    2  A    between atoms: N1_3  and  C3_4 
REMARK    3  A    between atoms: C3_4  and  N2_5 
REMARK    4  A    between atoms: N2_5  and  C4_6 
REMARK    5  A    between atoms: C4_6  and  N3_7 
REMARK    6  A    between atoms: N3_7  and  C5_8 
ROOT
HETATM    1  C1  UNL     1      24.037   6.459  51.213  1.00  0.00     0.068 C 
HETATM    2  C2  UNL     1      24.871   5.709  50.240  1.00  0.00     0.034 C 
HETATM    3  N1  UNL     1      25.823   6.532  49.870  1.00  0.00    -0.256 NA
ENDROOT
BRANCH   2   4
HETATM    4  C11 UNL     1      24.678   4.293  49.765  1.00  0.00     0.185 C 
HETATM    5  C12 UNL     1      25.538   3.356  50.546  1.00  0.00     0.081 A 
HETATM    6  C13 UNL     1      25.229   2.564  51.557  1.00  0.00    -0.002 A 
HETATM    7  O1  UNL     1      26.866   2.909  50.610  1.00  0.00    -0.348 OA
HETATM    8  C14 UNL     1      26.625   2.048  51.677  1.00  0.00     0.214 A 
HETATM    9  C15 UNL     1      23.924   2.349  52.241  1.00  0.00     0.114 C 
HETATM   10  C16 UNL     1      23.924   1.083  53.057  1.00  0.00     0.030 C 
HETATM   11  N4  UNL     1      22.789   2.405  51.410  1.00  0.00    -0.389 N 
HETATM   12  C17 UNL     1      22.480   0.690  53.311  1.00  0.00     0.004 C 
HETATM   13  C18 UNL     1      21.888   0.257  51.983  1.00  0.00     0.020 C 
HETATM   14  C19 UNL     1      22.304   1.191  50.872  1.00  0.00     0.119 C 
HETATM   15  C20 UNL     1      22.537   3.603  50.712  1.00  0.00     0.239 C 
HETATM   16  N5  UNL     1      23.341   3.918  49.623  1.00  0.00    -0.387 N 
HETATM   17  C21 UNL     1      22.770   3.959  48.325  1.00  0.00     0.146 C 
ENDBRANCH   2   4
BRANCH   3  18
HETATM   18  C3  UNL     1      26.818   6.182  48.951  1.00  0.00     0.807 C 
BRANCH  18  19
HETATM   19  N2  UNL     1      27.856   5.855  48.260  1.00  0.00     0.060 NA
BRANCH  19  20
HETATM   20  C4  UNL     1      28.946   6.833  48.160  1.00  0.00     0.375 C 
BRANCH  20  21
HETATM   21  N3  UNL     1      30.053   6.391  49.012  1.00  0.00    -0.366 N 
HETATM   22  H7  UNL     1      29.994   6.528  50.045  1.00  0.00     0.161 HD
BRANCH  21  23
HETATM   23  C5  UNL     1      31.246   5.771  48.539  1.00  0.00     0.032 A 
HETATM   24  C6  UNL     1      31.271   4.818  47.552  1.00  0.00     0.029 A 
HETATM   25  C7  UNL     1      32.456   4.252  47.134  1.00  0.00     0.005 A 
HETATM   26  C8  UNL     1      33.673   4.609  47.681  1.00  0.00     0.042 A 
HETATM   27  C9  UNL     1      33.661   5.565  48.674  1.00  0.00     0.118 A 
HETATM   28  F1  UNL     1      34.873   5.886  49.183  1.00  0.00    -0.206 F 
HETATM   29  C10 UNL     1      32.450   6.115  49.071  1.00  0.00     0.071 A 
ENDBRANCH  21  23
ENDBRANCH  20  21
ENDBRANCH  19  20
ENDBRANCH  18  19
ENDBRANCH   3  18
TORSDOF 6
ENDMDL
MODEL 8
REMARK VINA RESULT:      -7.0      3.230      6.633
REMARK  6 active torsions:
REMARK  status: ('A' for Active; 'I' for Inactive)
REMARK    1  A    between atoms: C2_2  and  C11_15 
REMARK    2  A    between atoms: N1_3  and  C3_4 
REMARK    3  A    between atoms: C3_4  and  N2_5 
REMARK    4  A    between atoms: N2_5  and  C4_6 
REMARK    5  A    between atoms: C4_6  and  N3_7 
REMARK    6  A    between atoms: N3_7  and  C5_8 
ROOT
HETATM    1  C1  UNL     1      26.279   2.400  50.434  1.00  0.00     0.068 C 
HETATM    2  C2  UNL     1      25.673   3.655  49.923  1.00  0.00     0.034 C 
HETATM    3  N1  UNL     1      26.658   4.347  49.401  1.00  0.00    -0.256 NA
ENDROOT
BRANCH   2   4
HETATM    4  C11 UNL     1      24.225   4.066  49.981  1.00  0.00     0.185 C 
HETATM    5  C12 UNL     1      23.386   3.149  49.154  1.00  0.00     0.081 A 
HETATM    6  C13 UNL     1      22.628   2.132  49.519  1.00  0.00    -0.002 A 
HETATM    7  O1  UNL     1      23.029   2.927  47.815  1.00  0.00    -0.348 OA
HETATM    8  C14 UNL     1      22.210   1.843  48.114  1.00  0.00     0.214 A 
HETATM    9  C15 UNL     1      22.365   1.571  50.872  1.00  0.00     0.114 C 
HETATM   10  C16 UNL     1      21.144   0.688  50.883  1.00  0.00     0.030 C 
HETATM   11  N4  UNL     1      22.305   2.513  51.916  1.00  0.00    -0.389 N 
HETATM   12  C17 UNL     1      20.672   0.558  52.320  1.00  0.00     0.004 C 
HETATM   13  C18 UNL     1      20.135   1.912  52.744  1.00  0.00     0.020 C 
HETATM   14  C19 UNL     1      21.036   3.028  52.270  1.00  0.00     0.119 C 
HETATM   15  C20 UNL     1      23.447   3.301  52.165  1.00  0.00     0.239 C 
HETATM   16  N5  UNL     1      23.757   4.320  51.272  1.00  0.00    -0.387 N 
HETATM   17  C21 UNL     1      23.696   5.668  51.706  1.00  0.00     0.146 C 
ENDBRANCH   2   4
BRANCH   3  18
HETATM   18  C3  UNL     1      26.478   5.602  48.811  1.00  0.00     0.807 C 
BRANCH  18  19
HETATM   19  N2  UNL     1      26.512   6.767  48.259  1.00  0.00     0.060 NA
BRANCH  19  20
HETATM   20  C4  UNL     1      27.814   7.276  47.814  1.00  0.00     0.375 C 
BRANCH  20  21
HETATM   21  N3  UNL     1      28.813   6.976  48.841  1.00  0.00    -0.366 N 
HETATM   22  H7  UNL     1      28.596   7.175  49.844  1.00  0.00     0.161 HD
BRANCH  21  23
HETATM   23  C5  UNL     1      30.099   6.417  48.588  1.00  0.00     0.032 A 
HETATM   24  C6  UNL     1      31.269   6.938  49.081  1.00  0.00     0.029 A 
HETATM   25  C7  UNL     1      32.485   6.354  48.803  1.00  0.00     0.005 A 
HETATM   26  C8  UNL     1      32.594   5.222  48.020  1.00  0.00     0.042 A 
HETATM   27  C9  UNL     1      31.427   4.688  47.518  1.00  0.00     0.118 A 
HETATM   28  F1  UNL     1      31.576   3.580  46.755  1.00  0.00    -0.206 F 
HETATM   29  C10 UNL     1      30.218   5.301  47.817  1.00  0.00     0.071 A 
ENDBRANCH  21  23
ENDBRANCH  20  21
ENDBRANCH  19  20
ENDBRANCH  18  19
ENDBRANCH   3  18
TORSDOF 6
ENDMDL
MODEL 9
REMARK VINA RESULT:      -6.9      1.700      2.538
REMARK  6 active torsions:
REMARK  status: ('A' for Active; 'I' for Inactive)
REMARK    1  A    between atoms: C2_2  and  C11_15 
REMARK    2  A    between atoms: N1_3  and  C3_4 
REMARK    3  A    between atoms: C3_4  and  N2_5 
REMARK    4  A    between atoms: N2_5  and  C4_6 
REMARK    5  A    between atoms: C4_6  and  N3_7 
REMARK    6  A    between atoms: N3_7  and  C5_8 
ROOT
HETATM    1  C1  UNL     1      22.137   6.149  51.173  1.00  0.00     0.068 C 
HETATM    2  C2  UNL     1      22.802   4.869  50.820  1.00  0.00     0.034 C 
HETATM    3  N1  UNL     1      22.382   3.989  51.696  1.00  0.00    -0.256 NA
ENDROOT
BRANCH   2   4
HETATM    4  C11 UNL     1      23.763   4.616  49.688  1.00  0.00     0.185 C 
HETATM    5  C12 UNL     1      23.252   5.219  48.422  1.00  0.00     0.081 A 
HETATM    6  C13 UNL     1      23.581   6.352  47.828  1.00  0.00    -0.002 A 
HETATM    7  O1  UNL     1      22.334   4.954  47.394  1.00  0.00    -0.348 OA
HETATM    8  C14 UNL     1      22.621   6.129  46.706  1.00  0.00     0.214 A 
HETATM    9  C15 UNL     1      24.567   7.392  48.229  1.00  0.00     0.114 C 
HETATM   10  C16 UNL     1      24.916   8.303  47.081  1.00  0.00     0.030 C 
HETATM   11  N4  UNL     1      25.732   6.911  48.855  1.00  0.00    -0.389 N 
HETATM   12  C17 UNL     1      26.229   8.990  47.411  1.00  0.00     0.004 C 
HETATM   13  C18 UNL     1      27.317   7.933  47.370  1.00  0.00     0.020 C 
HETATM   14  C19 UNL     1      26.862   6.659  48.042  1.00  0.00     0.119 C 
HETATM   15  C20 UNL     1      25.591   6.192  50.058  1.00  0.00     0.239 C 
HETATM   16  N5  UNL     1      25.095   4.894  50.001  1.00  0.00    -0.387 N 
HETATM   17  C21 UNL     1      25.935   3.811  50.365  1.00  0.00     0.146 C 
ENDBRANCH   2   4
BRANCH   3  18
HETATM   18  C3  UNL     1      22.792   2.651  51.689  1.00  0.00     0.807 C 
BRANCH  18  19
HETATM   19  N2  UNL     1      23.333   1.485  51.774  1.00  0.00     0.060 NA
BRANCH  19  20
HETATM   20  C4  UNL     1      24.383   1.289  52.781  1.00  0.00     0.375 C 
BRANCH  20  21
HETATM   21  N3  UNL     1      25.494   0.560  52.166  1.00  0.00    -0.366 N 
HETATM   22  H7  UNL     1      25.349   0.074  51.252  1.00  0.00     0.161 HD
BRANCH  21  23
HETATM   23  C5  UNL     1      26.801   0.449  52.722  1.00  0.00     0.032 A 
HETATM   24  C6  UNL     1      27.492  -0.733  52.819  1.00  0.00     0.029 A 
HETATM   25  C7  UNL     1      28.756  -0.780  53.366  1.00  0.00     0.005 A 
HETATM   26  C8  UNL     1      29.392   0.349  53.843  1.00  0.00     0.042 A 
HETATM   27  C9  UNL     1      28.709   1.542  53.751  1.00  0.00     0.118 A 
HETATM   28  F1  UNL     1      29.366   2.625  54.229  1.00  0.00    -0.206 F 
HETATM   29  C10 UNL     1      27.437   1.555  53.194  1.00  0.00     0.071 A 
ENDBRANCH  21  23
ENDBRANCH  20  21
ENDBRANCH  19  20
ENDBRANCH  18  19
ENDBRANCH   3  18
TORSDOF 6
ENDMDL
