MODEL 1
REMARK VINA RESULT:      -8.8      0.000      0.000
REMARK  6 active torsions:
REMARK  status: ('A' for Active; 'I' for Inactive)
REMARK    1  A    between atoms: N1_1  and  C1_2 
REMARK    2  A    between atoms: C2_4  and  N3_5 
REMARK    3  A    between atoms: N3_5  and  C3_6 
REMARK    4  A    between atoms: C6_9  and  S1_10 
REMARK    5  A    between atoms: S1_10  and  N4_11 
REMARK    6  A    between atoms: N6_17  and  C9_18 
ROOT
HETATM    1  C1  UNL     1      24.745   1.034  52.354  1.00  0.00     0.733 A 
HETATM    2  N2  UNL     1      24.224   1.769  51.395  1.00  0.00     0.131 NA
HETATM    3  C2  UNL     1      25.203   2.513  50.834  1.00  0.00     0.760 A 
HETATM    4  N5  UNL     1      26.301   2.170  51.511  1.00  0.00     0.038 NA
HETATM    5  N6  UNL     1      26.064   1.279  52.438  1.00  0.00    -0.068 N 
ENDROOT
BRANCH   3   6
HETATM    6  N3  UNL     1      25.041   3.422  49.779  1.00  0.00    -0.186 N 
HETATM    7  H3  UNL     1      24.490   3.103  48.928  1.00  0.00     0.184 HD
BRANCH   6   8
HETATM    8  C3  UNL     1      25.532   4.753  49.697  1.00  0.00     0.049 A 
HETATM    9  C4  UNL     1      26.579   5.159  48.900  1.00  0.00     0.031 A 
HETATM   10  C5  UNL     1      27.046   6.446  48.828  1.00  0.00     0.027 A 
HETATM   11  C6  UNL     1      26.467   7.422  49.577  1.00  0.00     0.074 A 
HETATM   12  C7  UNL     1      25.427   7.076  50.382  1.00  0.00     0.027 A 
HETATM   13  C8  UNL     1      24.981   5.780  50.435  1.00  0.00     0.031 A 
BRANCH  11  14
HETATM   14  S1  UNL     1      27.037   9.071  49.508  1.00  0.00     0.239 S 
HETATM   15  O1  UNL     1      28.068   9.179  48.435  1.00  0.00    -0.206 OA
HETATM   16  O2  UNL     1      25.849   9.940  49.163  1.00  0.00    -0.206 OA
BRANCH  14  17
HETATM   17  N4  UNL     1      27.648   9.609  51.022  1.00  0.00    -0.225 NA
HETATM   18  H6  UNL     1      27.026   9.377  51.830  1.00  0.00     0.136 HD
HETATM   19  H7  UNL     1      27.890  10.612  51.003  1.00  0.00     0.136 HD
ENDBRANCH  14  17
ENDBRANCH  11  14
ENDBRANCH   6   8
ENDBRANCH   3   6
BRANCH   1  20
HETATM   20  N1  UNL     1      23.931   0.140  53.126  1.00  0.00    -0.231 N 
HETATM   21  H1  UNL     1      24.386  -0.760  53.454  1.00  0.00     0.174 HD
HETATM   22  H2  UNL     1      22.944   0.433  53.313  1.00  0.00     0.174 HD
ENDBRANCH   1  20
BRANCH   5  23
HETATM   23  C9  UNL     1      26.874   0.598  53.414  1.00  0.00     0.218 C 
HETATM   24  C10 UNL     1      27.332  -0.742  52.989  1.00  0.00     0.050 C 
HETATM   25  C11 UNL     1      28.558  -1.233  53.225  1.00  0.00     0.116 C 
HETATM   26  F1  UNL     1      28.988  -2.476  52.832  1.00  0.00    -0.206 F 
HETATM   27  C12 UNL     1      29.508  -0.389  53.952  1.00  0.00     0.057 C 
HETATM   28  C13 UNL     1      29.032   0.725  54.430  1.00  0.00     0.017 C 
HETATM   29  C14 UNL     1      28.049   1.363  53.856  1.00  0.00     0.134 C 
HETATM   30  F2  UNL     1      28.605   2.573  53.929  1.00  0.00    -0.207 F 
ENDBRANCH   5  23
TORSDOF 6
ENDMDL
MODEL 2
REMARK VINA RESULT:      -8.2      1.958      2.356
REMARK  6 active torsions:
REMARK  status: ('A' for Active; 'I' for Inactive)
REMARK    1  A    between atoms: N1_1  and  C1_2 
REMARK    2  A    between atoms: C2_4  and  N3_5 
REMARK    3  A    between atoms: N3_5  and  C3_6 
REMARK    4  A    between atoms: C6_9  and  S1_10 
REMARK    5  A    between atoms: S1_10  and  N4_11 
REMARK    6  A    between atoms: N6_17  and  C9_18 
ROOT
HETATM    1  C1  UNL     1      25.207   2.648  52.090  1.00  0.00     0.733 A 
HETATM    2  N2  UNL     1      24.927   3.364  51.021  1.00  0.00     0.131 NA
HETATM    3  C2  UNL     1      26.057   3.534  50.301  1.00  0.00     0.760 A 
HETATM    4  N5  UNL     1      26.991   2.887  51.002  1.00  0.00     0.038 NA
HETATM    5  N6  UNL     1      26.515   2.339  52.090  1.00  0.00    -0.068 N 
ENDROOT
BRANCH   3   6
HETATM    6  N3  UNL     1      26.164   4.241  49.095  1.00  0.00    -0.186 N 
HETATM    7  H3  UNL     1      25.482   4.001  48.316  1.00  0.00     0.184 HD
BRANCH   6   8
HETATM    8  C3  UNL     1      27.092   5.267  48.769  1.00  0.00     0.049 A 
HETATM    9  C4  UNL     1      28.408   5.057  48.420  1.00  0.00     0.031 A 
HETATM   10  C5  UNL     1      29.296   6.054  48.108  1.00  0.00     0.027 A 
HETATM   11  C6  UNL     1      28.896   7.353  48.131  1.00  0.00     0.074 A 
HETATM   12  C7  UNL     1      27.605   7.617  48.469  1.00  0.00     0.027 A 
HETATM   13  C8  UNL     1      26.739   6.600  48.778  1.00  0.00     0.031 A 
BRANCH  11  14
HETATM   14  S1  UNL     1      30.001   8.645  47.738  1.00  0.00     0.239 S 
HETATM   15  O1  UNL     1      29.404   9.941  48.177  1.00  0.00    -0.206 OA
HETATM   16  O2  UNL     1      31.279   8.388  48.505  1.00  0.00    -0.206 OA
BRANCH  14  17
HETATM   17  N4  UNL     1      30.399   8.673  46.067  1.00  0.00    -0.225 NA
HETATM   18  H6  UNL     1      30.607   7.728  45.670  1.00  0.00     0.136 HD
HETATM   19  H7  UNL     1      31.155   9.346  45.863  1.00  0.00     0.136 HD
ENDBRANCH  14  17
ENDBRANCH  11  14
ENDBRANCH   6   8
ENDBRANCH   3   6
BRANCH   1  20
HETATM   20  N1  UNL     1      24.188   2.310  53.041  1.00  0.00    -0.231 N 
HETATM   21  H1  UNL     1      24.446   1.602  53.788  1.00  0.00     0.174 HD
HETATM   22  H2  UNL     1      23.260   2.781  52.936  1.00  0.00     0.174 HD
ENDBRANCH   1  20
BRANCH   5  23
HETATM   23  C9  UNL     1      27.082   1.556  53.157  1.00  0.00     0.218 C 
HETATM   24  C10 UNL     1      27.138   0.106  52.877  1.00  0.00     0.050 C 
HETATM   25  C11 UNL     1      28.167  -0.689  53.208  1.00  0.00     0.116 C 
HETATM   26  F1  UNL     1      28.224  -2.037  52.950  1.00  0.00    -0.206 F 
HETATM   27  C12 UNL     1      29.311  -0.084  53.891  1.00  0.00     0.057 C 
HETATM   28  C13 UNL     1      29.172   1.162  54.243  1.00  0.00     0.017 C 
HETATM   29  C14 UNL     1      28.423   1.994  53.574  1.00  0.00     0.134 C 
HETATM   30  F2  UNL     1      29.303   2.994  53.556  1.00  0.00    -0.207 F 
ENDBRANCH   5  23
TORSDOF 6
ENDMDL
MODEL 3
REMARK VINA RESULT:      -7.4      2.835      3.807
REMARK  6 active torsions:
REMARK  status: ('A' for Active; 'I' for Inactive)
REMARK    1  A    between atoms: N1_1  and  C1_2 
REMARK    2  A    between atoms: C2_4  and  N3_5 
REMARK    3  A    between atoms: N3_5  and  C3_6 
REMARK    4  A    between atoms: C6_9  and  S1_10 
REMARK    5  A    between atoms: S1_10  and  N4_11 
REMARK    6  A    between atoms: N6_17  and  C9_18 
ROOT
HETATM    1  C1  UNL     1      23.773   4.598  52.014  1.00  0.00     0.733 A 
HETATM    2  N2  UNL     1      24.096   5.351  50.984  1.00  0.00     0.131 NA
HETATM    3  C2  UNL     1      24.903   4.644  50.163  1.00  0.00     0.760 A 
HETATM    4  N5  UNL     1      25.025   3.459  50.766  1.00  0.00     0.038 NA
HETATM    5  N6  UNL     1      24.357   3.394  51.888  1.00  0.00    -0.068 N 
ENDROOT
BRANCH   3   6
HETATM    6  N3  UNL     1      25.457   5.104  48.960  1.00  0.00    -0.186 N 
HETATM    7  H3  UNL     1      24.887   4.979  48.070  1.00  0.00     0.184 HD
BRANCH   6   8
HETATM    8  C3  UNL     1      26.716   5.734  48.768  1.00  0.00     0.049 A 
HETATM    9  C4  UNL     1      27.898   5.071  48.516  1.00  0.00     0.031 A 
HETATM   10  C5  UNL     1      29.108   5.688  48.333  1.00  0.00     0.027 A 
HETATM   11  C6  UNL     1      29.198   7.043  48.396  1.00  0.00     0.074 A 
HETATM   12  C7  UNL     1      28.060   7.747  48.642  1.00  0.00     0.027 A 
HETATM   13  C8  UNL     1      26.862   7.104  48.822  1.00  0.00     0.031 A 
BRANCH  11  14
HETATM   14  S1  UNL     1      30.724   7.859  48.167  1.00  0.00     0.239 S 
HETATM   15  O1  UNL     1      31.623   6.982  47.361  1.00  0.00    -0.206 OA
HETATM   16  O2  UNL     1      30.439   9.133  47.405  1.00  0.00    -0.206 OA
BRANCH  14  17
HETATM   17  N4  UNL     1      31.453   8.301  49.659  1.00  0.00    -0.225 NA
HETATM   18  H6  UNL     1      32.398   8.735  49.551  1.00  0.00     0.136 HD
HETATM   19  H7  UNL     1      31.469   7.514  50.327  1.00  0.00     0.136 HD
ENDBRANCH  14  17
ENDBRANCH  11  14
ENDBRANCH   6   8
ENDBRANCH   3   6
BRANCH   1  20
HETATM   20  N1  UNL     1      22.918   5.094  53.053  1.00  0.00    -0.231 N 
HETATM   21  H1  UNL     1      21.922   5.338  52.780  1.00  0.00     0.174 HD
HETATM   22  H2  UNL     1      23.331   5.185  54.011  1.00  0.00     0.174 HD
ENDBRANCH   1  20
BRANCH   5  23
HETATM   23  C9  UNL     1      24.162   2.377  52.889  1.00  0.00     0.218 C 
HETATM   24  C10 UNL     1      23.040   1.458  52.605  1.00  0.00     0.050 C 
HETATM   25  C11 UNL     1      23.071   0.135  52.825  1.00  0.00     0.116 C 
HETATM   26  F1  UNL     1      22.032  -0.723  52.562  1.00  0.00    -0.206 F 
HETATM   27  C12 UNL     1      24.296  -0.440  53.382  1.00  0.00     0.057 C 
HETATM   28  C13 UNL     1      25.212   0.411  53.747  1.00  0.00     0.017 C 
HETATM   29  C14 UNL     1      25.359   1.567  53.161  1.00  0.00     0.134 C 
HETATM   30  F2  UNL     1      26.686   1.501  53.049  1.00  0.00    -0.207 F 
ENDBRANCH   5  23
TORSDOF 6
ENDMDL
MODEL 4
REMARK VINA RESULT:      -7.2      4.377      5.569
REMARK  6 active torsions:
REMARK  status: ('A' for Active; 'I' for Inactive)
REMARK    1  A    between atoms: N1_1  and  C1_2 
REMARK    2  A    between atoms: C2_4  and  N3_5 
REMARK    3  A    between atoms: N3_5  and  C3_6 
REMARK    4  A    between atoms: C6_9  and  S1_10 
REMARK    5  A    between atoms: S1_10  and  N4_11 
REMARK    6  A    between atoms: N6_17  and  C9_18 
ROOT
HETATM    1  C1  UNL     1      24.641   6.094  51.034  1.00  0.00     0.733 A 
HETATM    2  N2  UNL     1      25.499   6.785  50.314  1.00  0.00     0.131 NA
HETATM    3  C2  UNL     1      25.752   6.111  49.170  1.00  0.00     0.760 A 
HETATM    4  N5  UNL     1      25.002   5.010  49.269  1.00  0.00     0.038 NA
HETATM    5  N6  UNL     1      24.317   4.964  50.382  1.00  0.00    -0.068 N 
ENDROOT
BRANCH   3   6
HETATM    6  N3  UNL     1      26.616   6.524  48.147  1.00  0.00    -0.186 N 
HETATM    7  H3  UNL     1      26.182   6.871  47.240  1.00  0.00     0.184 HD
BRANCH   6   8
HETATM    8  C3  UNL     1      28.036   6.542  48.164  1.00  0.00     0.049 A 
HETATM    9  C4  UNL     1      28.838   5.421  48.188  1.00  0.00     0.031 A 
HETATM   10  C5  UNL     1      30.208   5.448  48.205  1.00  0.00     0.027 A 
HETATM   11  C6  UNL     1      30.865   6.639  48.198  1.00  0.00     0.074 A 
HETATM   12  C7  UNL     1      30.121   7.777  48.174  1.00  0.00     0.027 A 
HETATM   13  C8  UNL     1      28.751   7.721  48.159  1.00  0.00     0.031 A 
BRANCH  11  14
HETATM   14  S1  UNL     1      32.609   6.708  48.219  1.00  0.00     0.239 S 
HETATM   15  O1  UNL     1      33.105   6.781  46.813  1.00  0.00    -0.206 OA
HETATM   16  O2  UNL     1      32.997   7.966  48.961  1.00  0.00    -0.206 OA
BRANCH  14  17
HETATM   17  N4  UNL     1      33.300   5.378  49.059  1.00  0.00    -0.225 NA
HETATM   18  H6  UNL     1      32.600   4.801  49.578  1.00  0.00     0.136 HD
HETATM   19  H7  UNL     1      34.078   5.673  49.671  1.00  0.00     0.136 HD
ENDBRANCH  14  17
ENDBRANCH  11  14
ENDBRANCH   6   8
ENDBRANCH   3   6
BRANCH   1  20
HETATM   20  N1  UNL     1      24.189   6.575  52.307  1.00  0.00    -0.231 N 
HETATM   21  H1  UNL     1      24.674   7.435  52.695  1.00  0.00     0.174 HD
HETATM   22  H2  UNL     1      23.414   6.047  52.772  1.00  0.00     0.174 HD
ENDBRANCH   1  20
BRANCH   5  23
HETATM   23  C9  UNL     1      23.388   4.027  50.957  1.00  0.00     0.218 C 
HETATM   24  C10 UNL     1      22.791   3.093  49.980  1.00  0.00     0.050 C 
HETATM   25  C11 UNL     1      22.573   1.790  50.214  1.00  0.00     0.116 C 
HETATM   26  F1  UNL     1      22.018   0.919  49.309  1.00  0.00    -0.206 F 
HETATM   27  C12 UNL     1      22.951   1.254  51.522  1.00  0.00     0.057 C 
HETATM   28  C13 UNL     1      23.346   2.127  52.403  1.00  0.00     0.017 C 
HETATM   29  C14 UNL     1      23.945   3.235  52.064  1.00  0.00     0.134 C 
HETATM   30  F2  UNL     1      24.915   3.156  52.975  1.00  0.00    -0.207 F 
ENDBRANCH   5  23
TORSDOF 6
ENDMDL
MODEL 5
REMARK VINA RESULT:      -7.2      1.627      2.066
REMARK  6 active torsions:
REMARK  status: ('A' for Active; 'I' for Inactive)
REMARK    1  A    between atoms: N1_1  and  C1_2 
REMARK    2  A    between atoms: C2_4  and  N3_5 
REMARK    3  A    between atoms: N3_5  and  C3_6 
REMARK    4  A    between atoms: C6_9  and  S1_10 
REMARK    5  A    between atoms: S1_10  and  N4_11 
REMARK    6  A    between atoms: N6_17  and  C9_18 
ROOT
HETATM    1  C1  UNL     1      24.084   0.665  52.594  1.00  0.00     0.733 A 
HETATM    2  N2  UNL     1      23.555   1.464  51.692  1.00  0.00     0.131 NA
HETATM    3  C2  UNL     1      24.550   2.030  50.973  1.00  0.00     0.760 A 
HETATM    4  N5  UNL     1      25.665   1.520  51.502  1.00  0.00     0.038 NA
HETATM    5  N6  UNL     1      25.424   0.691  52.485  1.00  0.00    -0.068 N 
ENDROOT
BRANCH   3   6
HETATM    6  N3  UNL     1      24.386   2.940  49.919  1.00  0.00    -0.186 N 
HETATM    7  H3  UNL     1      23.509   2.858  49.324  1.00  0.00     0.184 HD
BRANCH   6   8
HETATM    8  C3  UNL     1      25.265   3.987  49.532  1.00  0.00     0.049 A 
HETATM    9  C4  UNL     1      24.913   5.316  49.432  1.00  0.00     0.031 A 
HETATM   10  C5  UNL     1      25.768   6.318  49.057  1.00  0.00     0.027 A 
HETATM   11  C6  UNL     1      27.062   6.031  48.754  1.00  0.00     0.074 A 
HETATM   12  C7  UNL     1      27.464   4.734  48.837  1.00  0.00     0.027 A 
HETATM   13  C8  UNL     1      26.586   3.750  49.214  1.00  0.00     0.031 A 
BRANCH  11  14
HETATM   14  S1  UNL     1      28.177   7.285  48.273  1.00  0.00     0.239 S 
HETATM   15  O1  UNL     1      28.060   8.426  49.229  1.00  0.00    -0.206 OA
HETATM   16  O2  UNL     1      29.568   6.699  48.350  1.00  0.00    -0.206 OA
BRANCH  14  17
HETATM   17  N4  UNL     1      27.919   7.796  46.653  1.00  0.00    -0.225 NA
HETATM   18  H6  UNL     1      28.402   7.197  45.944  1.00  0.00     0.136 HD
HETATM   19  H7  UNL     1      28.145   8.795  46.524  1.00  0.00     0.136 HD
ENDBRANCH  14  17
ENDBRANCH  11  14
ENDBRANCH   6   8
ENDBRANCH   3   6
BRANCH   1  20
HETATM   20  N1  UNL     1      23.257  -0.073  53.503  1.00  0.00    -0.231 N 
HETATM   21  H1  UNL     1      23.310  -1.132  53.449  1.00  0.00     0.174 HD
HETATM   22  H2  UNL     1      22.655   0.478  54.159  1.00  0.00     0.174 HD
ENDBRANCH   1  20
BRANCH   5  23
HETATM   23  C9  UNL     1      26.246  -0.101  53.362  1.00  0.00     0.218 C 
HETATM   24  C10 UNL     1      27.461  -0.645  52.720  1.00  0.00     0.050 C 
HETATM   25  C11 UNL     1      28.664  -0.710  53.310  1.00  0.00     0.116 C 
HETATM   26  F1  UNL     1      29.796  -1.215  52.718  1.00  0.00    -0.206 F 
HETATM   27  C12 UNL     1      28.786  -0.209  54.680  1.00  0.00     0.057 C 
HETATM   28  C13 UNL     1      27.673   0.136  55.262  1.00  0.00     0.017 C 
HETATM   29  C14 UNL     1      26.652   0.594  54.592  1.00  0.00     0.134 C 
HETATM   30  F2  UNL     1      26.392   1.613  55.411  1.00  0.00    -0.207 F 
ENDBRANCH   5  23
TORSDOF 6
ENDMDL
MODEL 6
REMARK VINA RESULT:      -7.1      5.779      7.768
REMARK  6 active torsions:
REMARK  status: ('A' for Active; 'I' for Inactive)
REMARK    1  A    between atoms: N1_1  and  C1_2 
REMARK    2  A    between atoms: C2_4  and  N3_5 
REMARK    3  A    between atoms: N3_5  and  C3_6 
REMARK    4  A    between atoms: C6_9  and  S1_10 
REMARK    5  A    between atoms: S1_10  and  N4_11 
REMARK    6  A    between atoms: N6_17  and  C9_18 
ROOT
HETATM    1  C1  UNL     1      31.876   7.024  48.496  1.00  0.00     0.733 A 
HETATM    2  N2  UNL     1      30.674   7.559  48.516  1.00  0.00     0.131 NA
HETATM    3  C2  UNL     1      29.787   6.660  48.035  1.00  0.00     0.760 A 
HETATM    4  N5  UNL     1      30.533   5.593  47.740  1.00  0.00     0.038 NA
HETATM    5  N6  UNL     1      31.801   5.775  48.005  1.00  0.00    -0.068 N 
ENDROOT
BRANCH   3   6
HETATM    6  N3  UNL     1      28.406   6.860  47.899  1.00  0.00    -0.186 N 
HETATM    7  H3  UNL     1      28.078   7.710  47.350  1.00  0.00     0.184 HD
BRANCH   6   8
HETATM    8  C3  UNL     1      27.357   6.053  48.416  1.00  0.00     0.049 A 
HETATM    9  C4  UNL     1      27.497   4.743  48.821  1.00  0.00     0.031 A 
HETATM   10  C5  UNL     1      26.478   3.972  49.317  1.00  0.00     0.027 A 
HETATM   11  C6  UNL     1      25.227   4.493  49.437  1.00  0.00     0.074 A 
HETATM   12  C7  UNL     1      25.034   5.783  49.052  1.00  0.00     0.027 A 
HETATM   13  C8  UNL     1      26.072   6.531  48.558  1.00  0.00     0.031 A 
BRANCH  11  14
HETATM   14  S1  UNL     1      23.909   3.538  50.066  1.00  0.00     0.239 S 
HETATM   15  O1  UNL     1      22.863   4.456  50.606  1.00  0.00    -0.206 OA
HETATM   16  O2  UNL     1      23.341   2.745  48.911  1.00  0.00    -0.206 OA
BRANCH  14  17
HETATM   17  N4  UNL     1      24.432   2.414  51.256  1.00  0.00    -0.225 NA
HETATM   18  H6  UNL     1      25.461   2.445  51.438  1.00  0.00     0.136 HD
HETATM   19  H7  UNL     1      24.111   1.455  51.047  1.00  0.00     0.136 HD
ENDBRANCH  14  17
ENDBRANCH  11  14
ENDBRANCH   6   8
ENDBRANCH   3   6
BRANCH   1  20
HETATM   20  N1  UNL     1      33.019   7.758  48.954  1.00  0.00    -0.231 N 
HETATM   21  H1  UNL     1      32.940   8.227  49.902  1.00  0.00     0.174 HD
HETATM   22  H2  UNL     1      33.855   7.784  48.325  1.00  0.00     0.174 HD
ENDBRANCH   1  20
BRANCH   5  23
HETATM   23  C9  UNL     1      32.985   4.966  47.876  1.00  0.00     0.218 C 
HETATM   24  C10 UNL     1      32.715   3.516  47.770  1.00  0.00     0.050 C 
HETATM   25  C11 UNL     1      33.373   2.683  46.950  1.00  0.00     0.116 C 
HETATM   26  F1  UNL     1      33.128   1.336  46.848  1.00  0.00    -0.206 F 
HETATM   27  C12 UNL     1      34.427   3.242  46.103  1.00  0.00     0.057 C 
HETATM   28  C13 UNL     1      34.731   4.490  46.319  1.00  0.00     0.017 C 
HETATM   29  C14 UNL     1      33.855   5.352  46.756  1.00  0.00     0.134 C 
HETATM   30  F2  UNL     1      34.168   6.321  45.895  1.00  0.00    -0.207 F 
ENDBRANCH   5  23
TORSDOF 6
ENDMDL
MODEL 7
REMARK VINA RESULT:      -7.0      2.035      2.783
REMARK  6 active torsions:
REMARK  status: ('A' for Active; 'I' for Inactive)
REMARK    1  A    between atoms: N1_1  and  C1_2 
REMARK    2  A    between atoms: C2_4  and  N3_5 
REMARK    3  A    between atoms: N3_5  and  C3_6 
REMARK    4  A    between atoms: C6_9  and  S1_10 
REMARK    5  A    between atoms: S1_10  and  N4_11 
REMARK    6  A    between atoms: N6_17  and  C9_18 
ROOT
HETATM    1  C1  UNL     1      25.523   3.057  51.772  1.00  0.00     0.733 A 
HETATM    2  N2  UNL     1      25.448   4.089  50.959  1.00  0.00     0.131 NA
HETATM    3  C2  UNL     1      26.219   3.849  49.876  1.00  0.00     0.760 A 
HETATM    4  N5  UNL     1      26.735   2.639  50.105  1.00  0.00     0.038 NA
HETATM    5  N6  UNL     1      26.338   2.128  51.242  1.00  0.00    -0.068 N 
ENDROOT
BRANCH   3   6
HETATM    6  N3  UNL     1      26.398   4.714  48.787  1.00  0.00    -0.186 N 
HETATM    7  H3  UNL     1      25.960   4.440  47.857  1.00  0.00     0.184 HD
BRANCH   6   8
HETATM    8  C3  UNL     1      27.108   5.944  48.762  1.00  0.00     0.049 A 
HETATM    9  C4  UNL     1      28.382   6.108  48.263  1.00  0.00     0.031 A 
HETATM   10  C5  UNL     1      29.060   7.299  48.245  1.00  0.00     0.027 A 
HETATM   11  C6  UNL     1      28.475   8.422  48.742  1.00  0.00     0.074 A 
HETATM   12  C7  UNL     1      27.217   8.316  49.247  1.00  0.00     0.027 A 
HETATM   13  C8  UNL     1      26.563   7.111  49.254  1.00  0.00     0.031 A 
BRANCH  11  14
HETATM   14  S1  UNL     1      29.311   9.955  48.733  1.00  0.00     0.239 S 
HETATM   15  O1  UNL     1      30.626   9.791  49.420  1.00  0.00    -0.206 OA
HETATM   16  O2  UNL     1      29.537  10.331  47.286  1.00  0.00    -0.206 OA
BRANCH  14  17
HETATM   17  N4  UNL     1      28.379  11.206  49.452  1.00  0.00    -0.225 NA
HETATM   18  H6  UNL     1      28.085  11.950  48.778  1.00  0.00     0.136 HD
HETATM   19  H7  UNL     1      28.848  11.606  50.280  1.00  0.00     0.136 HD
ENDBRANCH  14  17
ENDBRANCH  11  14
ENDBRANCH   6   8
ENDBRANCH   3   6
BRANCH   1  20
HETATM   20  N1  UNL     1      24.799   3.037  53.010  1.00  0.00    -0.231 N 
HETATM   21  H1  UNL     1      25.264   3.499  53.845  1.00  0.00     0.174 HD
HETATM   22  H2  UNL     1      23.864   2.568  53.011  1.00  0.00     0.174 HD
ENDBRANCH   1  20
BRANCH   5  23
HETATM   23  C9  UNL     1      26.592   0.894  51.937  1.00  0.00     0.218 C 
HETATM   24  C10 UNL     1      27.573   1.012  53.036  1.00  0.00     0.050 C 
HETATM   25  C11 UNL     1      27.460   0.394  54.221  1.00  0.00     0.116 C 
HETATM   26  F1  UNL     1      28.369   0.501  55.246  1.00  0.00    -0.206 F 
HETATM   27  C12 UNL     1      26.288  -0.453  54.446  1.00  0.00     0.057 C 
HETATM   28  C13 UNL     1      25.516  -0.644  53.414  1.00  0.00     0.017 C 
HETATM   29  C14 UNL     1      25.384   0.247  52.471  1.00  0.00     0.134 C 
HETATM   30  F2  UNL     1      24.055   0.176  52.395  1.00  0.00    -0.207 F 
ENDBRANCH   5  23
TORSDOF 6
ENDMDL
MODEL 8
REMARK VINA RESULT:      -7.0      2.987      4.182
REMARK  6 active torsions:
REMARK  status: ('A' for Active; 'I' for Inactive)
REMARK    1  A    between atoms: N1_1  and  C1_2 
REMARK    2  A    between atoms: C2_4  and  N3_5 
REMARK    3  A    between atoms: N3_5  and  C3_6 
REMARK    4  A    between atoms: C6_9  and  S1_10 
REMARK    5  A    between atoms: S1_10  and  N4_11 
REMARK    6  A    between atoms: N6_17  and  C9_18 
ROOT
HETATM    1  C1  UNL     1      22.283   3.296  51.742  1.00  0.00     0.733 A 
HETATM    2  N2  UNL     1      22.864   3.974  50.776  1.00  0.00     0.131 NA
HETATM    3  C2  UNL     1      24.054   3.398  50.493  1.00  0.00     0.760 A 
HETATM    4  N5  UNL     1      24.124   2.365  51.336  1.00  0.00     0.038 NA
HETATM    5  N6  UNL     1      23.072   2.271  52.108  1.00  0.00    -0.068 N 
ENDROOT
BRANCH   3   6
HETATM    6  N3  UNL     1      24.966   3.832  49.521  1.00  0.00    -0.186 N 
HETATM    7  H3  UNL     1      25.203   3.164  48.728  1.00  0.00     0.184 HD
BRANCH   6   8
HETATM    8  C3  UNL     1      25.634   5.084  49.455  1.00  0.00     0.049 A 
HETATM    9  C4  UNL     1      25.255   6.217  50.141  1.00  0.00     0.031 A 
HETATM   10  C5  UNL     1      25.906   7.421  50.070  1.00  0.00     0.027 A 
HETATM   11  C6  UNL     1      27.006   7.554  49.282  1.00  0.00     0.074 A 
HETATM   12  C7  UNL     1      27.425   6.465  48.583  1.00  0.00     0.027 A 
HETATM   13  C8  UNL     1      26.753   5.273  48.672  1.00  0.00     0.031 A 
BRANCH  11  14
HETATM   14  S1  UNL     1      27.858   9.073  49.170  1.00  0.00     0.239 S 
HETATM   15  O1  UNL     1      27.736   9.592  47.776  1.00  0.00    -0.206 OA
HETATM   16  O2  UNL     1      27.191  10.031  50.130  1.00  0.00    -0.206 OA
BRANCH  14  17
HETATM   17  N4  UNL     1      29.504   8.929  49.644  1.00  0.00    -0.225 NA
HETATM   18  H6  UNL     1      29.722   9.404  50.550  1.00  0.00     0.136 HD
HETATM   19  H7  UNL     1      30.147   9.229  48.894  1.00  0.00     0.136 HD
ENDBRANCH  14  17
ENDBRANCH  11  14
ENDBRANCH   6   8
ENDBRANCH   3   6
BRANCH   1  20
HETATM   20  N1  UNL     1      20.998   3.684  52.248  1.00  0.00    -0.231 N 
HETATM   21  H1  UNL     1      20.380   2.912  52.633  1.00  0.00     0.174 HD
HETATM   22  H2  UNL     1      20.754   4.701  52.205  1.00  0.00     0.174 HD
ENDBRANCH   1  20
BRANCH   5  23
HETATM   23  C9  UNL     1      22.665   1.369  53.153  1.00  0.00     0.218 C 
HETATM   24  C10 UNL     1      21.290   0.848  52.997  1.00  0.00     0.050 C 
HETATM   25  C11 UNL     1      20.927  -0.417  53.254  1.00  0.00     0.116 C 
HETATM   26  F1  UNL     1      19.652  -0.906  53.111  1.00  0.00    -0.206 F 
HETATM   27  C12 UNL     1      21.957  -1.348  53.719  1.00  0.00     0.057 C 
HETATM   28  C13 UNL     1      23.123  -0.826  53.975  1.00  0.00     0.017 C 
HETATM   29  C14 UNL     1      23.568   0.225  53.342  1.00  0.00     0.134 C 
HETATM   30  F2  UNL     1      24.791  -0.255  53.116  1.00  0.00    -0.207 F 
ENDBRANCH   5  23
TORSDOF 6
ENDMDL
MODEL 9
REMARK VINA RESULT:      -7.0      7.661      8.887
REMARK  6 active torsions:
REMARK  status: ('A' for Active; 'I' for Inactive)
REMARK    1  A    between atoms: N1_1  and  C1_2 
REMARK    2  A    between atoms: C2_4  and  N3_5 
REMARK    3  A    between atoms: N3_5  and  C3_6 
REMARK    4  A    between atoms: C6_9  and  S1_10 
REMARK    5  A    between atoms: S1_10  and  N4_11 
REMARK    6  A    between atoms: N6_17  and  C9_18 
ROOT
HETATM    1  C1  UNL     1      33.741   6.890  48.065  1.00  0.00     0.733 A 
HETATM    2  N2  UNL     1      33.198   7.844  48.791  1.00  0.00     0.131 NA
HETATM    3  C2  UNL     1      31.909   7.524  49.038  1.00  0.00     0.760 A 
HETATM    4  N5  UNL     1      31.741   6.350  48.424  1.00  0.00     0.038 NA
HETATM    5  N6  UNL     1      32.826   5.935  47.824  1.00  0.00    -0.068 N 
ENDROOT
BRANCH   3   6
HETATM    6  N3  UNL     1      31.000   8.292  49.780  1.00  0.00    -0.186 N 
HETATM    7  H3  UNL     1      30.807   8.000  50.785  1.00  0.00     0.184 HD
BRANCH   6   8
HETATM    8  C3  UNL     1      30.283   9.441  49.353  1.00  0.00     0.049 A 
HETATM    9  C4  UNL     1      28.913   9.584  49.414  1.00  0.00     0.031 A 
HETATM   10  C5  UNL     1      28.231  10.697  48.999  1.00  0.00     0.027 A 
HETATM   11  C6  UNL     1      28.908  11.758  48.484  1.00  0.00     0.074 A 
HETATM   12  C7  UNL     1      30.263  11.670  48.400  1.00  0.00     0.027 A 
HETATM   13  C8  UNL     1      30.920  10.543  48.823  1.00  0.00     0.031 A 
BRANCH  11  14
HETATM   14  S1  UNL     1      28.068  13.190  47.946  1.00  0.00     0.239 S 
HETATM   15  O1  UNL     1      27.306  13.763  49.095  1.00  0.00    -0.206 OA
HETATM   16  O2  UNL     1      29.117  14.178  47.489  1.00  0.00    -0.206 OA
BRANCH  14  17
HETATM   17  N4  UNL     1      27.039  12.874  46.607  1.00  0.00    -0.225 NA
HETATM   18  H6  UNL     1      26.266  12.202  46.822  1.00  0.00     0.136 HD
HETATM   19  H7  UNL     1      27.573  12.585  45.772  1.00  0.00     0.136 HD
ENDBRANCH  14  17
ENDBRANCH  11  14
ENDBRANCH   6   8
ENDBRANCH   3   6
BRANCH   1  20
HETATM   20  N1  UNL     1      35.112   6.966  47.651  1.00  0.00    -0.231 N 
HETATM   21  H1  UNL     1      35.435   6.257  46.930  1.00  0.00     0.174 HD
HETATM   22  H2  UNL     1      35.704   7.711  48.086  1.00  0.00     0.174 HD
ENDBRANCH   1  20
BRANCH   5  23
HETATM   23  C9  UNL     1      33.167   4.773  47.047  1.00  0.00     0.218 C 
HETATM   24  C10 UNL     1      33.357   5.046  45.606  1.00  0.00     0.050 C 
HETATM   25  C11 UNL     1      34.318   4.492  44.851  1.00  0.00     0.116 C 
HETATM   26  F1  UNL     1      34.498   4.743  43.513  1.00  0.00    -0.206 F 
HETATM   27  C12 UNL     1      35.242   3.556  45.492  1.00  0.00     0.057 C 
HETATM   28  C13 UNL     1      34.965   3.235  46.724  1.00  0.00     0.017 C 
HETATM   29  C14 UNL     1      34.352   4.052  47.535  1.00  0.00     0.134 C 
HETATM   30  F2  UNL     1      35.164   3.855  48.574  1.00  0.00    -0.207 F 
ENDBRANCH   5  23
TORSDOF 6
ENDMDL
