MODEL 1
REMARK VINA RESULT:      -8.7      0.000      0.000
REMARK  7 active torsions:
REMARK  status: ('A' for Active; 'I' for Inactive)
REMARK    1  A    between atoms: O1_2  and  C2_3 
REMARK    2  A    between atoms: C6_7  and  C7_8 
REMARK    3  A    between atoms: C6_7  and  N2_10 
REMARK    4  A    between atoms: C7_8  and  N1_9 
REMARK    5  A    between atoms: N2_10  and  C8_11 
REMARK    6  A    between atoms: C20_26  and  N5_27 
REMARK    7  A    between atoms: C22_29  and  O2_30 
ROOT
HETATM    1  C8  UNL     1      25.400   3.504  50.990  1.00  0.00     0.134 C 
HETATM    2  C9  UNL     1      26.785   2.850  50.953  1.00  0.00     0.175 C 
HETATM    3  N3  UNL     1      27.110   2.079  52.066  1.00  0.00    -0.297 NA
HETATM    4  C10 UNL     1      28.175   1.894  52.714  1.00  0.00     0.158 C 
HETATM    5  C11 UNL     1      27.512   0.957  53.653  1.00  0.00     0.229 A 
HETATM    6  S1  UNL     1      28.034   0.110  54.974  1.00  0.00     0.126 SA
HETATM    7  N4  UNL     1      26.316   0.259  53.976  1.00  0.00     0.029 N 
HETATM    8  C12 UNL     1      25.187  -0.500  54.427  1.00  0.00     0.296 C 
HETATM    9  C13 UNL     1      23.910  -0.127  53.767  1.00  0.00    -0.025 A 
HETATM   10  C14 UNL     1      22.971  -1.149  53.956  1.00  0.00     0.009 A 
HETATM   11  C15 UNL     1      21.681  -1.177  53.520  1.00  0.00     0.001 A 
HETATM   12  C16 UNL     1      21.220  -0.092  52.810  1.00  0.00     0.001 A 
HETATM   13  C17 UNL     1      22.147   0.928  52.619  1.00  0.00     0.008 A 
HETATM   14  C18 UNL     1      23.460   0.999  53.041  1.00  0.00    -0.048 A 
HETATM   15  C19 UNL     1      24.173   2.223  52.651  1.00  0.00     0.076 C 
HETATM   16  C20 UNL     1      24.318   2.499  51.207  1.00  0.00     0.246 C 
HETATM   17  H16 UNL     1      26.049   0.557  53.024  1.00  0.00     0.303 HD
ENDROOT
BRANCH   1  18
HETATM   18  N2  UNL     1      25.210   4.094  49.653  1.00  0.00    -0.383 N 
HETATM   19  H11 UNL     1      24.847   3.585  48.815  1.00  0.00     0.160 HD
BRANCH  18  20
HETATM   20  C6  UNL     1      25.391   5.343  49.039  1.00  0.00     0.040 C 
HETATM   21  C5  UNL     1      26.490   5.891  48.550  1.00  0.00    -0.028 A 
HETATM   22  C4  UNL     1      26.335   7.242  47.953  1.00  0.00     0.070 A 
HETATM   23  C21 UNL     1      27.775   5.218  48.593  1.00  0.00     0.049 A 
HETATM   24  C3  UNL     1      27.668   7.695  47.452  1.00  0.00     0.017 A 
HETATM   25  C2  UNL     1      28.845   7.098  47.480  1.00  0.00     0.098 A 
HETATM   26  C22 UNL     1      28.860   5.778  48.097  1.00  0.00     0.101 A 
BRANCH  25  27
HETATM   27  O1  UNL     1      29.924   7.772  46.931  1.00  0.00    -0.353 OA
HETATM   28  C1  UNL     1      30.395   9.019  47.374  1.00  0.00     0.210 C 
ENDBRANCH  25  27
BRANCH  26  29
HETATM   29  O2  UNL     1      30.103   5.129  48.137  1.00  0.00    -0.353 OA
HETATM   30  C23 UNL     1      31.079   5.705  48.990  1.00  0.00     0.210 C 
ENDBRANCH  26  29
BRANCH  20  31
HETATM   31  C7  UNL     1      24.096   6.050  48.981  1.00  0.00     0.323 C 
BRANCH  31  32
HETATM   32  N1  UNL     1      23.689   6.551  50.279  1.00  0.00     0.083 N 
HETATM   33  H9  UNL     1      24.509   6.852  50.855  1.00  0.00     0.313 HD
HETATM   34  H10 UNL     1      23.023   7.370  50.152  1.00  0.00     0.313 HD
ENDBRANCH  31  32
ENDBRANCH  20  31
ENDBRANCH  18  20
ENDBRANCH   1  18
BRANCH  16  35
HETATM   35  N5  UNL     1      23.073   3.042  50.666  1.00  0.00     0.085 N 
HETATM   36  H26 UNL     1      23.163   4.028  50.375  1.00  0.00     0.313 HD
HETATM   37  H27 UNL     1      22.330   2.865  51.384  1.00  0.00     0.313 HD
ENDBRANCH  16  35
TORSDOF 7
ENDMDL
MODEL 2
REMARK VINA RESULT:      -8.6      2.190      3.434
REMARK  7 active torsions:
REMARK  status: ('A' for Active; 'I' for Inactive)
REMARK    1  A    between atoms: O1_2  and  C2_3 
REMARK    2  A    between atoms: C6_7  and  C7_8 
REMARK    3  A    between atoms: C6_7  and  N2_10 
REMARK    4  A    between atoms: C7_8  and  N1_9 
REMARK    5  A    between atoms: N2_10  and  C8_11 
REMARK    6  A    between atoms: C20_26  and  N5_27 
REMARK    7  A    between atoms: C22_29  and  O2_30 
ROOT
HETATM    1  C8  UNL     1      24.715   4.659  50.473  1.00  0.00     0.134 C 
HETATM    2  C9  UNL     1      23.526   5.211  51.267  1.00  0.00     0.175 C 
HETATM    3  N3  UNL     1      22.583   4.267  51.663  1.00  0.00    -0.297 NA
HETATM    4  C10 UNL     1      21.326   4.279  51.754  1.00  0.00     0.158 C 
HETATM    5  C11 UNL     1      21.288   2.880  52.243  1.00  0.00     0.229 A 
HETATM    6  S1  UNL     1      20.060   1.855  52.667  1.00  0.00     0.126 SA
HETATM    7  N4  UNL     1      22.050   1.749  52.646  1.00  0.00     0.029 N 
HETATM    8  C12 UNL     1      22.682   0.534  53.072  1.00  0.00     0.296 C 
HETATM    9  C13 UNL     1      24.137   0.481  52.784  1.00  0.00    -0.025 A 
HETATM   10  C14 UNL     1      24.731  -0.518  53.565  1.00  0.00     0.009 A 
HETATM   11  C15 UNL     1      26.042  -0.886  53.578  1.00  0.00     0.001 A 
HETATM   12  C16 UNL     1      26.905  -0.219  52.737  1.00  0.00     0.001 A 
HETATM   13  C17 UNL     1      26.321   0.774  51.957  1.00  0.00     0.008 A 
HETATM   14  C18 UNL     1      25.002   1.181  51.912  1.00  0.00    -0.048 A 
HETATM   15  C19 UNL     1      24.723   2.282  50.980  1.00  0.00     0.076 C 
HETATM   16  C20 UNL     1      25.414   3.567  51.212  1.00  0.00     0.246 C 
HETATM   17  H16 UNL     1      22.817   2.440  52.647  1.00  0.00     0.303 HD
ENDROOT
BRANCH   1  18
HETATM   18  N2  UNL     1      25.652   5.786  50.336  1.00  0.00    -0.383 N 
HETATM   19  H11 UNL     1      26.389   6.047  51.031  1.00  0.00     0.160 HD
BRANCH  18  20
HETATM   20  C6  UNL     1      25.921   6.801  49.403  1.00  0.00     0.040 C 
HETATM   21  C5  UNL     1      26.973   6.970  48.620  1.00  0.00    -0.028 A 
HETATM   22  C4  UNL     1      26.940   8.160  47.733  1.00  0.00     0.070 A 
HETATM   23  C21 UNL     1      28.095   6.051  48.623  1.00  0.00     0.049 A 
HETATM   24  C3  UNL     1      28.196   8.183  46.924  1.00  0.00     0.017 A 
HETATM   25  C2  UNL     1      29.226   7.358  46.912  1.00  0.00     0.098 A 
HETATM   26  C22 UNL     1      29.134   6.232  47.833  1.00  0.00     0.101 A 
BRANCH  25  27
HETATM   27  O1  UNL     1      30.268   7.637  46.042  1.00  0.00    -0.353 OA
HETATM   28  C1  UNL     1      31.282   8.577  46.289  1.00  0.00     0.210 C 
ENDBRANCH  25  27
BRANCH  26  29
HETATM   29  O2  UNL     1      30.220   5.344  47.833  1.00  0.00    -0.353 OA
HETATM   30  C23 UNL     1      31.300   5.683  48.687  1.00  0.00     0.210 C 
ENDBRANCH  26  29
BRANCH  20  31
HETATM   31  C7  UNL     1      24.791   7.752  49.379  1.00  0.00     0.323 C 
BRANCH  31  32
HETATM   32  N1  UNL     1      24.666   8.482  50.624  1.00  0.00     0.083 N 
HETATM   33  H9  UNL     1      25.184   8.015  51.404  1.00  0.00     0.313 HD
HETATM   34  H10 UNL     1      25.033   9.472  50.496  1.00  0.00     0.313 HD
ENDBRANCH  31  32
ENDBRANCH  20  31
ENDBRANCH  18  20
ENDBRANCH   1  18
BRANCH  16  35
HETATM   35  N5  UNL     1      26.792   3.496  50.730  1.00  0.00     0.085 N 
HETATM   36  H26 UNL     1      27.424   3.032  51.401  1.00  0.00     0.313 HD
HETATM   37  H27 UNL     1      27.072   4.473  50.472  1.00  0.00     0.313 HD
ENDBRANCH  16  35
TORSDOF 7
ENDMDL
MODEL 3
REMARK VINA RESULT:      -8.4      1.960      3.640
REMARK  7 active torsions:
REMARK  status: ('A' for Active; 'I' for Inactive)
REMARK    1  A    between atoms: O1_2  and  C2_3 
REMARK    2  A    between atoms: C6_7  and  C7_8 
REMARK    3  A    between atoms: C6_7  and  N2_10 
REMARK    4  A    between atoms: C7_8  and  N1_9 
REMARK    5  A    between atoms: N2_10  and  C8_11 
REMARK    6  A    between atoms: C20_26  and  N5_27 
REMARK    7  A    between atoms: C22_29  and  O2_30 
ROOT
HETATM    1  C8  UNL     1      24.373   2.830  50.402  1.00  0.00     0.134 C 
HETATM    2  C9  UNL     1      23.036   2.784  51.149  1.00  0.00     0.175 C 
HETATM    3  N3  UNL     1      22.838   1.661  51.949  1.00  0.00    -0.297 NA
HETATM    4  C10 UNL     1      21.833   0.947  52.211  1.00  0.00     0.158 C 
HETATM    5  C11 UNL     1      22.619   0.065  53.107  1.00  0.00     0.229 A 
HETATM    6  S1  UNL     1      22.243  -1.278  53.997  1.00  0.00     0.126 SA
HETATM    7  N4  UNL     1      23.878  -0.172  53.724  1.00  0.00     0.029 N 
HETATM    8  C12 UNL     1      25.084  -0.539  54.407  1.00  0.00     0.296 C 
HETATM    9  C13 UNL     1      26.286   0.197  53.942  1.00  0.00    -0.025 A 
HETATM   10  C14 UNL     1      27.302   0.082  54.898  1.00  0.00     0.009 A 
HETATM   11  C15 UNL     1      28.560   0.602  54.835  1.00  0.00     0.001 A 
HETATM   12  C16 UNL     1      28.898   1.327  53.715  1.00  0.00     0.001 A 
HETATM   13  C17 UNL     1      27.893   1.446  52.761  1.00  0.00     0.008 A 
HETATM   14  C18 UNL     1      26.609   0.939  52.783  1.00  0.00    -0.048 A 
HETATM   15  C19 UNL     1      25.791   1.268  51.608  1.00  0.00     0.076 C 
HETATM   16  C20 UNL     1      25.532   2.695  51.332  1.00  0.00     0.246 C 
HETATM   17  H16 UNL     1      24.061   0.792  53.401  1.00  0.00     0.303 HD
ENDROOT
BRANCH   1  18
HETATM   18  N2  UNL     1      24.434   4.169  49.791  1.00  0.00    -0.383 N 
HETATM   19  H11 UNL     1      24.307   4.374  48.773  1.00  0.00     0.160 HD
BRANCH  18  20
HETATM   20  C6  UNL     1      24.645   5.491  50.214  1.00  0.00     0.040 C 
HETATM   21  C5  UNL     1      25.571   6.358  49.843  1.00  0.00    -0.028 A 
HETATM   22  C4  UNL     1      25.509   7.694  50.488  1.00  0.00     0.070 A 
HETATM   23  C21 UNL     1      26.591   6.030  48.865  1.00  0.00     0.049 A 
HETATM   24  C3  UNL     1      26.619   8.535  49.946  1.00  0.00     0.017 A 
HETATM   25  C2  UNL     1      27.554   8.255  49.057  1.00  0.00     0.098 A 
HETATM   26  C22 UNL     1      27.504   6.908  48.503  1.00  0.00     0.101 A 
BRANCH  25  27
HETATM   27  O1  UNL     1      28.467   9.249  48.745  1.00  0.00    -0.353 OA
HETATM   28  C1  UNL     1      29.665   9.478  49.442  1.00  0.00     0.210 C 
ENDBRANCH  25  27
BRANCH  26  29
HETATM   29  O2  UNL     1      28.491   6.593  47.557  1.00  0.00    -0.353 OA
HETATM   30  C23 UNL     1      29.625   5.897  48.049  1.00  0.00     0.210 C 
ENDBRANCH  26  29
BRANCH  20  31
HETATM   31  C7  UNL     1      23.618   5.852  51.212  1.00  0.00     0.323 C 
BRANCH  31  32
HETATM   32  N1  UNL     1      24.113   5.745  52.569  1.00  0.00     0.083 N 
HETATM   33  H9  UNL     1      23.700   4.924  53.071  1.00  0.00     0.313 HD
HETATM   34  H10 UNL     1      25.173   5.659  52.557  1.00  0.00     0.313 HD
ENDBRANCH  31  32
ENDBRANCH  20  31
ENDBRANCH  18  20
ENDBRANCH   1  18
BRANCH  16  35
HETATM   35  N5  UNL     1      26.700   3.310  50.701  1.00  0.00     0.085 N 
HETATM   36  H26 UNL     1      26.465   3.796  49.821  1.00  0.00     0.313 HD
HETATM   37  H27 UNL     1      27.422   2.557  50.604  1.00  0.00     0.313 HD
ENDBRANCH  16  35
TORSDOF 7
ENDMDL
MODEL 4
REMARK VINA RESULT:      -8.2      2.282      3.794
REMARK  7 active torsions:
REMARK  status: ('A' for Active; 'I' for Inactive)
REMARK    1  A    between atoms: O1_2  and  C2_3 
REMARK    2  A    between atoms: C6_7  and  C7_8 
REMARK    3  A    between atoms: C6_7  and  N2_10 
REMARK    4  A    between atoms: C7_8  and  N1_9 
REMARK    5  A    between atoms: N2_10  and  C8_11 
REMARK    6  A    between atoms: C20_26  and  N5_27 
REMARK    7  A    between atoms: C22_29  and  O2_30 
ROOT
HETATM    1  C8  UNL     1      23.195   4.032  51.024  1.00  0.00     0.134 C 
HETATM    2  C9  UNL     1      21.997   4.068  51.978  1.00  0.00     0.175 C 
HETATM    3  N3  UNL     1      21.551   2.826  52.424  1.00  0.00    -0.297 NA
HETATM    4  C10 UNL     1      20.410   2.344  52.656  1.00  0.00     0.158 C 
HETATM    5  C11 UNL     1      20.980   1.038  53.065  1.00  0.00     0.229 A 
HETATM    6  S1  UNL     1      20.309  -0.389  53.565  1.00  0.00     0.126 SA
HETATM    7  N4  UNL     1      22.165   0.292  53.313  1.00  0.00     0.029 N 
HETATM    8  C12 UNL     1      23.266  -0.582  53.594  1.00  0.00     0.296 C 
HETATM    9  C13 UNL     1      24.578  -0.059  53.140  1.00  0.00    -0.025 A 
HETATM   10  C14 UNL     1      25.607  -0.752  53.790  1.00  0.00     0.009 A 
HETATM   11  C15 UNL     1      26.949  -0.578  53.633  1.00  0.00     0.001 A 
HETATM   12  C16 UNL     1      27.371   0.381  52.740  1.00  0.00     0.001 A 
HETATM   13  C17 UNL     1      26.355   1.073  52.090  1.00  0.00     0.008 A 
HETATM   14  C18 UNL     1      24.987   0.932  52.218  1.00  0.00    -0.048 A 
HETATM   15  C19 UNL     1      24.188   1.844  51.388  1.00  0.00     0.076 C 
HETATM   16  C20 UNL     1      24.350   3.294  51.615  1.00  0.00     0.246 C 
HETATM   17  H16 UNL     1      22.597   1.228  53.267  1.00  0.00     0.303 HD
ENDROOT
BRANCH   1  18
HETATM   18  N2  UNL     1      23.597   5.438  50.847  1.00  0.00    -0.383 N 
HETATM   19  H11 UNL     1      24.126   6.007  51.547  1.00  0.00     0.160 HD
BRANCH  18  20
HETATM   20  C6  UNL     1      23.477   6.432  49.863  1.00  0.00     0.040 C 
HETATM   21  C5  UNL     1      24.383   6.900  49.021  1.00  0.00    -0.028 A 
HETATM   22  C4  UNL     1      23.921   7.962  48.091  1.00  0.00     0.070 A 
HETATM   23  C21 UNL     1      25.748   6.409  49.002  1.00  0.00     0.049 A 
HETATM   24  C3  UNL     1      25.067   8.359  47.219  1.00  0.00     0.017 A 
HETATM   25  C2  UNL     1      26.313   7.925  47.186  1.00  0.00     0.098 A 
HETATM   26  C22 UNL     1      26.637   6.884  48.153  1.00  0.00     0.101 A 
BRANCH  25  27
HETATM   27  O1  UNL     1      27.169   8.489  46.254  1.00  0.00    -0.353 OA
HETATM   28  C1  UNL     1      27.986   9.606  46.495  1.00  0.00     0.210 C 
ENDBRANCH  25  27
BRANCH  26  29
HETATM   29  O2  UNL     1      27.957   6.410  48.132  1.00  0.00    -0.353 OA
HETATM   30  C23 UNL     1      28.137   5.052  48.498  1.00  0.00     0.210 C 
ENDBRANCH  26  29
BRANCH  20  31
HETATM   31  C7  UNL     1      22.094   6.949  49.860  1.00  0.00     0.323 C 
BRANCH  31  32
HETATM   32  N1  UNL     1      21.687   7.428  51.166  1.00  0.00     0.083 N 
HETATM   33  H9  UNL     1      21.674   6.658  51.876  1.00  0.00     0.313 HD
HETATM   34  H10 UNL     1      22.347   8.197  51.487  1.00  0.00     0.313 HD
ENDBRANCH  31  32
ENDBRANCH  20  31
ENDBRANCH  18  20
ENDBRANCH   1  18
BRANCH  16  35
HETATM   35  N5  UNL     1      25.576   3.773  50.976  1.00  0.00     0.085 N 
HETATM   36  H26 UNL     1      25.590   3.592  49.960  1.00  0.00     0.313 HD
HETATM   37  H27 UNL     1      26.376   3.353  51.505  1.00  0.00     0.313 HD
ENDBRANCH  16  35
TORSDOF 7
ENDMDL
MODEL 5
REMARK VINA RESULT:      -8.1      4.192      6.099
REMARK  7 active torsions:
REMARK  status: ('A' for Active; 'I' for Inactive)
REMARK    1  A    between atoms: O1_2  and  C2_3 
REMARK    2  A    between atoms: C6_7  and  C7_8 
REMARK    3  A    between atoms: C6_7  and  N2_10 
REMARK    4  A    between atoms: C7_8  and  N1_9 
REMARK    5  A    between atoms: N2_10  and  C8_11 
REMARK    6  A    between atoms: C20_26  and  N5_27 
REMARK    7  A    between atoms: C22_29  and  O2_30 
ROOT
HETATM    1  C8  UNL     1      24.193   3.138  50.677  1.00  0.00     0.134 C 
HETATM    2  C9  UNL     1      22.902   3.074  51.498  1.00  0.00     0.175 C 
HETATM    3  N3  UNL     1      22.713   1.900  52.223  1.00  0.00    -0.297 NA
HETATM    4  C10 UNL     1      21.703   1.197  52.492  1.00  0.00     0.158 C 
HETATM    5  C11 UNL     1      22.510   0.228  53.272  1.00  0.00     0.229 A 
HETATM    6  S1  UNL     1      22.143  -1.167  54.082  1.00  0.00     0.126 SA
HETATM    7  N4  UNL     1      23.794  -0.090  53.793  1.00  0.00     0.029 N 
HETATM    8  C12 UNL     1      25.024  -0.541  54.374  1.00  0.00     0.296 C 
HETATM    9  C13 UNL     1      26.221   0.194  53.893  1.00  0.00    -0.025 A 
HETATM   10  C14 UNL     1      27.287  -0.022  54.775  1.00  0.00     0.009 A 
HETATM   11  C15 UNL     1      28.555   0.466  54.675  1.00  0.00     0.001 A 
HETATM   12  C16 UNL     1      28.852   1.264  53.593  1.00  0.00     0.001 A 
HETATM   13  C17 UNL     1      27.797   1.482  52.712  1.00  0.00     0.008 A 
HETATM   14  C18 UNL     1      26.501   1.011  52.774  1.00  0.00    -0.048 A 
HETATM   15  C19 UNL     1      25.627   1.450  51.677  1.00  0.00     0.076 C 
HETATM   16  C20 UNL     1      25.400   2.901  51.523  1.00  0.00     0.246 C 
HETATM   17  H16 UNL     1      23.989   0.890  53.532  1.00  0.00     0.303 HD
ENDROOT
BRANCH   1  18
HETATM   18  N2  UNL     1      24.263   4.517  50.163  1.00  0.00    -0.383 N 
HETATM   19  H11 UNL     1      24.974   4.872  49.483  1.00  0.00     0.160 HD
BRANCH  18  20
HETATM   20  C6  UNL     1      23.553   5.717  50.322  1.00  0.00     0.040 C 
HETATM   21  C5  UNL     1      22.385   6.080  49.818  1.00  0.00    -0.028 A 
HETATM   22  C4  UNL     1      21.907   7.435  50.193  1.00  0.00     0.070 A 
HETATM   23  C21 UNL     1      21.614   5.210  48.951  1.00  0.00     0.049 A 
HETATM   24  C3  UNL     1      20.582   7.666  49.543  1.00  0.00     0.017 A 
HETATM   25  C2  UNL     1      19.864   6.889  48.753  1.00  0.00     0.098 A 
HETATM   26  C22 UNL     1      20.450   5.587  48.461  1.00  0.00     0.101 A 
BRANCH  25  27
HETATM   27  O1  UNL     1      18.653   7.378  48.292  1.00  0.00    -0.353 OA
HETATM   28  C1  UNL     1      18.516   8.439  47.381  1.00  0.00     0.210 C 
ENDBRANCH  25  27
BRANCH  26  29
HETATM   29  O2  UNL     1      19.701   4.747  47.622  1.00  0.00    -0.353 OA
HETATM   30  C23 UNL     1      20.406   3.667  47.033  1.00  0.00     0.210 C 
ENDBRANCH  26  29
BRANCH  20  31
HETATM   31  C7  UNL     1      24.318   6.622  51.203  1.00  0.00     0.323 C 
BRANCH  31  32
HETATM   32  N1  UNL     1      24.204   6.251  52.599  1.00  0.00     0.083 N 
HETATM   33  H9  UNL     1      23.251   5.882  52.827  1.00  0.00     0.313 HD
HETATM   34  H10 UNL     1      24.936   5.516  52.835  1.00  0.00     0.313 HD
ENDBRANCH  31  32
ENDBRANCH  20  31
ENDBRANCH  18  20
ENDBRANCH   1  18
BRANCH  16  35
HETATM   35  N5  UNL     1      26.548   3.528  50.870  1.00  0.00     0.085 N 
HETATM   36  H26 UNL     1      27.082   4.139  51.508  1.00  0.00     0.313 HD
HETATM   37  H27 UNL     1      26.183   4.007  50.012  1.00  0.00     0.313 HD
ENDBRANCH  16  35
TORSDOF 7
ENDMDL
MODEL 6
REMARK VINA RESULT:      -8.1      3.662      5.714
REMARK  7 active torsions:
REMARK  status: ('A' for Active; 'I' for Inactive)
REMARK    1  A    between atoms: O1_2  and  C2_3 
REMARK    2  A    between atoms: C6_7  and  C7_8 
REMARK    3  A    between atoms: C6_7  and  N2_10 
REMARK    4  A    between atoms: C7_8  and  N1_9 
REMARK    5  A    between atoms: N2_10  and  C8_11 
REMARK    6  A    between atoms: C20_26  and  N5_27 
REMARK    7  A    between atoms: C22_29  and  O2_30 
ROOT
HETATM    1  C8  UNL     1      24.274   3.178  51.057  1.00  0.00     0.134 C 
HETATM    2  C9  UNL     1      23.029   3.108  51.947  1.00  0.00     0.175 C 
HETATM    3  N3  UNL     1      22.826   1.892  52.595  1.00  0.00    -0.297 NA
HETATM    4  C10 UNL     1      21.800   1.215  52.872  1.00  0.00     0.158 C 
HETATM    5  C11 UNL     1      22.603   0.156  53.530  1.00  0.00     0.229 A 
HETATM    6  S1  UNL     1      22.217  -1.278  54.258  1.00  0.00     0.126 SA
HETATM    7  N4  UNL     1      23.899  -0.254  53.949  1.00  0.00     0.029 N 
HETATM    8  C12 UNL     1      25.137  -0.801  54.421  1.00  0.00     0.296 C 
HETATM    9  C13 UNL     1      26.338  -0.084  53.924  1.00  0.00    -0.025 A 
HETATM   10  C14 UNL     1      27.440  -0.411  54.723  1.00  0.00     0.009 A 
HETATM   11  C15 UNL     1      28.722   0.027  54.583  1.00  0.00     0.001 A 
HETATM   12  C16 UNL     1      28.995   0.891  53.546  1.00  0.00     0.001 A 
HETATM   13  C17 UNL     1      27.904   1.220  52.747  1.00  0.00     0.008 A 
HETATM   14  C18 UNL     1      26.593   0.802  52.852  1.00  0.00    -0.048 A 
HETATM   15  C19 UNL     1      25.680   1.359  51.845  1.00  0.00     0.076 C 
HETATM   16  C20 UNL     1      25.513   2.826  51.810  1.00  0.00     0.246 C 
HETATM   17  H16 UNL     1      24.124   0.733  53.749  1.00  0.00     0.303 HD
ENDROOT
BRANCH   1  18
HETATM   18  N2  UNL     1      24.380   4.587  50.641  1.00  0.00    -0.383 N 
HETATM   19  H11 UNL     1      24.714   5.372  51.247  1.00  0.00     0.160 HD
BRANCH  18  20
HETATM   20  C6  UNL     1      24.132   5.347  49.487  1.00  0.00     0.040 C 
HETATM   21  C5  UNL     1      23.257   5.146  48.517  1.00  0.00    -0.028 A 
HETATM   22  C4  UNL     1      23.247   6.156  47.428  1.00  0.00     0.070 A 
HETATM   23  C21 UNL     1      22.357   4.008  48.510  1.00  0.00     0.049 A 
HETATM   24  C3  UNL     1      22.200   5.772  46.434  1.00  0.00     0.017 A 
HETATM   25  C2  UNL     1      21.372   4.744  46.411  1.00  0.00     0.098 A 
HETATM   26  C22 UNL     1      21.487   3.826  47.537  1.00  0.00     0.101 A 
BRANCH  25  27
HETATM   27  O1  UNL     1      20.495   4.645  45.343  1.00  0.00    -0.353 OA
HETATM   28  C1  UNL     1      20.750   3.919  44.167  1.00  0.00     0.210 C 
ENDBRANCH  25  27
BRANCH  26  29
HETATM   29  O2  UNL     1      20.615   2.727  47.529  1.00  0.00    -0.353 OA
HETATM   30  C23 UNL     1      20.725   1.837  48.628  1.00  0.00     0.210 C 
ENDBRANCH  26  29
BRANCH  20  31
HETATM   31  C7  UNL     1      25.037   6.514  49.469  1.00  0.00     0.323 C 
BRANCH  31  32
HETATM   32  N1  UNL     1      25.318   7.008  50.801  1.00  0.00     0.083 N 
HETATM   33  H9  UNL     1      24.645   7.756  51.090  1.00  0.00     0.313 HD
HETATM   34  H10 UNL     1      25.278   6.204  51.497  1.00  0.00     0.313 HD
ENDBRANCH  31  32
ENDBRANCH  20  31
ENDBRANCH  18  20
ENDBRANCH   1  18
BRANCH  16  35
HETATM   35  N5  UNL     1      26.652   3.451  51.137  1.00  0.00     0.085 N 
HETATM   36  H26 UNL     1      27.292   3.922  51.796  1.00  0.00     0.313 HD
HETATM   37  H27 UNL     1      26.257   4.073  50.392  1.00  0.00     0.313 HD
ENDBRANCH  16  35
TORSDOF 7
ENDMDL
MODEL 7
REMARK VINA RESULT:      -8.0      3.619      8.762
REMARK  7 active torsions:
REMARK  status: ('A' for Active; 'I' for Inactive)
REMARK    1  A    between atoms: O1_2  and  C2_3 
REMARK    2  A    between atoms: C6_7  and  C7_8 
REMARK    3  A    between atoms: C6_7  and  N2_10 
REMARK    4  A    between atoms: C7_8  and  N1_9 
REMARK    5  A    between atoms: N2_10  and  C8_11 
REMARK    6  A    between atoms: C20_26  and  N5_27 
REMARK    7  A    between atoms: C22_29  and  O2_30 
ROOT
HETATM    1  C8  UNL     1      24.152   4.314  49.713  1.00  0.00     0.134 C 
HETATM    2  C9  UNL     1      23.041   4.899  48.834  1.00  0.00     0.175 C 
HETATM    3  N3  UNL     1      23.202   6.236  48.481  1.00  0.00    -0.297 NA
HETATM    4  C10 UNL     1      22.403   7.201  48.345  1.00  0.00     0.158 C 
HETATM    5  C11 UNL     1      23.496   8.131  47.969  1.00  0.00     0.229 A 
HETATM    6  S1  UNL     1      23.540   9.739  47.586  1.00  0.00     0.126 SA
HETATM    7  N4  UNL     1      24.883   8.270  47.688  1.00  0.00     0.029 N 
HETATM    8  C12 UNL     1      26.253   8.564  47.384  1.00  0.00     0.296 C 
HETATM    9  C13 UNL     1      27.192   7.468  47.729  1.00  0.00    -0.025 A 
HETATM   10  C14 UNL     1      28.403   7.661  47.054  1.00  0.00     0.009 A 
HETATM   11  C15 UNL     1      29.520   6.883  47.119  1.00  0.00     0.001 A 
HETATM   12  C16 UNL     1      29.482   5.774  47.933  1.00  0.00     0.001 A 
HETATM   13  C17 UNL     1      28.282   5.576  48.608  1.00  0.00     0.008 A 
HETATM   14  C18 UNL     1      27.129   6.334  48.572  1.00  0.00    -0.048 A 
HETATM   15  C19 UNL     1      26.027   5.828  49.401  1.00  0.00     0.076 C 
HETATM   16  C20 UNL     1      25.498   4.485  49.091  1.00  0.00     0.246 C 
HETATM   17  H16 UNL     1      24.838   7.239  47.659  1.00  0.00     0.303 HD
ENDROOT
BRANCH   1  18
HETATM   18  N2  UNL     1      23.869   2.870  49.792  1.00  0.00    -0.383 N 
HETATM   19  H11 UNL     1      24.112   2.166  49.058  1.00  0.00     0.160 HD
BRANCH  18  20
HETATM   20  C6  UNL     1      23.273   1.982  50.701  1.00  0.00     0.040 C 
HETATM   21  C5  UNL     1      23.823   1.274  51.674  1.00  0.00    -0.028 A 
HETATM   22  C4  UNL     1      22.898   0.425  52.466  1.00  0.00     0.070 A 
HETATM   23  C21 UNL     1      25.246   1.322  51.955  1.00  0.00     0.049 A 
HETATM   24  C3  UNL     1      23.689  -0.288  53.514  1.00  0.00     0.017 A 
HETATM   25  C2  UNL     1      24.980  -0.257  53.786  1.00  0.00     0.098 A 
HETATM   26  C22 UNL     1      25.777   0.614  52.931  1.00  0.00     0.101 A 
BRANCH  25  27
HETATM   27  O1  UNL     1      25.438  -1.039  54.834  1.00  0.00    -0.353 OA
HETATM   28  C1  UNL     1      24.817  -1.131  56.091  1.00  0.00     0.210 C 
ENDBRANCH  25  27
BRANCH  26  29
HETATM   29  O2  UNL     1      27.152   0.658  53.205  1.00  0.00    -0.353 OA
HETATM   30  C23 UNL     1      27.775   1.924  53.059  1.00  0.00     0.210 C 
ENDBRANCH  26  29
BRANCH  20  31
HETATM   31  C7  UNL     1      21.822   1.915  50.437  1.00  0.00     0.323 C 
BRANCH  31  32
HETATM   32  N1  UNL     1      21.522   1.208  49.209  1.00  0.00     0.083 N 
HETATM   33  H9  UNL     1      22.115   1.540  48.413  1.00  0.00     0.313 HD
HETATM   34  H10 UNL     1      21.669   0.164  49.352  1.00  0.00     0.313 HD
ENDBRANCH  31  32
ENDBRANCH  20  31
ENDBRANCH  18  20
ENDBRANCH   1  18
BRANCH  16  35
HETATM   35  N5  UNL     1      26.385   3.454  49.627  1.00  0.00     0.085 N 
HETATM   36  H26 UNL     1      27.150   3.212  48.978  1.00  0.00     0.313 HD
HETATM   37  H27 UNL     1      25.777   2.646  49.903  1.00  0.00     0.313 HD
ENDBRANCH  16  35
TORSDOF 7
ENDMDL
MODEL 8
REMARK VINA RESULT:      -8.0      3.944      5.838
REMARK  7 active torsions:
REMARK  status: ('A' for Active; 'I' for Inactive)
REMARK    1  A    between atoms: O1_2  and  C2_3 
REMARK    2  A    between atoms: C6_7  and  C7_8 
REMARK    3  A    between atoms: C6_7  and  N2_10 
REMARK    4  A    between atoms: C7_8  and  N1_9 
REMARK    5  A    between atoms: N2_10  and  C8_11 
REMARK    6  A    between atoms: C20_26  and  N5_27 
REMARK    7  A    between atoms: C22_29  and  O2_30 
ROOT
HETATM    1  C8  UNL     1      23.868   4.637  50.985  1.00  0.00     0.134 C 
HETATM    2  C9  UNL     1      22.646   4.820  51.891  1.00  0.00     0.175 C 
HETATM    3  N3  UNL     1      21.950   3.654  52.197  1.00  0.00    -0.297 NA
HETATM    4  C10 UNL     1      20.727   3.383  52.338  1.00  0.00     0.158 C 
HETATM    5  C11 UNL     1      21.015   1.960  52.640  1.00  0.00     0.229 A 
HETATM    6  S1  UNL     1      20.060   0.652  52.973  1.00  0.00     0.126 SA
HETATM    7  N4  UNL     1      22.022   0.980  52.858  1.00  0.00     0.029 N 
HETATM    8  C12 UNL     1      22.921  -0.111  53.095  1.00  0.00     0.296 C 
HETATM    9  C13 UNL     1      24.332   0.186  52.744  1.00  0.00    -0.025 A 
HETATM   10  C14 UNL     1      25.173  -0.748  53.361  1.00  0.00     0.009 A 
HETATM   11  C15 UNL     1      26.531  -0.824  53.273  1.00  0.00     0.001 A 
HETATM   12  C16 UNL     1      27.176   0.110  52.494  1.00  0.00     0.001 A 
HETATM   13  C17 UNL     1      26.346   1.041  51.877  1.00  0.00     0.008 A 
HETATM   14  C18 UNL     1      24.972   1.156  51.939  1.00  0.00    -0.048 A 
HETATM   15  C19 UNL     1      24.407   2.275  51.172  1.00  0.00     0.076 C 
HETATM   16  C20 UNL     1      24.828   3.641  51.544  1.00  0.00     0.246 C 
HETATM   17  H16 UNL     1      22.626   1.815  52.920  1.00  0.00     0.303 HD
ENDROOT
BRANCH   1  18
HETATM   18  N2  UNL     1      24.538   5.949  50.960  1.00  0.00    -0.383 N 
HETATM   19  H11 UNL     1      25.162   6.322  51.712  1.00  0.00     0.160 HD
BRANCH  18  20
HETATM   20  C6  UNL     1      24.621   7.052  50.096  1.00  0.00     0.040 C 
HETATM   21  C5  UNL     1      23.664   7.845  49.646  1.00  0.00    -0.028 A 
HETATM   22  C4  UNL     1      24.096   8.938  48.739  1.00  0.00     0.070 A 
HETATM   23  C21 UNL     1      22.272   7.663  50.012  1.00  0.00     0.049 A 
HETATM   24  C3  UNL     1      22.892   9.728  48.340  1.00  0.00     0.017 A 
HETATM   25  C2  UNL     1      21.621   9.579  48.663  1.00  0.00     0.098 A 
HETATM   26  C22 UNL     1      21.331   8.466  49.558  1.00  0.00     0.101 A 
BRANCH  25  27
HETATM   27  O1  UNL     1      20.709  10.478  48.132  1.00  0.00    -0.353 OA
HETATM   28  C1  UNL     1      20.255  11.634  48.788  1.00  0.00     0.210 C 
ENDBRANCH  25  27
BRANCH  26  29
HETATM   29  O2  UNL     1      19.985   8.292  49.911  1.00  0.00    -0.353 OA
HETATM   30  C23 UNL     1      19.316   7.200  49.299  1.00  0.00     0.210 C 
ENDBRANCH  26  29
BRANCH  20  31
HETATM   31  C7  UNL     1      26.030   7.260  49.707  1.00  0.00     0.323 C 
BRANCH  31  32
HETATM   32  N1  UNL     1      26.726   8.140  50.624  1.00  0.00     0.083 N 
HETATM   33  H9  UNL     1      27.133   8.971  50.133  1.00  0.00     0.313 HD
HETATM   34  H10 UNL     1      26.056   8.468  51.382  1.00  0.00     0.313 HD
ENDBRANCH  31  32
ENDBRANCH  20  31
ENDBRANCH  18  20
ENDBRANCH   1  18
BRANCH  16  35
HETATM   35  N5  UNL     1      26.155   3.928  51.002  1.00  0.00     0.085 N 
HETATM   36  H26 UNL     1      26.722   4.516  51.634  1.00  0.00     0.313 HD
HETATM   37  H27 UNL     1      26.009   4.331  50.046  1.00  0.00     0.313 HD
ENDBRANCH  16  35
TORSDOF 7
ENDMDL
MODEL 9
REMARK VINA RESULT:      -7.9      6.919     11.083
REMARK  7 active torsions:
REMARK  status: ('A' for Active; 'I' for Inactive)
REMARK    1  A    between atoms: O1_2  and  C2_3 
REMARK    2  A    between atoms: C6_7  and  C7_8 
REMARK    3  A    between atoms: C6_7  and  N2_10 
REMARK    4  A    between atoms: C7_8  and  N1_9 
REMARK    5  A    between atoms: N2_10  and  C8_11 
REMARK    6  A    between atoms: C20_26  and  N5_27 
REMARK    7  A    between atoms: C22_29  and  O2_30 
ROOT
HETATM    1  C8  UNL     1      18.203   0.163  51.901  1.00  0.00     0.134 C 
HETATM    2  C9  UNL     1      18.555   0.328  50.419  1.00  0.00     0.175 C 
HETATM    3  N3  UNL     1      19.717   1.050  50.159  1.00  0.00    -0.297 NA
HETATM    4  C10 UNL     1      20.043   1.880  49.268  1.00  0.00     0.158 C 
HETATM    5  C11 UNL     1      21.401   2.050  49.839  1.00  0.00     0.229 A 
HETATM    6  S1  UNL     1      22.702   2.983  49.423  1.00  0.00     0.126 SA
HETATM    7  N4  UNL     1      22.327   1.622  50.830  1.00  0.00     0.029 N 
HETATM    8  C12 UNL     1      23.359   1.299  51.770  1.00  0.00     0.296 C 
HETATM    9  C13 UNL     1      22.895   0.467  52.909  1.00  0.00    -0.025 A 
HETATM   10  C14 UNL     1      23.999  -0.122  53.537  1.00  0.00     0.009 A 
HETATM   11  C15 UNL     1      23.991  -0.940  54.627  1.00  0.00     0.001 A 
HETATM   12  C16 UNL     1      22.773  -1.237  55.197  1.00  0.00     0.001 A 
HETATM   13  C17 UNL     1      21.672  -0.654  54.578  1.00  0.00     0.008 A 
HETATM   14  C18 UNL     1      21.633   0.176  53.476  1.00  0.00    -0.048 A 
HETATM   15  C19 UNL     1      20.288   0.605  53.069  1.00  0.00     0.076 C 
HETATM   16  C20 UNL     1      19.326  -0.444  52.674  1.00  0.00     0.246 C 
HETATM   17  H16 UNL     1      21.644   0.856  50.939  1.00  0.00     0.303 HD
ENDROOT
BRANCH   1  18
HETATM   18  N2  UNL     1      17.070  -0.778  51.932  1.00  0.00    -0.383 N 
HETATM   19  H11 UNL     1      17.115  -1.787  51.660  1.00  0.00     0.160 HD
BRANCH  18  20
HETATM   20  C6  UNL     1      15.708  -0.746  52.272  1.00  0.00     0.040 C 
HETATM   21  C5  UNL     1      14.923   0.289  52.515  1.00  0.00    -0.028 A 
HETATM   22  C4  UNL     1      13.510  -0.027  52.844  1.00  0.00     0.070 A 
HETATM   23  C21 UNL     1      15.407   1.656  52.464  1.00  0.00     0.049 A 
HETATM   24  C3  UNL     1      12.779   1.255  53.079  1.00  0.00     0.017 A 
HETATM   25  C2  UNL     1      13.201   2.505  53.036  1.00  0.00     0.098 A 
HETATM   26  C22 UNL     1      14.609   2.677  52.704  1.00  0.00     0.101 A 
BRANCH  25  27
HETATM   27  O1  UNL     1      12.281   3.506  53.304  1.00  0.00    -0.353 OA
HETATM   28  C1  UNL     1      12.070   4.077  54.570  1.00  0.00     0.210 C 
ENDBRANCH  25  27
BRANCH  26  29
HETATM   29  O2  UNL     1      15.075   3.999  52.655  1.00  0.00    -0.353 OA
HETATM   30  C23 UNL     1      16.298   4.203  51.966  1.00  0.00     0.210 C 
ENDBRANCH  26  29
BRANCH  20  31
HETATM   31  C7  UNL     1      15.189  -2.127  52.330  1.00  0.00     0.323 C 
BRANCH  31  32
HETATM   32  N1  UNL     1      15.992  -2.978  53.186  1.00  0.00     0.083 N 
HETATM   33  H9  UNL     1      16.908  -3.221  52.742  1.00  0.00     0.313 HD
HETATM   34  H10 UNL     1      16.164  -2.490  54.114  1.00  0.00     0.313 HD
ENDBRANCH  31  32
ENDBRANCH  20  31
ENDBRANCH  18  20
ENDBRANCH   1  18
BRANCH  16  35
HETATM   35  N5  UNL     1      18.769  -1.094  53.859  1.00  0.00     0.085 N 
HETATM   36  H26 UNL     1      18.249  -0.438  54.463  1.00  0.00     0.313 HD
HETATM   37  H27 UNL     1      19.562  -1.588  54.333  1.00  0.00     0.313 HD
ENDBRANCH  16  35
TORSDOF 7
ENDMDL
