MODEL 1
REMARK VINA RESULT:      -8.0      0.000      0.000
REMARK  6 active torsions:
REMARK  status: ('A' for Active; 'I' for Inactive)
REMARK    1  A    between atoms: C2_2  and  C19_24 
REMARK    2  A    between atoms: C3_3  and  C4_4 
REMARK    3  A    between atoms: C5_5  and  C6_6 
REMARK    4  A    between atoms: C10_13  and  C11_14 
REMARK    5  A    between atoms: C11_14  and  N4_15 
REMARK    6  A    between atoms: C14_18  and  N5_19 
ROOT
HETATM    1  C6  UNL     1      22.652   2.945  51.945  1.00  0.00     0.087 A 
HETATM    2  N1  UNL     1      21.600   3.746  51.806  1.00  0.00    -0.238 NA
HETATM    3  C7  UNL     1      20.409   3.496  52.267  1.00  0.00     0.256 A 
HETATM    4  N2  UNL     1      20.249   2.339  52.927  1.00  0.00    -0.161 NA
HETATM    5  N3  UNL     1      21.291   1.539  53.069  1.00  0.00    -0.241 N 
HETATM    6  C8  UNL     1      21.295   0.314  53.660  1.00  0.00     0.119 A 
HETATM    7  C9  UNL     1      22.597  -0.172  53.530  1.00  0.00     0.030 A 
HETATM    8  C10 UNL     1      23.428   0.731  52.866  1.00  0.00     0.002 A 
HETATM    9  C18 UNL     1      22.536   1.752  52.616  1.00  0.00     0.094 A 
ENDROOT
BRANCH   8  10
HETATM   10  C11 UNL     1      24.855   0.654  52.661  1.00  0.00     0.314 C 
BRANCH  10  11
HETATM   11  N4  UNL     1      25.702   0.762  53.863  1.00  0.00     0.097 N 
HETATM   12  C12 UNL     1      26.368   2.048  53.742  1.00  0.00     0.275 C 
HETATM   13  C13 UNL     1      27.720   2.014  53.126  1.00  0.00     0.065 C 
HETATM   14  C14 UNL     1      28.611   1.241  54.086  1.00  0.00     0.221 C 
HETATM   15  C15 UNL     1      27.843   0.159  54.775  1.00  0.00     0.070 C 
HETATM   16  C16 UNL     1      26.626  -0.322  53.956  1.00  0.00     0.221 C 
HETATM   17  C17 UNL     1      27.180  -0.866  52.692  1.00  0.00     0.043 C 
BRANCH  14  18
HETATM   18  N5  UNL     1      29.784   0.832  53.387  1.00  0.00     0.083 N 
HETATM   19  H17 UNL     1      30.321   0.156  53.933  1.00  0.00     0.313 HD
HETATM   20  H18 UNL     1      30.414   1.644  53.216  1.00  0.00     0.313 HD
ENDBRANCH  14  18
ENDBRANCH  10  11
ENDBRANCH   8  10
BRANCH   1  21
HETATM   21  C5  UNL     1      23.894   3.274  51.324  1.00  0.00     0.034 C 
HETATM   22  C4  UNL     1      24.182   3.421  50.050  1.00  0.00     0.003 C 
BRANCH  22  23
HETATM   23  C3  UNL     1      23.342   3.295  48.889  1.00  0.00     0.004 C 
HETATM   24  C2  UNL     1      22.508   2.591  48.163  1.00  0.00    -0.070 C 
HETATM   25  C1  UNL     1      21.951   3.193  46.897  1.00  0.00     0.044 C 
BRANCH  24  26
HETATM   26  C19 UNL     1      21.922   1.206  48.319  1.00  0.00     0.148 C 
HETATM   27 CL1  UNL     1      20.708   1.101  49.585  1.00  0.00    -0.126 Cl
ENDBRANCH  24  26
ENDBRANCH  22  23
ENDBRANCH   1  21
TORSDOF 6
ENDMDL
MODEL 2
REMARK VINA RESULT:      -7.6      2.181      2.856
REMARK  6 active torsions:
REMARK  status: ('A' for Active; 'I' for Inactive)
REMARK    1  A    between atoms: C2_2  and  C19_24 
REMARK    2  A    between atoms: C3_3  and  C4_4 
REMARK    3  A    between atoms: C5_5  and  C6_6 
REMARK    4  A    between atoms: C10_13  and  C11_14 
REMARK    5  A    between atoms: C11_14  and  N4_15 
REMARK    6  A    between atoms: C14_18  and  N5_19 
ROOT
HETATM    1  C6  UNL     1      21.442   0.468  51.563  1.00  0.00     0.087 A 
HETATM    2  N1  UNL     1      20.168   0.494  51.186  1.00  0.00    -0.238 NA
HETATM    3  C7  UNL     1      19.171   0.061  51.902  1.00  0.00     0.256 A 
HETATM    4  N2  UNL     1      19.472  -0.445  53.108  1.00  0.00    -0.161 NA
HETATM    5  N3  UNL     1      20.736  -0.473  53.488  1.00  0.00    -0.241 N 
HETATM    6  C8  UNL     1      21.221  -0.996  54.647  1.00  0.00     0.119 A 
HETATM    7  C9  UNL     1      22.607  -0.843  54.589  1.00  0.00     0.030 A 
HETATM    8  C10 UNL     1      23.015  -0.225  53.406  1.00  0.00     0.002 A 
HETATM    9  C18 UNL     1      21.797  -0.038  52.789  1.00  0.00     0.094 A 
ENDROOT
BRANCH   8  10
HETATM   10  C11 UNL     1      24.337   0.226  53.039  1.00  0.00     0.314 C 
BRANCH  10  11
HETATM   11  N4  UNL     1      25.457  -0.676  53.363  1.00  0.00     0.097 N 
HETATM   12  C12 UNL     1      25.950  -0.219  54.651  1.00  0.00     0.275 C 
HETATM   13  C13 UNL     1      27.090   0.733  54.600  1.00  0.00     0.065 C 
HETATM   14  C14 UNL     1      28.268  -0.035  54.022  1.00  0.00     0.221 C 
HETATM   15  C15 UNL     1      27.807  -1.037  53.011  1.00  0.00     0.070 C 
HETATM   16  C16 UNL     1      26.466  -0.647  52.354  1.00  0.00     0.221 C 
HETATM   17  C17 UNL     1      26.714   0.642  51.663  1.00  0.00     0.043 C 
BRANCH  14  18
HETATM   18  N5  UNL     1      29.246   0.900  53.578  1.00  0.00     0.083 N 
HETATM   19  H17 UNL     1      29.342   1.674  54.239  1.00  0.00     0.313 HD
HETATM   20  H18 UNL     1      28.969   1.321  52.666  1.00  0.00     0.313 HD
ENDBRANCH  14  18
ENDBRANCH  10  11
ENDBRANCH   8  10
BRANCH   1  21
HETATM   21  C5  UNL     1      22.468   0.888  50.663  1.00  0.00     0.034 C 
HETATM   22  C4  UNL     1      22.824   2.101  50.303  1.00  0.00     0.003 C 
BRANCH  22  23
HETATM   23  C3  UNL     1      22.294   3.378  50.699  1.00  0.00     0.004 C 
HETATM   24  C2  UNL     1      22.379   4.466  51.426  1.00  0.00    -0.070 C 
HETATM   25  C1  UNL     1      21.310   5.521  51.291  1.00  0.00     0.044 C 
BRANCH  24  26
HETATM   26  C19 UNL     1      23.388   4.949  52.442  1.00  0.00     0.148 C 
HETATM   27 CL1  UNL     1      24.169   3.646  53.325  1.00  0.00    -0.126 Cl
ENDBRANCH  24  26
ENDBRANCH  22  23
ENDBRANCH   1  21
TORSDOF 6
ENDMDL
MODEL 3
REMARK VINA RESULT:      -7.5      2.806      6.691
REMARK  6 active torsions:
REMARK  status: ('A' for Active; 'I' for Inactive)
REMARK    1  A    between atoms: C2_2  and  C19_24 
REMARK    2  A    between atoms: C3_3  and  C4_4 
REMARK    3  A    between atoms: C5_5  and  C6_6 
REMARK    4  A    between atoms: C10_13  and  C11_14 
REMARK    5  A    between atoms: C11_14  and  N4_15 
REMARK    6  A    between atoms: C14_18  and  N5_19 
ROOT
HETATM    1  C6  UNL     1      24.354  -0.295  53.711  1.00  0.00     0.087 A 
HETATM    2  N1  UNL     1      24.949  -0.795  54.788  1.00  0.00    -0.238 NA
HETATM    3  C7  UNL     1      24.337  -1.403  55.762  1.00  0.00     0.256 A 
HETATM    4  N2  UNL     1      23.005  -1.523  55.653  1.00  0.00    -0.161 NA
HETATM    5  N3  UNL     1      22.407  -1.029  54.584  1.00  0.00    -0.241 N 
HETATM    6  C8  UNL     1      21.069  -1.016  54.339  1.00  0.00     0.119 A 
HETATM    7  C9  UNL     1      20.906  -0.351  53.122  1.00  0.00     0.030 A 
HETATM    8  C10 UNL     1      22.127   0.059  52.584  1.00  0.00     0.002 A 
HETATM    9  C18 UNL     1      22.993  -0.397  53.555  1.00  0.00     0.094 A 
ENDROOT
BRANCH   8  10
HETATM   10  C11 UNL     1      22.384   0.647  51.291  1.00  0.00     0.314 C 
BRANCH  10  11
HETATM   11  N4  UNL     1      21.471   1.721  50.859  1.00  0.00     0.097 N 
HETATM   12  C12 UNL     1      20.790   1.191  49.690  1.00  0.00     0.275 C 
HETATM   13  C13 UNL     1      21.393   1.551  48.380  1.00  0.00     0.065 C 
HETATM   14  C14 UNL     1      21.234   3.056  48.232  1.00  0.00     0.221 C 
HETATM   15  C15 UNL     1      21.344   3.738  49.558  1.00  0.00     0.070 C 
HETATM   16  C16 UNL     1      22.175   2.930  50.577  1.00  0.00     0.221 C 
HETATM   17  C17 UNL     1      23.533   2.816  49.990  1.00  0.00     0.043 C 
BRANCH  14  18
HETATM   18  N5  UNL     1      22.127   3.508  47.217  1.00  0.00     0.083 N 
HETATM   19  H17 UNL     1      22.167   2.846  46.440  1.00  0.00     0.313 HD
HETATM   20  H18 UNL     1      23.097   3.591  47.588  1.00  0.00     0.313 HD
ENDBRANCH  14  18
ENDBRANCH  10  11
ENDBRANCH   8  10
BRANCH   1  21
HETATM   21  C5  UNL     1      25.109   0.432  52.742  1.00  0.00     0.034 C 
HETATM   22  C4  UNL     1      26.320   0.209  52.283  1.00  0.00     0.003 C 
BRANCH  22  23
HETATM   23  C3  UNL     1      27.259  -0.830  52.611  1.00  0.00     0.004 C 
HETATM   24  C2  UNL     1      28.409  -1.201  53.119  1.00  0.00    -0.070 C 
HETATM   25  C1  UNL     1      28.769  -2.666  53.124  1.00  0.00     0.044 C 
BRANCH  24  26
HETATM   26  C19 UNL     1      29.545  -0.438  53.762  1.00  0.00     0.148 C 
HETATM   27 CL1  UNL     1      29.017   0.979  54.655  1.00  0.00    -0.126 Cl
ENDBRANCH  24  26
ENDBRANCH  22  23
ENDBRANCH   1  21
TORSDOF 6
ENDMDL
MODEL 4
REMARK VINA RESULT:      -7.4      1.981      2.484
REMARK  6 active torsions:
REMARK  status: ('A' for Active; 'I' for Inactive)
REMARK    1  A    between atoms: C2_2  and  C19_24 
REMARK    2  A    between atoms: C3_3  and  C4_4 
REMARK    3  A    between atoms: C5_5  and  C6_6 
REMARK    4  A    between atoms: C10_13  and  C11_14 
REMARK    5  A    between atoms: C11_14  and  N4_15 
REMARK    6  A    between atoms: C14_18  and  N5_19 
ROOT
HETATM    1  C6  UNL     1      21.786   0.723  51.551  1.00  0.00     0.087 A 
HETATM    2  N1  UNL     1      20.577   0.767  51.000  1.00  0.00    -0.238 NA
HETATM    3  C7  UNL     1      19.495   0.284  51.539  1.00  0.00     0.256 A 
HETATM    4  N2  UNL     1      19.630  -0.298  52.740  1.00  0.00    -0.161 NA
HETATM    5  N3  UNL     1      20.828  -0.344  53.293  1.00  0.00    -0.241 N 
HETATM    6  C8  UNL     1      21.152  -0.939  54.474  1.00  0.00     0.119 A 
HETATM    7  C9  UNL     1      22.530  -0.777  54.622  1.00  0.00     0.030 A 
HETATM    8  C10 UNL     1      23.092  -0.082  53.550  1.00  0.00     0.002 A 
HETATM    9  C18 UNL     1      21.971   0.139  52.781  1.00  0.00     0.094 A 
ENDROOT
BRANCH   8  10
HETATM   10  C11 UNL     1      24.446   0.398  53.404  1.00  0.00     0.314 C 
BRANCH  10  11
HETATM   11  N4  UNL     1      25.523  -0.592  53.594  1.00  0.00     0.097 N 
HETATM   12  C12 UNL     1      26.166  -0.215  54.842  1.00  0.00     0.275 C 
HETATM   13  C13 UNL     1      27.363   0.655  54.708  1.00  0.00     0.065 C 
HETATM   14  C14 UNL     1      28.422  -0.174  53.998  1.00  0.00     0.221 C 
HETATM   15  C15 UNL     1      27.797  -1.105  53.009  1.00  0.00     0.070 C 
HETATM   16  C16 UNL     1      26.432  -0.599  52.494  1.00  0.00     0.221 C 
HETATM   17  C17 UNL     1      26.709   0.692  51.819  1.00  0.00     0.043 C 
BRANCH  14  18
HETATM   18  N5  UNL     1      29.421   0.705  53.490  1.00  0.00     0.083 N 
HETATM   19  H17 UNL     1      30.358   0.367  53.716  1.00  0.00     0.313 HD
HETATM   20  H18 UNL     1      29.334   1.651  53.919  1.00  0.00     0.313 HD
ENDBRANCH  14  18
ENDBRANCH  10  11
ENDBRANCH   8  10
BRANCH   1  21
HETATM   21  C5  UNL     1      22.922   1.204  50.834  1.00  0.00     0.034 C 
HETATM   22  C4  UNL     1      23.267   2.437  50.537  1.00  0.00     0.003 C 
BRANCH  22  23
HETATM   23  C3  UNL     1      22.610   3.680  50.838  1.00  0.00     0.004 C 
HETATM   24  C2  UNL     1      21.542   4.441  50.790  1.00  0.00    -0.070 C 
HETATM   25  C1  UNL     1      21.598   5.819  51.399  1.00  0.00     0.044 C 
BRANCH  24  26
HETATM   26  C19 UNL     1      20.154   4.233  50.228  1.00  0.00     0.148 C 
HETATM   27 CL1  UNL     1      18.950   3.876  51.456  1.00  0.00    -0.126 Cl
ENDBRANCH  24  26
ENDBRANCH  22  23
ENDBRANCH   1  21
TORSDOF 6
ENDMDL
MODEL 5
REMARK VINA RESULT:      -7.4      2.545      3.183
REMARK  6 active torsions:
REMARK  status: ('A' for Active; 'I' for Inactive)
REMARK    1  A    between atoms: C2_2  and  C19_24 
REMARK    2  A    between atoms: C3_3  and  C4_4 
REMARK    3  A    between atoms: C5_5  and  C6_6 
REMARK    4  A    between atoms: C10_13  and  C11_14 
REMARK    5  A    between atoms: C11_14  and  N4_15 
REMARK    6  A    between atoms: C14_18  and  N5_19 
ROOT
HETATM    1  C6  UNL     1      23.399   3.006  50.414  1.00  0.00     0.087 A 
HETATM    2  N1  UNL     1      22.604   3.900  49.836  1.00  0.00    -0.238 NA
HETATM    3  C7  UNL     1      21.370   4.132  50.181  1.00  0.00     0.256 A 
HETATM    4  N2  UNL     1      20.883   3.405  51.198  1.00  0.00    -0.161 NA
HETATM    5  N3  UNL     1      21.669   2.516  51.777  1.00  0.00    -0.241 N 
HETATM    6  C8  UNL     1      21.323   1.663  52.780  1.00  0.00     0.119 A 
HETATM    7  C9  UNL     1      22.455   0.884  53.030  1.00  0.00     0.030 A 
HETATM    8  C10 UNL     1      23.522   1.233  52.201  1.00  0.00     0.002 A 
HETATM    9  C18 UNL     1      22.944   2.241  51.461  1.00  0.00     0.094 A 
ENDROOT
BRANCH   8  10
HETATM   10  C11 UNL     1      24.886   0.759  52.247  1.00  0.00     0.314 C 
BRANCH  10  11
HETATM   11  N4  UNL     1      25.591   0.899  53.534  1.00  0.00     0.097 N 
HETATM   12  C12 UNL     1      26.322   2.151  53.430  1.00  0.00     0.275 C 
HETATM   13  C13 UNL     1      27.734   2.033  52.981  1.00  0.00     0.065 C 
HETATM   14  C14 UNL     1      28.473   1.280  54.076  1.00  0.00     0.221 C 
HETATM   15  C15 UNL     1      27.583   0.266  54.721  1.00  0.00     0.070 C 
HETATM   16  C16 UNL     1      26.450  -0.212  53.788  1.00  0.00     0.221 C 
HETATM   17  C17 UNL     1      27.122  -0.844  52.627  1.00  0.00     0.043 C 
BRANCH  14  18
HETATM   18  N5  UNL     1      29.699   0.790  53.541  1.00  0.00     0.083 N 
HETATM   19  H17 UNL     1      29.760  -0.226  53.631  1.00  0.00     0.313 HD
HETATM   20  H18 UNL     1      30.513   1.184  54.061  1.00  0.00     0.313 HD
ENDBRANCH  14  18
ENDBRANCH  10  11
ENDBRANCH   8  10
BRANCH   1  21
HETATM   21  C5  UNL     1      24.709   2.768  49.900  1.00  0.00     0.034 C 
HETATM   22  C4  UNL     1      25.672   3.621  49.629  1.00  0.00     0.003 C 
BRANCH  22  23
HETATM   23  C3  UNL     1      25.706   5.052  49.762  1.00  0.00     0.004 C 
HETATM   24  C2  UNL     1      26.222   6.211  49.429  1.00  0.00    -0.070 C 
HETATM   25  C1  UNL     1      25.675   7.465  50.065  1.00  0.00     0.044 C 
BRANCH  24  26
HETATM   26  C19 UNL     1      27.319   6.613  48.470  1.00  0.00     0.148 C 
HETATM   27 CL1  UNL     1      28.551   5.378  48.263  1.00  0.00    -0.126 Cl
ENDBRANCH  24  26
ENDBRANCH  22  23
ENDBRANCH   1  21
TORSDOF 6
ENDMDL
MODEL 6
REMARK VINA RESULT:      -7.3      3.775      4.695
REMARK  6 active torsions:
REMARK  status: ('A' for Active; 'I' for Inactive)
REMARK    1  A    between atoms: C2_2  and  C19_24 
REMARK    2  A    between atoms: C3_3  and  C4_4 
REMARK    3  A    between atoms: C5_5  and  C6_6 
REMARK    4  A    between atoms: C10_13  and  C11_14 
REMARK    5  A    between atoms: C11_14  and  N4_15 
REMARK    6  A    between atoms: C14_18  and  N5_19 
ROOT
HETATM    1  C6  UNL     1      25.140   4.468  49.850  1.00  0.00     0.087 A 
HETATM    2  N1  UNL     1      24.572   5.419  49.116  1.00  0.00    -0.238 NA
HETATM    3  C7  UNL     1      23.400   5.937  49.347  1.00  0.00     0.256 A 
HETATM    4  N2  UNL     1      22.731   5.462  50.408  1.00  0.00    -0.161 NA
HETATM    5  N3  UNL     1      23.290   4.517  51.142  1.00  0.00    -0.241 N 
HETATM    6  C8  UNL     1      22.734   3.890  52.213  1.00  0.00     0.119 A 
HETATM    7  C9  UNL     1      23.668   2.940  52.631  1.00  0.00     0.030 A 
HETATM    8  C10 UNL     1      24.817   2.955  51.840  1.00  0.00     0.002 A 
HETATM    9  C18 UNL     1      24.493   3.954  50.947  1.00  0.00     0.094 A 
ENDROOT
BRANCH   8  10
HETATM   10  C11 UNL     1      26.050   2.228  52.035  1.00  0.00     0.314 C 
BRANCH  10  11
HETATM   11  N4  UNL     1      26.422   1.918  53.428  1.00  0.00     0.097 N 
HETATM   12  C12 UNL     1      27.824   2.285  53.536  1.00  0.00     0.275 C 
HETATM   13  C13 UNL     1      28.794   1.179  53.319  1.00  0.00     0.065 C 
HETATM   14  C14 UNL     1      28.593   0.200  54.464  1.00  0.00     0.221 C 
HETATM   15  C15 UNL     1      27.158   0.150  54.880  1.00  0.00     0.070 C 
HETATM   16  C16 UNL     1      26.194   0.545  53.741  1.00  0.00     0.221 C 
HETATM   17  C17 UNL     1      26.410  -0.453  52.664  1.00  0.00     0.043 C 
BRANCH  14  18
HETATM   18  N5  UNL     1      29.188  -1.044  54.107  1.00  0.00     0.083 N 
HETATM   19  H17 UNL     1      30.131  -0.909  53.737  1.00  0.00     0.313 HD
HETATM   20  H18 UNL     1      28.639  -1.514  53.355  1.00  0.00     0.313 HD
ENDBRANCH  14  18
ENDBRANCH  10  11
ENDBRANCH   8  10
BRANCH   1  21
HETATM   21  C5  UNL     1      26.392   3.907  49.458  1.00  0.00     0.034 C 
HETATM   22  C4  UNL     1      27.412   4.473  48.852  1.00  0.00     0.003 C 
BRANCH  22  23
HETATM   23  C3  UNL     1      27.585   5.826  48.396  1.00  0.00     0.004 C 
HETATM   24  C2  UNL     1      28.355   6.773  47.918  1.00  0.00    -0.070 C 
HETATM   25  C1  UNL     1      27.761   8.132  47.644  1.00  0.00     0.044 C 
BRANCH  24  26
HETATM   26  C19 UNL     1      29.818   6.816  47.537  1.00  0.00     0.148 C 
HETATM   27 CL1  UNL     1      30.896   6.923  48.921  1.00  0.00    -0.126 Cl
ENDBRANCH  24  26
ENDBRANCH  22  23
ENDBRANCH   1  21
TORSDOF 6
ENDMDL
MODEL 7
REMARK VINA RESULT:      -7.3      2.255      3.179
REMARK  6 active torsions:
REMARK  status: ('A' for Active; 'I' for Inactive)
REMARK    1  A    between atoms: C2_2  and  C19_24 
REMARK    2  A    between atoms: C3_3  and  C4_4 
REMARK    3  A    between atoms: C5_5  and  C6_6 
REMARK    4  A    between atoms: C10_13  and  C11_14 
REMARK    5  A    between atoms: C11_14  and  N4_15 
REMARK    6  A    between atoms: C14_18  and  N5_19 
ROOT
HETATM    1  C6  UNL     1      23.521   2.786  49.457  1.00  0.00     0.087 A 
HETATM    2  N1  UNL     1      22.889   3.179  48.356  1.00  0.00    -0.238 NA
HETATM    3  C7  UNL     1      21.684   2.818  48.020  1.00  0.00     0.256 A 
HETATM    4  N2  UNL     1      21.049   1.987  48.861  1.00  0.00    -0.161 NA
HETATM    5  N3  UNL     1      21.671   1.593  49.957  1.00  0.00    -0.241 N 
HETATM    6  C8  UNL     1      21.199   0.717  50.885  1.00  0.00     0.119 A 
HETATM    7  C9  UNL     1      22.216   0.571  51.829  1.00  0.00     0.030 A 
HETATM    8  C10 UNL     1      23.333   1.347  51.518  1.00  0.00     0.002 A 
HETATM    9  C18 UNL     1      22.909   1.937  50.348  1.00  0.00     0.094 A 
ENDROOT
BRANCH   8  10
HETATM   10  C11 UNL     1      24.519   1.571  52.311  1.00  0.00     0.314 C 
BRANCH  10  11
HETATM   11  N4  UNL     1      25.442   0.430  52.457  1.00  0.00     0.097 N 
HETATM   12  C12 UNL     1      25.304   0.007  53.841  1.00  0.00     0.275 C 
HETATM   13  C13 UNL     1      26.297   0.579  54.788  1.00  0.00     0.065 C 
HETATM   14  C14 UNL     1      27.652   0.023  54.379  1.00  0.00     0.221 C 
HETATM   15  C15 UNL     1      27.731  -0.156  52.897  1.00  0.00     0.070 C 
HETATM   16  C16 UNL     1      26.783   0.792  52.131  1.00  0.00     0.221 C 
HETATM   17  C17 UNL     1      27.228   2.166  52.466  1.00  0.00     0.043 C 
BRANCH  14  18
HETATM   18  N5  UNL     1      28.669   0.826  54.971  1.00  0.00     0.083 N 
HETATM   19  H17 UNL     1      28.412   1.104  55.920  1.00  0.00     0.313 HD
HETATM   20  H18 UNL     1      28.806   1.706  54.430  1.00  0.00     0.313 HD
ENDBRANCH  14  18
ENDBRANCH  10  11
ENDBRANCH   8  10
BRANCH   1  21
HETATM   21  C5  UNL     1      24.876   3.170  49.686  1.00  0.00     0.034 C 
HETATM   22  C4  UNL     1      25.367   4.329  50.065  1.00  0.00     0.003 C 
BRANCH  22  23
HETATM   23  C3  UNL     1      24.696   5.566  50.364  1.00  0.00     0.004 C 
HETATM   24  C2  UNL     1      23.685   6.209  50.896  1.00  0.00    -0.070 C 
HETATM   25  C1  UNL     1      23.651   7.715  50.817  1.00  0.00     0.044 C 
BRANCH  24  26
HETATM   26  C19 UNL     1      22.450   5.752  51.639  1.00  0.00     0.148 C 
HETATM   27 CL1  UNL     1      21.124   5.301  50.578  1.00  0.00    -0.126 Cl
ENDBRANCH  24  26
ENDBRANCH  22  23
ENDBRANCH   1  21
TORSDOF 6
ENDMDL
MODEL 8
REMARK VINA RESULT:      -7.2      2.960      5.853
REMARK  6 active torsions:
REMARK  status: ('A' for Active; 'I' for Inactive)
REMARK    1  A    between atoms: C2_2  and  C19_24 
REMARK    2  A    between atoms: C3_3  and  C4_4 
REMARK    3  A    between atoms: C5_5  and  C6_6 
REMARK    4  A    between atoms: C10_13  and  C11_14 
REMARK    5  A    between atoms: C11_14  and  N4_15 
REMARK    6  A    between atoms: C14_18  and  N5_19 
ROOT
HETATM    1  C6  UNL     1      23.618   1.166  53.039  1.00  0.00     0.087 A 
HETATM    2  N1  UNL     1      23.479  -0.083  53.470  1.00  0.00    -0.238 NA
HETATM    3  C7  UNL     1      22.352  -0.731  53.524  1.00  0.00     0.256 A 
HETATM    4  N2  UNL     1      21.259  -0.071  53.109  1.00  0.00    -0.161 NA
HETATM    5  N3  UNL     1      21.391   1.170  52.678  1.00  0.00    -0.241 N 
HETATM    6  C8  UNL     1      20.388   1.996  52.274  1.00  0.00     0.119 A 
HETATM    7  C9  UNL     1      20.996   3.213  51.959  1.00  0.00     0.030 A 
HETATM    8  C10 UNL     1      22.377   3.173  52.153  1.00  0.00     0.002 A 
HETATM    9  C18 UNL     1      22.528   1.879  52.601  1.00  0.00     0.094 A 
ENDROOT
BRANCH   8  10
HETATM   10  C11 UNL     1      23.360   4.175  51.813  1.00  0.00     0.314 C 
BRANCH  10  11
HETATM   11  N4  UNL     1      23.583   4.421  50.376  1.00  0.00     0.097 N 
HETATM   12  C12 UNL     1      24.715   3.582  50.020  1.00  0.00     0.275 C 
HETATM   13  C13 UNL     1      26.044   4.248  50.061  1.00  0.00     0.065 C 
HETATM   14  C14 UNL     1      26.028   5.307  48.970  1.00  0.00     0.221 C 
HETATM   15  C15 UNL     1      24.663   5.897  48.817  1.00  0.00     0.070 C 
HETATM   16  C16 UNL     1      23.825   5.802  50.110  1.00  0.00     0.221 C 
HETATM   17  C17 UNL     1      24.567   6.582  51.131  1.00  0.00     0.043 C 
BRANCH  14  18
HETATM   18  N5  UNL     1      27.088   6.227  49.216  1.00  0.00     0.083 N 
HETATM   19  H17 UNL     1      26.818   7.177  48.954  1.00  0.00     0.313 HD
HETATM   20  H18 UNL     1      27.926   5.987  48.646  1.00  0.00     0.313 HD
ENDBRANCH  14  18
ENDBRANCH  10  11
ENDBRANCH   8  10
BRANCH   1  21
HETATM   21  C5  UNL     1      24.889   1.814  53.104  1.00  0.00     0.034 C 
HETATM   22  C4  UNL     1      26.096   1.305  53.006  1.00  0.00     0.003 C 
BRANCH  22  23
HETATM   23  C3  UNL     1      26.514  -0.057  52.805  1.00  0.00     0.004 C 
HETATM   24  C2  UNL     1      27.418  -0.998  52.935  1.00  0.00    -0.070 C 
HETATM   25  C1  UNL     1      27.115  -2.381  52.417  1.00  0.00     0.044 C 
BRANCH  24  26
HETATM   26  C19 UNL     1      28.802  -1.019  53.543  1.00  0.00     0.148 C 
HETATM   27 CL1  UNL     1      29.562   0.564  53.604  1.00  0.00    -0.126 Cl
ENDBRANCH  24  26
ENDBRANCH  22  23
ENDBRANCH   1  21
TORSDOF 6
ENDMDL
MODEL 9
REMARK VINA RESULT:      -6.9      2.800      6.385
REMARK  6 active torsions:
REMARK  status: ('A' for Active; 'I' for Inactive)
REMARK    1  A    between atoms: C2_2  and  C19_24 
REMARK    2  A    between atoms: C3_3  and  C4_4 
REMARK    3  A    between atoms: C5_5  and  C6_6 
REMARK    4  A    between atoms: C10_13  and  C11_14 
REMARK    5  A    between atoms: C11_14  and  N4_15 
REMARK    6  A    between atoms: C14_18  and  N5_19 
ROOT
HETATM    1  C6  UNL     1      22.724   0.097  53.572  1.00  0.00     0.087 A 
HETATM    2  N1  UNL     1      23.143  -0.796  54.463  1.00  0.00    -0.238 NA
HETATM    3  C7  UNL     1      22.390  -1.699  55.022  1.00  0.00     0.256 A 
HETATM    4  N2  UNL     1      21.098  -1.713  54.659  1.00  0.00    -0.161 NA
HETATM    5  N3  UNL     1      20.677  -0.829  53.774  1.00  0.00    -0.241 N 
HETATM    6  C8  UNL     1      19.398  -0.669  53.336  1.00  0.00     0.119 A 
HETATM    7  C9  UNL     1      19.426   0.410  52.451  1.00  0.00     0.030 A 
HETATM    8  C10 UNL     1      20.710   0.940  52.314  1.00  0.00     0.002 A 
HETATM    9  C18 UNL     1      21.411   0.118  53.169  1.00  0.00     0.094 A 
ENDROOT
BRANCH   8  10
HETATM   10  C11 UNL     1      21.166   1.960  51.399  1.00  0.00     0.314 C 
BRANCH  10  11
HETATM   11  N4  UNL     1      21.111   3.353  51.880  1.00  0.00     0.097 N 
HETATM   12  C12 UNL     1      19.909   3.911  51.284  1.00  0.00     0.275 C 
HETATM   13  C13 UNL     1      20.109   4.647  50.008  1.00  0.00     0.065 C 
HETATM   14  C14 UNL     1      20.941   5.874  50.345  1.00  0.00     0.221 C 
HETATM   15  C15 UNL     1      21.911   5.577  51.444  1.00  0.00     0.070 C 
HETATM   16  C16 UNL     1      22.284   4.081  51.521  1.00  0.00     0.221 C 
HETATM   17  C17 UNL     1      22.926   3.758  50.223  1.00  0.00     0.043 C 
BRANCH  14  18
HETATM   18  N5  UNL     1      21.497   6.390  49.139  1.00  0.00     0.083 N 
HETATM   19  H17 UNL     1      22.221   7.085  49.335  1.00  0.00     0.313 HD
HETATM   20  H18 UNL     1      20.767   6.873  48.572  1.00  0.00     0.313 HD
ENDBRANCH  14  18
ENDBRANCH  10  11
ENDBRANCH   8  10
BRANCH   1  21
HETATM   21  C5  UNL     1      23.614   1.102  53.087  1.00  0.00     0.034 C 
HETATM   22  C4  UNL     1      24.863   0.996  52.690  1.00  0.00     0.003 C 
BRANCH  22  23
HETATM   23  C3  UNL     1      25.719  -0.157  52.622  1.00  0.00     0.004 C 
HETATM   24  C2  UNL     1      26.869  -0.734  52.878  1.00  0.00    -0.070 C 
HETATM   25  C1  UNL     1      27.079  -2.167  52.455  1.00  0.00     0.044 C 
BRANCH  24  26
HETATM   26  C19 UNL     1      28.130  -0.258  53.562  1.00  0.00     0.148 C 
HETATM   27 CL1  UNL     1      28.500   1.430  53.247  1.00  0.00    -0.126 Cl
ENDBRANCH  24  26
ENDBRANCH  22  23
ENDBRANCH   1  21
TORSDOF 6
ENDMDL
