MODEL 1
REMARK VINA RESULT:      -8.4      0.000      0.000
REMARK  6 active torsions:
REMARK  status: ('A' for Active; 'I' for Inactive)
REMARK    1  A    between atoms: C2_2  and  C3_3 
REMARK       I    between atoms: C3_3  and  N1_5 
REMARK    2  A    between atoms: N1_5  and  C4_6 
REMARK    3  A    between atoms: C5_7  and  C6_8 
REMARK    4  A    between atoms: C6_8  and  C7_9 
REMARK    5  A    between atoms: C7_9  and  C8_10 
REMARK    6  A    between atoms: C10_12  and  N2_13 
ROOT
HETATM    1  C8  UNL     1      26.813   1.638  52.456  1.00  0.00     0.054 C 
HETATM    2  C9  UNL     1      27.850   2.242  52.968  1.00  0.00     0.028 C 
HETATM    3  C10 UNL     1      28.541   1.561  53.845  1.00  0.00     0.023 C 
HETATM    4  C11 UNL     1      28.250   0.134  54.152  1.00  0.00     0.136 C 
HETATM    5  C12 UNL     1      26.760  -0.084  54.124  1.00  0.00     0.117 A 
HETATM    6  N3  UNL     1      25.860  -0.867  54.740  1.00  0.00    -0.232 NA
HETATM    7  C13 UNL     1      24.648  -0.553  54.246  1.00  0.00     0.086 A 
HETATM    8  C14 UNL     1      23.364  -1.031  54.507  1.00  0.00     0.034 A 
HETATM    9  C15 UNL     1      22.256  -0.509  53.830  1.00  0.00     0.002 A 
HETATM   10  C16 UNL     1      22.401   0.501  52.876  1.00  0.00     0.002 A 
HETATM   11  C17 UNL     1      23.680   0.957  52.635  1.00  0.00     0.032 A 
HETATM   12  C18 UNL     1      24.770   0.443  53.301  1.00  0.00     0.070 A 
HETATM   13  N4  UNL     1      26.082   0.713  53.246  1.00  0.00    -0.296 N 
ENDROOT
BRANCH   1  14
HETATM   14  C7  UNL     1      26.400   1.885  51.094  1.00  0.00     0.031 C 
BRANCH  14  15
HETATM   15  C6  UNL     1      25.611   2.944  50.840  1.00  0.00     0.004 C 
BRANCH  15  16
HETATM   16  C5  UNL     1      26.007   4.148  50.080  1.00  0.00     0.017 C 
HETATM   17  C4  UNL     1      27.080   4.197  49.309  1.00  0.00     0.091 C 
BRANCH  17  18
HETATM   18  N1  UNL     1      27.357   5.415  48.626  1.00  0.00    -0.334 N 
HETATM   19  C3  UNL     1      28.647   5.869  48.171  1.00  0.00     0.244 C 
HETATM   20  O1  UNL     1      29.595   5.082  48.422  1.00  0.00    -0.268 OA
HETATM   21  H4  UNL     1      26.486   5.956  48.490  1.00  0.00     0.168 HD
BRANCH  19  22
HETATM   22  C2  UNL     1      28.754   7.151  47.483  1.00  0.00     0.064 C 
HETATM   23  C1  UNL     1      27.716   7.871  47.106  1.00  0.00     0.017 C 
ENDBRANCH  19  22
ENDBRANCH  17  18
ENDBRANCH  15  16
ENDBRANCH  14  15
ENDBRANCH   1  14
BRANCH   3  24
HETATM   24  N2  UNL     1      29.603   2.230  54.517  1.00  0.00    -0.401 N 
HETATM   25  H9  UNL     1      30.100   2.789  55.242  1.00  0.00     0.156 HD
HETATM   26  H10 UNL     1      30.367   1.998  53.817  1.00  0.00     0.156 HD
ENDBRANCH   3  24
TORSDOF 6
ENDMDL
MODEL 2
REMARK VINA RESULT:      -8.2      2.782      3.387
REMARK  6 active torsions:
REMARK  status: ('A' for Active; 'I' for Inactive)
REMARK    1  A    between atoms: C2_2  and  C3_3 
REMARK       I    between atoms: C3_3  and  N1_5 
REMARK    2  A    between atoms: N1_5  and  C4_6 
REMARK    3  A    between atoms: C5_7  and  C6_8 
REMARK    4  A    between atoms: C6_8  and  C7_9 
REMARK    5  A    between atoms: C7_9  and  C8_10 
REMARK    6  A    between atoms: C10_12  and  N2_13 
ROOT
HETATM    1  C8  UNL     1      26.809   1.542  52.459  1.00  0.00     0.054 C 
HETATM    2  C9  UNL     1      27.839   2.152  52.980  1.00  0.00     0.028 C 
HETATM    3  C10 UNL     1      28.495   1.496  53.902  1.00  0.00     0.023 C 
HETATM    4  C11 UNL     1      28.176   0.085  54.252  1.00  0.00     0.136 C 
HETATM    5  C12 UNL     1      26.686  -0.116  54.187  1.00  0.00     0.117 A 
HETATM    6  N3  UNL     1      25.758  -0.865  54.804  1.00  0.00    -0.232 NA
HETATM    7  C13 UNL     1      24.565  -0.556  54.263  1.00  0.00     0.086 A 
HETATM    8  C14 UNL     1      23.268  -1.009  54.503  1.00  0.00     0.034 A 
HETATM    9  C15 UNL     1      22.187  -0.499  53.774  1.00  0.00     0.002 A 
HETATM   10  C16 UNL     1      22.373   0.473  52.788  1.00  0.00     0.002 A 
HETATM   11  C17 UNL     1      23.665   0.904  52.569  1.00  0.00     0.032 A 
HETATM   12  C18 UNL     1      24.727   0.403  53.286  1.00  0.00     0.070 A 
HETATM   13  N4  UNL     1      26.044   0.655  53.261  1.00  0.00    -0.296 N 
ENDROOT
BRANCH   1  14
HETATM   14  C7  UNL     1      26.440   1.743  51.077  1.00  0.00     0.031 C 
BRANCH  14  15
HETATM   15  C6  UNL     1      26.269   2.999  50.630  1.00  0.00     0.004 C 
BRANCH  15  16
HETATM   16  C5  UNL     1      25.296   3.421  49.601  1.00  0.00     0.017 C 
HETATM   17  C4  UNL     1      23.988   3.299  49.748  1.00  0.00     0.091 C 
BRANCH  17  18
HETATM   18  N1  UNL     1      23.151   3.741  48.685  1.00  0.00    -0.334 N 
HETATM   19  C3  UNL     1      22.322   2.915  47.846  1.00  0.00     0.244 C 
HETATM   20  O1  UNL     1      22.372   1.687  48.110  1.00  0.00    -0.268 OA
HETATM   21  H4  UNL     1      23.213   4.769  48.586  1.00  0.00     0.168 HD
BRANCH  19  22
HETATM   22  C2  UNL     1      21.521   3.535  46.796  1.00  0.00     0.064 C 
HETATM   23  C1  UNL     1      21.960   3.760  45.573  1.00  0.00     0.017 C 
ENDBRANCH  19  22
ENDBRANCH  17  18
ENDBRANCH  15  16
ENDBRANCH  14  15
ENDBRANCH   1  14
BRANCH   3  24
HETATM   24  N2  UNL     1      29.545   2.177  54.580  1.00  0.00    -0.401 N 
HETATM   25  H9  UNL     1      30.219   2.932  54.825  1.00  0.00     0.156 HD
HETATM   26  H10 UNL     1      29.770   1.409  55.277  1.00  0.00     0.156 HD
ENDBRANCH   3  24
TORSDOF 6
ENDMDL
MODEL 3
REMARK VINA RESULT:      -8.2      2.734      3.424
REMARK  6 active torsions:
REMARK  status: ('A' for Active; 'I' for Inactive)
REMARK    1  A    between atoms: C2_2  and  C3_3 
REMARK       I    between atoms: C3_3  and  N1_5 
REMARK    2  A    between atoms: N1_5  and  C4_6 
REMARK    3  A    between atoms: C5_7  and  C6_8 
REMARK    4  A    between atoms: C6_8  and  C7_9 
REMARK    5  A    between atoms: C7_9  and  C8_10 
REMARK    6  A    between atoms: C10_12  and  N2_13 
ROOT
HETATM    1  C8  UNL     1      26.877   1.574  52.495  1.00  0.00     0.054 C 
HETATM    2  C9  UNL     1      27.905   2.188  53.014  1.00  0.00     0.028 C 
HETATM    3  C10 UNL     1      28.567   1.533  53.932  1.00  0.00     0.023 C 
HETATM    4  C11 UNL     1      28.257   0.119  54.279  1.00  0.00     0.136 C 
HETATM    5  C12 UNL     1      26.768  -0.090  54.218  1.00  0.00     0.117 A 
HETATM    6  N3  UNL     1      25.845  -0.845  54.836  1.00  0.00    -0.232 NA
HETATM    7  C13 UNL     1      24.649  -0.540  54.299  1.00  0.00     0.086 A 
HETATM    8  C14 UNL     1      23.355  -1.001  54.542  1.00  0.00     0.034 A 
HETATM    9  C15 UNL     1      22.270  -0.495  53.818  1.00  0.00     0.002 A 
HETATM   10  C16 UNL     1      22.448   0.481  52.835  1.00  0.00     0.002 A 
HETATM   11  C17 UNL     1      23.736   0.920  52.613  1.00  0.00     0.032 A 
HETATM   12  C18 UNL     1      24.803   0.422  53.325  1.00  0.00     0.070 A 
HETATM   13  N4  UNL     1      26.119   0.681  53.296  1.00  0.00    -0.296 N 
ENDROOT
BRANCH   1  14
HETATM   14  C7  UNL     1      26.503   1.777  51.114  1.00  0.00     0.031 C 
BRANCH  14  15
HETATM   15  C6  UNL     1      26.616   3.009  50.589  1.00  0.00     0.004 C 
BRANCH  15  16
HETATM   16  C5  UNL     1      25.490   3.889  50.208  1.00  0.00     0.017 C 
HETATM   17  C4  UNL     1      24.429   4.077  50.973  1.00  0.00     0.091 C 
BRANCH  17  18
HETATM   18  N1  UNL     1      23.408   4.948  50.498  1.00  0.00    -0.334 N 
HETATM   19  C3  UNL     1      22.268   5.421  51.241  1.00  0.00     0.244 C 
HETATM   20  O1  UNL     1      22.206   4.997  52.424  1.00  0.00    -0.268 OA
HETATM   21  H4  UNL     1      23.592   5.211  49.514  1.00  0.00     0.168 HD
BRANCH  19  22
HETATM   22  C2  UNL     1      21.312   6.314  50.597  1.00  0.00     0.064 C 
HETATM   23  C1  UNL     1      21.404   7.629  50.623  1.00  0.00     0.017 C 
ENDBRANCH  19  22
ENDBRANCH  17  18
ENDBRANCH  15  16
ENDBRANCH  14  15
ENDBRANCH   1  14
BRANCH   3  24
HETATM   24  N2  UNL     1      29.617   2.217  54.609  1.00  0.00    -0.401 N 
HETATM   25  H9  UNL     1      30.486   2.366  55.163  1.00  0.00     0.156 HD
HETATM   26  H10 UNL     1      29.279   3.204  54.408  1.00  0.00     0.156 HD
ENDBRANCH   3  24
TORSDOF 6
ENDMDL
MODEL 4
REMARK VINA RESULT:      -8.0      3.629      7.589
REMARK  6 active torsions:
REMARK  status: ('A' for Active; 'I' for Inactive)
REMARK    1  A    between atoms: C2_2  and  C3_3 
REMARK       I    between atoms: C3_3  and  N1_5 
REMARK    2  A    between atoms: N1_5  and  C4_6 
REMARK    3  A    between atoms: C5_7  and  C6_8 
REMARK    4  A    between atoms: C6_8  and  C7_9 
REMARK    5  A    between atoms: C7_9  and  C8_10 
REMARK    6  A    between atoms: C10_12  and  N2_13 
ROOT
HETATM    1  C8  UNL     1      25.239   0.239  52.906  1.00  0.00     0.054 C 
HETATM    2  C9  UNL     1      26.001  -0.797  53.124  1.00  0.00     0.028 C 
HETATM    3  C10 UNL     1      27.285  -0.565  53.205  1.00  0.00     0.023 C 
HETATM    4  C11 UNL     1      27.846   0.814  53.185  1.00  0.00     0.136 C 
HETATM    5  C12 UNL     1      27.050   1.658  52.227  1.00  0.00     0.117 A 
HETATM    6  N3  UNL     1      27.265   2.696  51.403  1.00  0.00    -0.232 NA
HETATM    7  C13 UNL     1      26.095   2.984  50.803  1.00  0.00     0.086 A 
HETATM    8  C14 UNL     1      25.722   3.947  49.866  1.00  0.00     0.034 A 
HETATM    9  C15 UNL     1      24.403   4.020  49.404  1.00  0.00     0.002 A 
HETATM   10  C16 UNL     1      23.425   3.136  49.866  1.00  0.00     0.002 A 
HETATM   11  C17 UNL     1      23.818   2.194  50.793  1.00  0.00     0.032 A 
HETATM   12  C18 UNL     1      25.116   2.123  51.246  1.00  0.00     0.070 A 
HETATM   13  N4  UNL     1      25.731   1.315  52.123  1.00  0.00    -0.296 N 
ENDROOT
BRANCH   1  14
HETATM   14  C7  UNL     1      23.907   0.318  53.459  1.00  0.00     0.031 C 
BRANCH  14  15
HETATM   15  C6  UNL     1      23.378  -0.779  54.029  1.00  0.00     0.004 C 
BRANCH  15  16
HETATM   16  C5  UNL     1      21.974  -1.221  53.904  1.00  0.00     0.017 C 
HETATM   17  C4  UNL     1      20.945  -0.472  54.261  1.00  0.00     0.091 C 
BRANCH  17  18
HETATM   18  N1  UNL     1      19.637  -1.008  54.094  1.00  0.00    -0.334 N 
HETATM   19  C3  UNL     1      18.735  -0.746  53.002  1.00  0.00     0.244 C 
HETATM   20  O1  UNL     1      19.186   0.041  52.131  1.00  0.00    -0.268 OA
HETATM   21  H4  UNL     1      19.404  -1.635  54.884  1.00  0.00     0.168 HD
BRANCH  19  22
HETATM   22  C2  UNL     1      17.423  -1.383  52.986  1.00  0.00     0.064 C 
HETATM   23  C1  UNL     1      16.467  -1.074  52.133  1.00  0.00     0.017 C 
ENDBRANCH  19  22
ENDBRANCH  17  18
ENDBRANCH  15  16
ENDBRANCH  14  15
ENDBRANCH   1  14
BRANCH   3  24
HETATM   24  N2  UNL     1      28.157  -1.686  53.316  1.00  0.00    -0.401 N 
HETATM   25  H9  UNL     1      28.685  -2.472  53.750  1.00  0.00     0.156 HD
HETATM   26  H10 UNL     1      28.433  -1.738  52.292  1.00  0.00     0.156 HD
ENDBRANCH   3  24
TORSDOF 6
ENDMDL
MODEL 5
REMARK VINA RESULT:      -7.9      1.567      3.944
REMARK  6 active torsions:
REMARK  status: ('A' for Active; 'I' for Inactive)
REMARK    1  A    between atoms: C2_2  and  C3_3 
REMARK       I    between atoms: C3_3  and  N1_5 
REMARK    2  A    between atoms: N1_5  and  C4_6 
REMARK    3  A    between atoms: C5_7  and  C6_8 
REMARK    4  A    between atoms: C6_8  and  C7_9 
REMARK    5  A    between atoms: C7_9  and  C8_10 
REMARK    6  A    between atoms: C10_12  and  N2_13 
ROOT
HETATM    1  C8  UNL     1      24.144   1.690  53.020  1.00  0.00     0.054 C 
HETATM    2  C9  UNL     1      23.166   1.055  52.433  1.00  0.00     0.028 C 
HETATM    3  C10 UNL     1      22.820  -0.090  52.961  1.00  0.00     0.023 C 
HETATM    4  C11 UNL     1      23.410  -0.589  54.234  1.00  0.00     0.136 C 
HETATM    5  C12 UNL     1      24.867  -0.216  54.284  1.00  0.00     0.117 A 
HETATM    6  N3  UNL     1      26.003  -0.718  54.794  1.00  0.00    -0.232 NA
HETATM    7  C13 UNL     1      26.999   0.129  54.470  1.00  0.00     0.086 A 
HETATM    8  C14 UNL     1      28.370   0.123  54.727  1.00  0.00     0.034 A 
HETATM    9  C15 UNL     1      29.188   1.157  54.258  1.00  0.00     0.002 A 
HETATM   10  C16 UNL     1      28.660   2.221  53.523  1.00  0.00     0.002 A 
HETATM   11  C17 UNL     1      27.302   2.205  53.284  1.00  0.00     0.032 A 
HETATM   12  C18 UNL     1      26.498   1.188  53.746  1.00  0.00     0.070 A 
HETATM   13  N4  UNL     1      25.181   0.950  53.645  1.00  0.00    -0.296 N 
ENDROOT
BRANCH   1  14
HETATM   14  C7  UNL     1      24.184   3.134  53.056  1.00  0.00     0.031 C 
BRANCH  14  15
HETATM   15  C6  UNL     1      23.714   3.819  51.999  1.00  0.00     0.004 C 
BRANCH  15  16
HETATM   16  C5  UNL     1      24.495   4.760  51.168  1.00  0.00     0.017 C 
HETATM   17  C4  UNL     1      24.971   4.448  49.975  1.00  0.00     0.091 C 
BRANCH  17  18
HETATM   18  N1  UNL     1      25.709   5.440  49.270  1.00  0.00    -0.334 N 
HETATM   19  C3  UNL     1      27.045   5.306  48.749  1.00  0.00     0.244 C 
HETATM   20  O1  UNL     1      27.578   4.187  48.961  1.00  0.00    -0.268 OA
HETATM   21  H4  UNL     1      25.146   6.303  49.172  1.00  0.00     0.168 HD
BRANCH  19  22
HETATM   22  C2  UNL     1      27.657   6.429  48.046  1.00  0.00     0.064 C 
HETATM   23  C1  UNL     1      28.926   6.766  48.165  1.00  0.00     0.017 C 
ENDBRANCH  19  22
ENDBRANCH  17  18
ENDBRANCH  15  16
ENDBRANCH  14  15
ENDBRANCH   1  14
BRANCH   3  24
HETATM   24  N2  UNL     1      21.845  -0.869  52.276  1.00  0.00    -0.401 N 
HETATM   25  H9  UNL     1      21.095  -1.116  51.597  1.00  0.00     0.156 HD
HETATM   26  H10 UNL     1      21.993  -1.770  52.819  1.00  0.00     0.156 HD
ENDBRANCH   3  24
TORSDOF 6
ENDMDL
MODEL 6
REMARK VINA RESULT:      -7.6      3.545      6.316
REMARK  6 active torsions:
REMARK  status: ('A' for Active; 'I' for Inactive)
REMARK    1  A    between atoms: C2_2  and  C3_3 
REMARK       I    between atoms: C3_3  and  N1_5 
REMARK    2  A    between atoms: N1_5  and  C4_6 
REMARK    3  A    between atoms: C5_7  and  C6_8 
REMARK    4  A    between atoms: C6_8  and  C7_9 
REMARK    5  A    between atoms: C7_9  and  C8_10 
REMARK    6  A    between atoms: C10_12  and  N2_13 
ROOT
HETATM    1  C8  UNL     1      22.509   1.843  51.054  1.00  0.00     0.054 C 
HETATM    2  C9  UNL     1      22.196   1.966  49.793  1.00  0.00     0.028 C 
HETATM    3  C10 UNL     1      20.927   1.854  49.498  1.00  0.00     0.023 C 
HETATM    4  C11 UNL     1      19.876   1.726  50.544  1.00  0.00     0.136 C 
HETATM    5  C12 UNL     1      20.402   0.879  51.672  1.00  0.00     0.117 A 
HETATM    6  N3  UNL     1      19.913   0.013  52.574  1.00  0.00    -0.232 NA
HETATM    7  C13 UNL     1      20.946  -0.414  53.324  1.00  0.00     0.086 A 
HETATM    8  C14 UNL     1      21.038  -1.305  54.394  1.00  0.00     0.034 A 
HETATM    9  C15 UNL     1      22.272  -1.569  54.998  1.00  0.00     0.002 A 
HETATM   10  C16 UNL     1      23.443  -0.953  54.552  1.00  0.00     0.002 A 
HETATM   11  C17 UNL     1      23.327  -0.076  53.494  1.00  0.00     0.032 A 
HETATM   12  C18 UNL     1      22.112   0.184  52.900  1.00  0.00     0.070 A 
HETATM   13  N4  UNL     1      21.748   0.976  51.880  1.00  0.00    -0.296 N 
ENDROOT
BRANCH   1  14
HETATM   14  C7  UNL     1      23.609   2.583  51.628  1.00  0.00     0.031 C 
BRANCH  14  15
HETATM   15  C6  UNL     1      24.772   2.635  50.956  1.00  0.00     0.004 C 
BRANCH  15  16
HETATM   16  C5  UNL     1      26.071   2.128  51.446  1.00  0.00     0.017 C 
HETATM   17  C4  UNL     1      26.195   1.019  52.154  1.00  0.00     0.091 C 
BRANCH  17  18
HETATM   18  N1  UNL     1      27.501   0.633  52.570  1.00  0.00    -0.334 N 
HETATM   19  C3  UNL     1      27.961   0.490  53.928  1.00  0.00     0.244 C 
HETATM   20  O1  UNL     1      27.092   0.742  54.801  1.00  0.00    -0.268 OA
HETATM   21  H4  UNL     1      28.102   0.460  51.746  1.00  0.00     0.168 HD
BRANCH  19  22
HETATM   22  C2  UNL     1      29.339   0.084  54.178  1.00  0.00     0.064 C 
HETATM   23  C1  UNL     1      29.890  -0.998  53.665  1.00  0.00     0.017 C 
ENDBRANCH  19  22
ENDBRANCH  17  18
ENDBRANCH  15  16
ENDBRANCH  14  15
ENDBRANCH   1  14
BRANCH   3  24
HETATM   24  N2  UNL     1      20.562   1.856  48.121  1.00  0.00    -0.401 N 
HETATM   25  H9  UNL     1      20.073   2.126  47.242  1.00  0.00     0.156 HD
HETATM   26  H10 UNL     1      21.224   1.087  47.810  1.00  0.00     0.156 HD
ENDBRANCH   3  24
TORSDOF 6
ENDMDL
MODEL 7
REMARK VINA RESULT:      -7.6      3.525      6.386
REMARK  6 active torsions:
REMARK  status: ('A' for Active; 'I' for Inactive)
REMARK    1  A    between atoms: C2_2  and  C3_3 
REMARK       I    between atoms: C3_3  and  N1_5 
REMARK    2  A    between atoms: N1_5  and  C4_6 
REMARK    3  A    between atoms: C5_7  and  C6_8 
REMARK    4  A    between atoms: C6_8  and  C7_9 
REMARK    5  A    between atoms: C7_9  and  C8_10 
REMARK    6  A    between atoms: C10_12  and  N2_13 
ROOT
HETATM    1  C8  UNL     1      23.058   3.253  51.230  1.00  0.00     0.054 C 
HETATM    2  C9  UNL     1      22.730   3.863  50.124  1.00  0.00     0.028 C 
HETATM    3  C10 UNL     1      21.545   4.414  50.096  1.00  0.00     0.023 C 
HETATM    4  C11 UNL     1      20.664   4.465  51.295  1.00  0.00     0.136 C 
HETATM    5  C12 UNL     1      20.815   3.186  52.074  1.00  0.00     0.117 A 
HETATM    6  N3  UNL     1      20.053   2.405  52.856  1.00  0.00    -0.232 NA
HETATM    7  C13 UNL     1      20.814   1.368  53.254  1.00  0.00     0.086 A 
HETATM    8  C14 UNL     1      20.560   0.261  54.063  1.00  0.00     0.034 A 
HETATM    9  C15 UNL     1      21.561  -0.685  54.313  1.00  0.00     0.002 A 
HETATM   10  C16 UNL     1      22.838  -0.550  53.763  1.00  0.00     0.002 A 
HETATM   11  C17 UNL     1      23.064   0.554  52.967  1.00  0.00     0.032 A 
HETATM   12  C18 UNL     1      22.079   1.483  52.722  1.00  0.00     0.070 A 
HETATM   13  N4  UNL     1      22.053   2.613  51.999  1.00  0.00    -0.296 N 
ENDROOT
BRANCH   1  14
HETATM   14  C7  UNL     1      24.427   3.229  51.693  1.00  0.00     0.031 C 
BRANCH  14  15
HETATM   15  C6  UNL     1      25.378   2.756  50.870  1.00  0.00     0.004 C 
BRANCH  15  16
HETATM   16  C5  UNL     1      26.533   1.928  51.276  1.00  0.00     0.017 C 
HETATM   17  C4  UNL     1      26.572   1.246  52.408  1.00  0.00     0.091 C 
BRANCH  17  18
HETATM   18  N1  UNL     1      27.741   0.484  52.690  1.00  0.00    -0.334 N 
HETATM   19  C3  UNL     1      27.786  -0.887  53.129  1.00  0.00     0.244 C 
HETATM   20  O1  UNL     1      26.659  -1.428  53.266  1.00  0.00    -0.268 OA
HETATM   21  H4  UNL     1      28.588   1.058  52.534  1.00  0.00     0.168 HD
BRANCH  19  22
HETATM   22  C2  UNL     1      29.078  -1.519  53.374  1.00  0.00     0.064 C 
HETATM   23  C1  UNL     1      30.148  -0.868  53.785  1.00  0.00     0.017 C 
ENDBRANCH  19  22
ENDBRANCH  17  18
ENDBRANCH  15  16
ENDBRANCH  14  15
ENDBRANCH   1  14
BRANCH   3  24
HETATM   24  N2  UNL     1      21.103   4.978  48.865  1.00  0.00    -0.401 N 
HETATM   25  H9  UNL     1      21.084   5.211  47.850  1.00  0.00     0.156 HD
HETATM   26  H10 UNL     1      20.243   5.468  49.248  1.00  0.00     0.156 HD
ENDBRANCH   3  24
TORSDOF 6
ENDMDL
MODEL 8
REMARK VINA RESULT:      -7.5      2.267      4.391
REMARK  6 active torsions:
REMARK  status: ('A' for Active; 'I' for Inactive)
REMARK    1  A    between atoms: C2_2  and  C3_3 
REMARK       I    between atoms: C3_3  and  N1_5 
REMARK    2  A    between atoms: N1_5  and  C4_6 
REMARK    3  A    between atoms: C5_7  and  C6_8 
REMARK    4  A    between atoms: C6_8  and  C7_9 
REMARK    5  A    between atoms: C7_9  and  C8_10 
REMARK    6  A    between atoms: C10_12  and  N2_13 
ROOT
HETATM    1  C8  UNL     1      22.595   1.640  51.518  1.00  0.00     0.054 C 
HETATM    2  C9  UNL     1      21.429   1.290  51.048  1.00  0.00     0.028 C 
HETATM    3  C10 UNL     1      20.658   0.612  51.858  1.00  0.00     0.023 C 
HETATM    4  C11 UNL     1      21.023   0.362  53.279  1.00  0.00     0.136 C 
HETATM    5  C12 UNL     1      22.507   0.124  53.374  1.00  0.00     0.117 A 
HETATM    6  N3  UNL     1      23.351  -0.591  54.135  1.00  0.00    -0.232 NA
HETATM    7  C13 UNL     1      24.597  -0.360  53.682  1.00  0.00     0.086 A 
HETATM    8  C14 UNL     1      25.851  -0.823  54.078  1.00  0.00     0.034 A 
HETATM    9  C15 UNL     1      27.009  -0.407  53.411  1.00  0.00     0.002 A 
HETATM   10  C16 UNL     1      26.944   0.480  52.333  1.00  0.00     0.002 A 
HETATM   11  C17 UNL     1      25.693   0.923  51.961  1.00  0.00     0.032 A 
HETATM   12  C18 UNL     1      24.554   0.515  52.619  1.00  0.00     0.070 A 
HETATM   13  N4  UNL     1      23.254   0.797  52.450  1.00  0.00    -0.296 N 
ENDROOT
BRANCH   1  14
HETATM   14  C7  UNL     1      23.222   2.878  51.118  1.00  0.00     0.031 C 
BRANCH  14  15
HETATM   15  C6  UNL     1      23.626   3.014  49.842  1.00  0.00     0.004 C 
BRANCH  15  16
HETATM   16  C5  UNL     1      24.934   3.547  49.406  1.00  0.00     0.017 C 
HETATM   17  C4  UNL     1      25.529   4.572  49.993  1.00  0.00     0.091 C 
BRANCH  17  18
HETATM   18  N1  UNL     1      26.788   4.996  49.481  1.00  0.00    -0.334 N 
HETATM   19  C3  UNL     1      27.022   6.092  48.577  1.00  0.00     0.244 C 
HETATM   20  O1  UNL     1      25.984   6.710  48.227  1.00  0.00    -0.268 OA
HETATM   21  H4  UNL     1      27.545   4.397  49.854  1.00  0.00     0.168 HD
BRANCH  19  22
HETATM   22  C2  UNL     1      28.384   6.392  48.150  1.00  0.00     0.064 C 
HETATM   23  C1  UNL     1      29.352   5.498  48.102  1.00  0.00     0.017 C 
ENDBRANCH  19  22
ENDBRANCH  17  18
ENDBRANCH  15  16
ENDBRANCH  14  15
ENDBRANCH   1  14
BRANCH   3  24
HETATM   24  N2  UNL     1      19.433   0.105  51.339  1.00  0.00    -0.401 N 
HETATM   25  H9  UNL     1      18.707  -0.169  50.644  1.00  0.00     0.156 HD
HETATM   26  H10 UNL     1      18.994  -0.154  52.271  1.00  0.00     0.156 HD
ENDBRANCH   3  24
TORSDOF 6
ENDMDL
MODEL 9
REMARK VINA RESULT:      -7.4      1.637      2.199
REMARK  6 active torsions:
REMARK  status: ('A' for Active; 'I' for Inactive)
REMARK    1  A    between atoms: C2_2  and  C3_3 
REMARK       I    between atoms: C3_3  and  N1_5 
REMARK    2  A    between atoms: N1_5  and  C4_6 
REMARK    3  A    between atoms: C5_7  and  C6_8 
REMARK    4  A    between atoms: C6_8  and  C7_9 
REMARK    5  A    between atoms: C7_9  and  C8_10 
REMARK    6  A    between atoms: C10_12  and  N2_13 
ROOT
HETATM    1  C8  UNL     1      24.304   1.837  52.159  1.00  0.00     0.054 C 
HETATM    2  C9  UNL     1      25.329   2.453  52.679  1.00  0.00     0.028 C 
HETATM    3  C10 UNL     1      26.092   1.743  53.469  1.00  0.00     0.023 C 
HETATM    4  C11 UNL     1      25.890   0.281  53.666  1.00  0.00     0.136 C 
HETATM    5  C12 UNL     1      24.415  -0.017  53.677  1.00  0.00     0.117 A 
HETATM    6  N3  UNL     1      23.584  -0.897  54.259  1.00  0.00    -0.232 NA
HETATM    7  C13 UNL     1      22.337  -0.612  53.840  1.00  0.00     0.086 A 
HETATM    8  C14 UNL     1      21.093  -1.182  54.109  1.00  0.00     0.034 A 
HETATM    9  C15 UNL     1      19.931  -0.669  53.521  1.00  0.00     0.002 A 
HETATM   10  C16 UNL     1      19.981   0.423  52.651  1.00  0.00     0.002 A 
HETATM   11  C17 UNL     1      21.223   0.968  52.400  1.00  0.00     0.032 A 
HETATM   12  C18 UNL     1      22.365   0.463  52.979  1.00  0.00     0.070 A 
HETATM   13  N4  UNL     1      23.658   0.810  52.896  1.00  0.00    -0.296 N 
ENDROOT
BRANCH   1  14
HETATM   14  C7  UNL     1      23.821   2.170  50.839  1.00  0.00     0.031 C 
BRANCH  14  15
HETATM   15  C6  UNL     1      23.471   3.443  50.582  1.00  0.00     0.004 C 
BRANCH  15  16
HETATM   16  C5  UNL     1      24.289   4.428  49.844  1.00  0.00     0.017 C 
HETATM   17  C4  UNL     1      25.516   4.765  50.205  1.00  0.00     0.091 C 
BRANCH  17  18
HETATM   18  N1  UNL     1      26.205   5.727  49.414  1.00  0.00    -0.334 N 
HETATM   19  C3  UNL     1      27.403   5.506  48.645  1.00  0.00     0.244 C 
HETATM   20  O1  UNL     1      27.854   4.334  48.708  1.00  0.00    -0.268 OA
HETATM   21  H4  UNL     1      25.721   6.640  49.459  1.00  0.00     0.168 HD
BRANCH  19  22
HETATM   22  C2  UNL     1      27.982   6.609  47.886  1.00  0.00     0.064 C 
HETATM   23  C1  UNL     1      28.115   7.834  48.356  1.00  0.00     0.017 C 
ENDBRANCH  19  22
ENDBRANCH  17  18
ENDBRANCH  15  16
ENDBRANCH  14  15
ENDBRANCH   1  14
BRANCH   3  24
HETATM   24  N2  UNL     1      27.146   2.413  54.154  1.00  0.00    -0.401 N 
HETATM   25  H9  UNL     1      28.113   2.691  54.422  1.00  0.00     0.156 HD
HETATM   26  H10 UNL     1      26.533   3.000  54.792  1.00  0.00     0.156 HD
ENDBRANCH   3  24
TORSDOF 6
ENDMDL
