MODEL 1
REMARK VINA RESULT:      -7.3      0.000      0.000
REMARK  6 active torsions:
REMARK  status: ('A' for Active; 'I' for Inactive)
REMARK    1  A    between atoms: C1_2  and  C2_3 
REMARK       I    between atoms: C1_2  and  N1_11 
REMARK    2  A    between atoms: C2_3  and  C3_4 
REMARK    3  A    between atoms: C3_4  and  C7_9 
REMARK    4  A    between atoms: C5_6  and  P1_7 
REMARK    5  A    between atoms: N1_11  and  S1_12 
REMARK    6  A    between atoms: S1_12  and  C8_15 
ROOT
HETATM    1  O1  UNL     1      24.318   2.914  53.093  1.00  0.00    -0.273 OA
HETATM    2  C1  UNL     1      24.411   1.691  52.823  1.00  0.00     0.232 C 
HETATM    3  N1  UNL     1      23.931   1.362  51.536  1.00  0.00    -0.250 N 
HETATM    4  H6  UNL     1      23.930   0.403  51.141  1.00  0.00     0.181 HD
ENDROOT
BRANCH   3   5
HETATM    5  S1  UNL     1      23.285   2.601  50.492  1.00  0.00     0.265 S 
HETATM    6  O2  UNL     1      22.527   1.920  49.389  1.00  0.00    -0.200 OA
HETATM    7  O3  UNL     1      22.301   3.364  51.364  1.00  0.00    -0.200 OA
BRANCH   5   8
HETATM    8  C8  UNL     1      24.511   3.644  49.866  1.00  0.00     0.080 A 
HETATM    9  C9  UNL     1      24.333   4.933  49.394  1.00  0.00     0.027 A 
HETATM   10  C10 UNL     1      25.399   5.679  48.913  1.00  0.00     0.025 A 
HETATM   11  C11 UNL     1      26.674   5.148  48.894  1.00  0.00     0.034 A 
HETATM   12 CL2  UNL     1      28.020   6.116  48.277  1.00  0.00    -0.084 Cl
HETATM   13  C12 UNL     1      26.897   3.865  49.356  1.00  0.00     0.025 A 
HETATM   14  C13 UNL     1      25.813   3.158  49.825  1.00  0.00     0.027 A 
ENDBRANCH   5   8
ENDBRANCH   3   5
BRANCH   2  15
HETATM   15  C2  UNL     1      24.905   0.430  53.497  1.00  0.00     0.121 C 
BRANCH  15  16
HETATM   16  C3  UNL     1      26.356   0.560  53.791  1.00  0.00     0.025 A 
HETATM   17  C4  UNL     1      26.356  -0.061  55.043  1.00  0.00     0.040 A 
HETATM   18  C5  UNL     1      27.420   0.393  54.534  1.00  0.00    -0.069 A 
BRANCH  18  19
HETATM   19  P1  UNL     1      28.572   0.900  53.953  1.00  0.00    -0.119 P 
HETATM   20  C6  UNL     1      29.084   1.111  53.694  1.00  0.00     0.108 A 
HETATM   21  C7  UNL     1      28.711  -0.570  53.669  1.00  0.00     0.070 A 
HETATM   22 CL1  UNL     1      29.075  -2.482  53.199  1.00  0.00    -0.113 Cl
HETATM   23  H4  UNL     1      30.575   1.843  52.954  1.00  0.00     0.050 HD
ENDBRANCH  18  19
ENDBRANCH  15  16
ENDBRANCH   2  15
TORSDOF 6
ENDMDL
MODEL 2
REMARK VINA RESULT:      -7.2      4.325      5.644
REMARK  6 active torsions:
REMARK  status: ('A' for Active; 'I' for Inactive)
REMARK    1  A    between atoms: C1_2  and  C2_3 
REMARK       I    between atoms: C1_2  and  N1_11 
REMARK    2  A    between atoms: C2_3  and  C3_4 
REMARK    3  A    between atoms: C3_4  and  C7_9 
REMARK    4  A    between atoms: C5_6  and  P1_7 
REMARK    5  A    between atoms: N1_11  and  S1_12 
REMARK    6  A    between atoms: S1_12  and  C8_15 
ROOT
HETATM    1  O1  UNL     1      25.681  -0.939  55.870  1.00  0.00    -0.273 OA
HETATM    2  C1  UNL     1      24.578  -0.939  55.267  1.00  0.00     0.232 C 
HETATM    3  N1  UNL     1      24.605  -0.224  54.049  1.00  0.00    -0.250 N 
HETATM    4  H6  UNL     1      23.790  -0.118  53.417  1.00  0.00     0.181 HD
ENDROOT
BRANCH   3   5
HETATM    5  S1  UNL     1      26.072   0.556  53.516  1.00  0.00     0.265 S 
HETATM    6  O2  UNL     1      26.692   1.226  54.707  1.00  0.00    -0.200 OA
HETATM    7  O3  UNL     1      26.973  -0.584  53.070  1.00  0.00    -0.200 OA
BRANCH   5   8
HETATM    8  C8  UNL     1      25.795   1.678  52.232  1.00  0.00     0.080 A 
HETATM    9  C9  UNL     1      26.720   2.099  51.293  1.00  0.00     0.027 A 
HETATM   10  C10 UNL     1      26.380   3.009  50.303  1.00  0.00     0.025 A 
HETATM   11  C11 UNL     1      25.099   3.519  50.230  1.00  0.00     0.034 A 
HETATM   12 CL2  UNL     1      24.685   4.678  48.958  1.00  0.00    -0.084 Cl
HETATM   13  C12 UNL     1      24.143   3.126  51.147  1.00  0.00     0.025 A 
HETATM   14  C13 UNL     1      24.520   2.221  52.114  1.00  0.00     0.027 A 
ENDBRANCH   5   8
ENDBRANCH   3   5
BRANCH   2  15
HETATM   15  C2  UNL     1      23.189  -1.503  55.473  1.00  0.00     0.121 C 
BRANCH  15  16
HETATM   16  C3  UNL     1      22.222  -0.763  54.622  1.00  0.00     0.025 A 
HETATM   17  C4  UNL     1      21.322  -1.809  54.400  1.00  0.00     0.040 A 
HETATM   18  C5  UNL     1      21.133  -0.661  53.905  1.00  0.00    -0.069 A 
BRANCH  18  19
HETATM   19  P1  UNL     1      20.949   0.606  53.374  1.00  0.00    -0.119 P 
HETATM   20  C6  UNL     1      20.857   1.161  53.134  1.00  0.00     0.108 A 
HETATM   21  C7  UNL     1      19.675  -0.080  52.965  1.00  0.00     0.070 A 
HETATM   22 CL1  UNL     1      17.926  -0.817  52.331  1.00  0.00    -0.113 Cl
HETATM   23  H4  UNL     1      20.682   2.843  52.464  1.00  0.00     0.050 HD
ENDBRANCH  18  19
ENDBRANCH  15  16
ENDBRANCH   2  15
TORSDOF 6
ENDMDL
MODEL 3
REMARK VINA RESULT:      -7.1      2.906      6.646
REMARK  6 active torsions:
REMARK  status: ('A' for Active; 'I' for Inactive)
REMARK    1  A    between atoms: C1_2  and  C2_3 
REMARK       I    between atoms: C1_2  and  N1_11 
REMARK    2  A    between atoms: C2_3  and  C3_4 
REMARK    3  A    between atoms: C3_4  and  C7_9 
REMARK    4  A    between atoms: C5_6  and  P1_7 
REMARK    5  A    between atoms: N1_11  and  S1_12 
REMARK    6  A    between atoms: S1_12  and  C8_15 
ROOT
HETATM    1  O1  UNL     1      26.625   2.834  49.548  1.00  0.00    -0.273 OA
HETATM    2  C1  UNL     1      26.203   4.004  49.725  1.00  0.00     0.232 C 
HETATM    3  N1  UNL     1      25.341   4.127  50.836  1.00  0.00    -0.250 N 
HETATM    4  H6  UNL     1      24.899   5.016  51.136  1.00  0.00     0.181 HD
ENDROOT
BRANCH   3   5
HETATM    5  S1  UNL     1      24.953   2.734  51.812  1.00  0.00     0.265 S 
HETATM    6  O2  UNL     1      24.117   3.203  52.967  1.00  0.00    -0.200 OA
HETATM    7  O3  UNL     1      24.097   1.860  50.910  1.00  0.00    -0.200 OA
BRANCH   5   8
HETATM    8  C8  UNL     1      26.361   1.892  52.352  1.00  0.00     0.080 A 
HETATM    9  C9  UNL     1      27.495   2.457  52.908  1.00  0.00     0.027 A 
HETATM   10  C10 UNL     1      28.570   1.675  53.307  1.00  0.00     0.025 A 
HETATM   11  C11 UNL     1      28.532   0.303  53.156  1.00  0.00     0.034 A 
HETATM   12 CL2  UNL     1      29.913  -0.676  53.671  1.00  0.00    -0.084 Cl
HETATM   13  C12 UNL     1      27.420  -0.303  52.605  1.00  0.00     0.025 A 
HETATM   14  C13 UNL     1      26.375   0.507  52.222  1.00  0.00     0.027 A 
ENDBRANCH   5   8
ENDBRANCH   3   5
BRANCH   2  15
HETATM   15  C2  UNL     1      26.357   5.360  49.071  1.00  0.00     0.121 C 
BRANCH  15  16
HETATM   16  C3  UNL     1      27.760   5.536  48.616  1.00  0.00     0.025 A 
HETATM   17  C4  UNL     1      27.670   6.875  48.226  1.00  0.00     0.040 A 
HETATM   18  C5  UNL     1      28.751   6.229  48.119  1.00  0.00    -0.069 A 
BRANCH  18  19
HETATM   19  P1  UNL     1      29.924   5.498  48.011  1.00  0.00    -0.119 P 
HETATM   20  C6  UNL     1      30.449   5.187  47.968  1.00  0.00     0.108 A 
HETATM   21  C7  UNL     1      30.421   6.781  48.620  1.00  0.00     0.070 A 
HETATM   22 CL1  UNL     1      31.271   8.405  49.424  1.00  0.00    -0.113 Cl
HETATM   23  H4  UNL     1      31.949   4.173  47.798  1.00  0.00     0.050 HD
ENDBRANCH  18  19
ENDBRANCH  15  16
ENDBRANCH   2  15
TORSDOF 6
ENDMDL
MODEL 4
REMARK VINA RESULT:      -7.1      3.893      6.930
REMARK  6 active torsions:
REMARK  status: ('A' for Active; 'I' for Inactive)
REMARK    1  A    between atoms: C1_2  and  C2_3 
REMARK       I    between atoms: C1_2  and  N1_11 
REMARK    2  A    between atoms: C2_3  and  C3_4 
REMARK    3  A    between atoms: C3_4  and  C7_9 
REMARK    4  A    between atoms: C5_6  and  P1_7 
REMARK    5  A    between atoms: N1_11  and  S1_12 
REMARK    6  A    between atoms: S1_12  and  C8_15 
ROOT
HETATM    1  O1  UNL     1      25.581   2.448  53.303  1.00  0.00    -0.273 OA
HETATM    2  C1  UNL     1      26.120   1.951  52.282  1.00  0.00     0.232 C 
HETATM    3  N1  UNL     1      26.246   0.546  52.342  1.00  0.00    -0.250 N 
HETATM    4  H6  UNL     1      26.664  -0.035  51.592  1.00  0.00     0.181 HD
ENDROOT
BRANCH   3   5
HETATM    5  S1  UNL     1      25.684  -0.332  53.741  1.00  0.00     0.265 S 
HETATM    6  O2  UNL     1      26.366  -1.669  53.745  1.00  0.00    -0.200 OA
HETATM    7  O3  UNL     1      26.184   0.476  54.928  1.00  0.00    -0.200 OA
BRANCH   5   8
HETATM    8  C8  UNL     1      23.965  -0.497  53.772  1.00  0.00     0.080 A 
HETATM    9  C9  UNL     1      23.208  -1.036  54.797  1.00  0.00     0.027 A 
HETATM   10  C10 UNL     1      21.826  -1.117  54.708  1.00  0.00     0.025 A 
HETATM   11  C11 UNL     1      21.168  -0.657  53.584  1.00  0.00     0.034 A 
HETATM   12 CL2  UNL     1      19.405  -0.769  53.491  1.00  0.00    -0.084 Cl
HETATM   13  C12 UNL     1      21.885  -0.112  52.536  1.00  0.00     0.025 A 
HETATM   14  C13 UNL     1      23.254  -0.049  52.664  1.00  0.00     0.027 A 
ENDBRANCH   5   8
ENDBRANCH   3   5
BRANCH   2  15
HETATM   15  C2  UNL     1      26.687   2.438  50.966  1.00  0.00     0.121 C 
BRANCH  15  16
HETATM   16  C3  UNL     1      25.908   3.611  50.493  1.00  0.00     0.025 A 
HETATM   17  C4  UNL     1      26.692   3.927  49.381  1.00  0.00     0.040 A 
HETATM   18  C5  UNL     1      25.666   4.604  49.677  1.00  0.00    -0.069 A 
BRANCH  18  19
HETATM   19  P1  UNL     1      24.538   5.329  50.024  1.00  0.00    -0.119 P 
HETATM   20  C6  UNL     1      24.032   5.641  50.170  1.00  0.00     0.108 A 
HETATM   21  C7  UNL     1      23.932   4.144  49.324  1.00  0.00     0.070 A 
HETATM   22 CL1  UNL     1      22.942   2.651  48.430  1.00  0.00    -0.113 Cl
HETATM   23  H4  UNL     1      22.595   6.644  50.656  1.00  0.00     0.050 HD
ENDBRANCH  18  19
ENDBRANCH  15  16
ENDBRANCH   2  15
TORSDOF 6
ENDMDL
MODEL 5
REMARK VINA RESULT:      -7.0      1.928      2.480
REMARK  6 active torsions:
REMARK  status: ('A' for Active; 'I' for Inactive)
REMARK    1  A    between atoms: C1_2  and  C2_3 
REMARK       I    between atoms: C1_2  and  N1_11 
REMARK    2  A    between atoms: C2_3  and  C3_4 
REMARK    3  A    between atoms: C3_4  and  C7_9 
REMARK    4  A    between atoms: C5_6  and  P1_7 
REMARK    5  A    between atoms: N1_11  and  S1_12 
REMARK    6  A    between atoms: S1_12  and  C8_15 
ROOT
HETATM    1  O1  UNL     1      24.287   2.695  50.280  1.00  0.00    -0.273 OA
HETATM    2  C1  UNL     1      24.438   2.950  51.501  1.00  0.00     0.232 C 
HETATM    3  N1  UNL     1      24.503   4.333  51.781  1.00  0.00    -0.250 N 
HETATM    4  H6  UNL     1      24.623   4.730  52.731  1.00  0.00     0.181 HD
ENDROOT
BRANCH   3   5
HETATM    5  S1  UNL     1      24.380   5.501  50.491  1.00  0.00     0.265 S 
HETATM    6  O2  UNL     1      23.279   5.054  49.574  1.00  0.00    -0.200 OA
HETATM    7  O3  UNL     1      23.952   6.788  51.179  1.00  0.00    -0.200 OA
BRANCH   5   8
HETATM    8  C8  UNL     1      25.868   5.707  49.640  1.00  0.00     0.080 A 
HETATM    9  C9  UNL     1      26.704   4.701  49.188  1.00  0.00     0.027 A 
HETATM   10  C10 UNL     1      27.880   4.989  48.512  1.00  0.00     0.025 A 
HETATM   11  C11 UNL     1      28.248   6.299  48.273  1.00  0.00     0.034 A 
HETATM   12 CL2  UNL     1      29.753   6.645  47.409  1.00  0.00    -0.084 Cl
HETATM   13  C12 UNL     1      27.444   7.335  48.707  1.00  0.00     0.025 A 
HETATM   14  C13 UNL     1      26.285   7.007  49.374  1.00  0.00     0.027 A 
ENDBRANCH   5   8
ENDBRANCH   3   5
BRANCH   2  15
HETATM   15  C2  UNL     1      24.573   2.181  52.797  1.00  0.00     0.121 C 
BRANCH  15  16
HETATM   16  C3  UNL     1      26.011   2.043  53.145  1.00  0.00     0.025 A 
HETATM   17  C4  UNL     1      25.967   0.735  53.633  1.00  0.00     0.040 A 
HETATM   18  C5  UNL     1      27.047   1.391  53.606  1.00  0.00    -0.069 A 
BRANCH  18  19
HETATM   19  P1  UNL     1      28.218   2.132  53.564  1.00  0.00    -0.119 P 
HETATM   20  C6  UNL     1      28.741   2.448  53.548  1.00  0.00     0.108 A 
HETATM   21  C7  UNL     1      28.751   0.728  53.634  1.00  0.00     0.070 A 
HETATM   22 CL1  UNL     1      29.650  -1.058  53.725  1.00  0.00    -0.113 Cl
HETATM   23  H4  UNL     1      30.236   3.482  53.491  1.00  0.00     0.050 HD
ENDBRANCH  18  19
ENDBRANCH  15  16
ENDBRANCH   2  15
TORSDOF 6
ENDMDL
MODEL 6
REMARK VINA RESULT:      -7.0      1.721      2.157
REMARK  6 active torsions:
REMARK  status: ('A' for Active; 'I' for Inactive)
REMARK    1  A    between atoms: C1_2  and  C2_3 
REMARK       I    between atoms: C1_2  and  N1_11 
REMARK    2  A    between atoms: C2_3  and  C3_4 
REMARK    3  A    between atoms: C3_4  and  C7_9 
REMARK    4  A    between atoms: C5_6  and  P1_7 
REMARK    5  A    between atoms: N1_11  and  S1_12 
REMARK    6  A    between atoms: S1_12  and  C8_15 
ROOT
HETATM    1  O1  UNL     1      24.223   3.131  53.097  1.00  0.00    -0.273 OA
HETATM    2  C1  UNL     1      23.624   2.103  52.695  1.00  0.00     0.232 C 
HETATM    3  N1  UNL     1      22.959   2.286  51.463  1.00  0.00    -0.250 N 
HETATM    4  H6  UNL     1      22.415   1.549  50.977  1.00  0.00     0.181 HD
ENDROOT
BRANCH   3   5
HETATM    5  S1  UNL     1      23.015   3.830  50.651  1.00  0.00     0.265 S 
HETATM    6  O2  UNL     1      21.963   3.821  49.580  1.00  0.00    -0.200 OA
HETATM    7  O3  UNL     1      22.620   4.839  51.717  1.00  0.00    -0.200 OA
BRANCH   5   8
HETATM    8  C8  UNL     1      24.576   4.179  50.001  1.00  0.00     0.080 A 
HETATM    9  C9  UNL     1      25.657   3.316  49.946  1.00  0.00     0.027 A 
HETATM   10  C10 UNL     1      26.868   3.710  49.397  1.00  0.00     0.025 A 
HETATM   11  C11 UNL     1      27.025   4.985  48.888  1.00  0.00     0.034 A 
HETATM   12 CL2  UNL     1      28.578   5.468  48.192  1.00  0.00    -0.084 Cl
HETATM   13  C12 UNL     1      25.972   5.879  48.922  1.00  0.00     0.025 A 
HETATM   14  C13 UNL     1      24.787   5.449  49.474  1.00  0.00     0.027 A 
ENDBRANCH   5   8
ENDBRANCH   3   5
BRANCH   2  15
HETATM   15  C2  UNL     1      23.405   0.680  53.162  1.00  0.00     0.121 C 
BRANCH  15  16
HETATM   16  C3  UNL     1      24.694  -0.058  53.129  1.00  0.00     0.025 A 
HETATM   17  C4  UNL     1      24.666  -0.552  54.436  1.00  0.00     0.040 A 
HETATM   18  C5  UNL     1      25.627  -0.807  53.655  1.00  0.00    -0.069 A 
BRANCH  18  19
HETATM   19  P1  UNL     1      26.668  -1.073  52.780  1.00  0.00    -0.119 P 
HETATM   20  C6  UNL     1      27.132  -1.177  52.395  1.00  0.00     0.108 A 
HETATM   21  C7  UNL     1      26.962   0.348  53.176  1.00  0.00     0.070 A 
HETATM   22 CL1  UNL     1      27.515   2.229  53.578  1.00  0.00    -0.113 Cl
HETATM   23  H4  UNL     1      28.470  -1.594  51.236  1.00  0.00     0.050 HD
ENDBRANCH  18  19
ENDBRANCH  15  16
ENDBRANCH   2  15
TORSDOF 6
ENDMDL
MODEL 7
REMARK VINA RESULT:      -6.9      2.886      6.946
REMARK  6 active torsions:
REMARK  status: ('A' for Active; 'I' for Inactive)
REMARK    1  A    between atoms: C1_2  and  C2_3 
REMARK       I    between atoms: C1_2  and  N1_11 
REMARK    2  A    between atoms: C2_3  and  C3_4 
REMARK    3  A    between atoms: C3_4  and  C7_9 
REMARK    4  A    between atoms: C5_6  and  P1_7 
REMARK    5  A    between atoms: N1_11  and  S1_12 
REMARK    6  A    between atoms: S1_12  and  C8_15 
ROOT
HETATM    1  O1  UNL     1      26.643   2.465  49.567  1.00  0.00    -0.273 OA
HETATM    2  C1  UNL     1      26.411   3.688  49.740  1.00  0.00     0.232 C 
HETATM    3  N1  UNL     1      25.661   3.958  50.905  1.00  0.00    -0.250 N 
HETATM    4  H6  UNL     1      25.378   4.908  51.209  1.00  0.00     0.181 HD
ENDROOT
BRANCH   3   5
HETATM    5  S1  UNL     1      25.145   2.655  51.944  1.00  0.00     0.265 S 
HETATM    6  O2  UNL     1      24.409   3.260  53.104  1.00  0.00    -0.200 OA
HETATM    7  O3  UNL     1      24.162   1.858  51.102  1.00  0.00    -0.200 OA
BRANCH   5   8
HETATM    8  C8  UNL     1      26.462   1.672  52.475  1.00  0.00     0.080 A 
HETATM    9  C9  UNL     1      27.655   2.116  53.018  1.00  0.00     0.027 A 
HETATM   10  C10 UNL     1      28.645   1.227  53.410  1.00  0.00     0.025 A 
HETATM   11  C11 UNL     1      28.461  -0.135  53.267  1.00  0.00     0.034 A 
HETATM   12 CL2  UNL     1      29.735  -1.252  53.774  1.00  0.00    -0.084 Cl
HETATM   13  C12 UNL     1      27.285  -0.622  52.730  1.00  0.00     0.025 A 
HETATM   14  C13 UNL     1      26.327   0.293  52.353  1.00  0.00     0.027 A 
ENDBRANCH   5   8
ENDBRANCH   3   5
BRANCH   2  15
HETATM   15  C2  UNL     1      26.714   4.994  49.039  1.00  0.00     0.121 C 
BRANCH  15  16
HETATM   16  C3  UNL     1      25.819   6.058  49.562  1.00  0.00     0.025 A 
HETATM   17  C4  UNL     1      26.473   7.156  48.997  1.00  0.00     0.040 A 
HETATM   18  C5  UNL     1      25.437   7.301  49.708  1.00  0.00    -0.069 A 
BRANCH  18  19
HETATM   19  P1  UNL     1      24.301   7.432  50.490  1.00  0.00    -0.119 P 
HETATM   20  C6  UNL     1      23.792   7.486  50.825  1.00  0.00     0.108 A 
HETATM   21  C7  UNL     1      23.720   6.935  49.195  1.00  0.00     0.070 A 
HETATM   22 CL1  UNL     1      22.763   6.285  47.561  1.00  0.00    -0.113 Cl
HETATM   23  H4  UNL     1      22.344   7.682  51.907  1.00  0.00     0.050 HD
ENDBRANCH  18  19
ENDBRANCH  15  16
ENDBRANCH   2  15
TORSDOF 6
ENDMDL
MODEL 8
REMARK VINA RESULT:      -6.7      4.228      6.128
REMARK  6 active torsions:
REMARK  status: ('A' for Active; 'I' for Inactive)
REMARK    1  A    between atoms: C1_2  and  C2_3 
REMARK       I    between atoms: C1_2  and  N1_11 
REMARK    2  A    between atoms: C2_3  and  C3_4 
REMARK    3  A    between atoms: C3_4  and  C7_9 
REMARK    4  A    between atoms: C5_6  and  P1_7 
REMARK    5  A    between atoms: N1_11  and  S1_12 
REMARK    6  A    between atoms: S1_12  and  C8_15 
ROOT
HETATM    1  O1  UNL     1      22.940   0.990  51.176  1.00  0.00    -0.273 OA
HETATM    2  C1  UNL     1      23.324   1.830  52.029  1.00  0.00     0.232 C 
HETATM    3  N1  UNL     1      22.283   2.649  52.517  1.00  0.00    -0.250 N 
HETATM    4  H6  UNL     1      22.411   3.395  53.226  1.00  0.00     0.181 HD
ENDROOT
BRANCH   3   5
HETATM    5  S1  UNL     1      20.652   2.447  51.932  1.00  0.00     0.265 S 
HETATM    6  O2  UNL     1      19.859   3.645  52.366  1.00  0.00    -0.200 OA
HETATM    7  O3  UNL     1      20.782   2.467  50.418  1.00  0.00    -0.200 OA
BRANCH   5   8
HETATM    8  C8  UNL     1      19.930   0.978  52.482  1.00  0.00     0.080 A 
HETATM    9  C9  UNL     1      20.399   0.158  53.494  1.00  0.00     0.027 A 
HETATM   10  C10 UNL     1      19.730  -1.004  53.850  1.00  0.00     0.025 A 
HETATM   11  C11 UNL     1      18.570  -1.372  53.198  1.00  0.00     0.034 A 
HETATM   12 CL2  UNL     1      17.732  -2.858  53.668  1.00  0.00    -0.084 Cl
HETATM   13  C12 UNL     1      18.065  -0.583  52.182  1.00  0.00     0.025 A 
HETATM   14  C13 UNL     1      18.758   0.561  51.859  1.00  0.00     0.027 A 
ENDBRANCH   5   8
ENDBRANCH   3   5
BRANCH   2  15
HETATM   15  C2  UNL     1      24.618   2.227  52.705  1.00  0.00     0.121 C 
BRANCH  15  16
HETATM   16  C3  UNL     1      25.492   1.033  52.845  1.00  0.00     0.025 A 
HETATM   17  C4  UNL     1      26.369   1.548  53.803  1.00  0.00     0.040 A 
HETATM   18  C5  UNL     1      26.502   0.375  53.351  1.00  0.00    -0.069 A 
BRANCH  18  19
HETATM   19  P1  UNL     1      26.625  -0.908  52.840  1.00  0.00    -0.119 P 
HETATM   20  C6  UNL     1      26.693  -1.473  52.616  1.00  0.00     0.108 A 
HETATM   21  C7  UNL     1      28.053  -0.581  53.182  1.00  0.00     0.070 A 
HETATM   22 CL1  UNL     1      30.001  -0.331  53.567  1.00  0.00    -0.113 Cl
HETATM   23  H4  UNL     1      26.781  -3.156  51.934  1.00  0.00     0.050 HD
ENDBRANCH  18  19
ENDBRANCH  15  16
ENDBRANCH   2  15
TORSDOF 6
ENDMDL
MODEL 9
REMARK VINA RESULT:      -6.7      2.971      6.142
REMARK  6 active torsions:
REMARK  status: ('A' for Active; 'I' for Inactive)
REMARK    1  A    between atoms: C1_2  and  C2_3 
REMARK       I    between atoms: C1_2  and  N1_11 
REMARK    2  A    between atoms: C2_3  and  C3_4 
REMARK    3  A    between atoms: C3_4  and  C7_9 
REMARK    4  A    between atoms: C5_6  and  P1_7 
REMARK    5  A    between atoms: N1_11  and  S1_12 
REMARK    6  A    between atoms: S1_12  and  C8_15 
ROOT
HETATM    1  O1  UNL     1      23.903   1.077  51.480  1.00  0.00    -0.273 OA
HETATM    2  C1  UNL     1      23.190   1.750  52.266  1.00  0.00     0.232 C 
HETATM    3  N1  UNL     1      22.930   1.094  53.489  1.00  0.00    -0.250 N 
HETATM    4  H6  UNL     1      22.363   1.497  54.258  1.00  0.00     0.181 HD
ENDROOT
BRANCH   3   5
HETATM    5  S1  UNL     1      23.576  -0.498  53.792  1.00  0.00     0.265 S 
HETATM    6  O2  UNL     1      23.105  -0.931  55.150  1.00  0.00    -0.200 OA
HETATM    7  O3  UNL     1      22.925  -1.382  52.741  1.00  0.00    -0.200 OA
BRANCH   5   8
HETATM    8  C8  UNL     1      25.299  -0.546  53.675  1.00  0.00     0.080 A 
HETATM    9  C9  UNL     1      26.041  -1.258  52.750  1.00  0.00     0.027 A 
HETATM   10  C10 UNL     1      27.428  -1.219  52.754  1.00  0.00     0.025 A 
HETATM   11  C11 UNL     1      28.105  -0.462  53.689  1.00  0.00     0.034 A 
HETATM   12 CL2  UNL     1      29.874  -0.426  53.677  1.00  0.00    -0.084 Cl
HETATM   13  C12 UNL     1      27.403   0.264  54.632  1.00  0.00     0.025 A 
HETATM   14  C13 UNL     1      26.029   0.199  54.594  1.00  0.00     0.027 A 
ENDBRANCH   5   8
ENDBRANCH   3   5
BRANCH   2  15
HETATM   15  C2  UNL     1      22.510   3.102  52.281  1.00  0.00     0.121 C 
BRANCH  15  16
HETATM   16  C3  UNL     1      23.200   4.015  51.334  1.00  0.00     0.025 A 
HETATM   17  C4  UNL     1      23.443   5.066  52.223  1.00  0.00     0.040 A 
HETATM   18  C5  UNL     1      23.809   5.128  51.015  1.00  0.00    -0.069 A 
BRANCH  18  19
HETATM   19  P1  UNL     1      24.200   5.170  49.686  1.00  0.00    -0.119 P 
HETATM   20  C6  UNL     1      24.383   5.182  49.102  1.00  0.00     0.108 A 
HETATM   21  C7  UNL     1      25.229   4.245  50.274  1.00  0.00     0.070 A 
HETATM   22 CL1  UNL     1      26.681   3.002  50.868  1.00  0.00    -0.113 Cl
HETATM   23  H4  UNL     1      24.840   5.284  47.345  1.00  0.00     0.050 HD
ENDBRANCH  18  19
ENDBRANCH  15  16
ENDBRANCH   2  15
TORSDOF 6
ENDMDL
