MODEL 1
REMARK VINA RESULT:      -7.6      0.000      0.000
REMARK  5 active torsions:
REMARK  status: ('A' for Active; 'I' for Inactive)
REMARK    1  A    between atoms: O1_2  and  C2_3 
REMARK    2  A    between atoms: C6_9  and  C7_10 
REMARK    3  A    between atoms: C7_10  and  N1_11 
REMARK    4  A    between atoms: N1_11  and  C8_12 
REMARK    5  A    between atoms: C13_18  and  O4_19 
ROOT
HETATM    1  C8  UNL     1      26.300   2.395  51.912  1.00  0.00     0.031 A 
HETATM    2  C9  UNL     1      25.045   1.883  51.653  1.00  0.00     0.032 A 
HETATM    3  C10 UNL     1      24.597   0.932  52.571  1.00  0.00     0.042 A 
HETATM    4  C11 UNL     1      25.328   0.507  53.671  1.00  0.00     0.101 A 
HETATM    5  O3  UNL     1      24.816  -0.365  54.438  1.00  0.00    -0.353 OA
HETATM    6  C12 UNL     1      24.131  -1.265  55.109  1.00  0.00     0.210 C 
HETATM    7  C13 UNL     1      26.576   1.061  53.872  1.00  0.00     0.103 A 
HETATM    8  C15 UNL     1      27.084   2.014  52.993  1.00  0.00     0.068 A 
ENDROOT
BRANCH   7   9
HETATM    9  O4  UNL     1      27.277   0.605  54.991  1.00  0.00    -0.353 OA
HETATM   10  C14 UNL     1      28.625   0.235  54.819  1.00  0.00     0.210 C 
ENDBRANCH   7   9
BRANCH   1  11
HETATM   11  N1  UNL     1      26.848   3.362  51.056  1.00  0.00    -0.384 N 
HETATM   12  H8  UNL     1      27.643   3.988  51.389  1.00  0.00     0.160 HD
BRANCH  11  13
HETATM   13  C7  UNL     1      26.395   3.584  49.694  1.00  0.00     0.179 C 
BRANCH  13  14
HETATM   14  C6  UNL     1      27.048   4.777  49.080  1.00  0.00     0.054 A 
HETATM   15  C5  UNL     1      26.504   6.120  48.930  1.00  0.00    -0.012 A 
HETATM   16  C4  UNL     1      25.313   6.486  49.403  1.00  0.00     0.085 C 
HETATM   17  C17 UNL     1      27.477   6.933  48.202  1.00  0.00     0.100 A 
HETATM   18  S1  UNL     1      24.531   8.091  49.288  1.00  0.00     0.024 SA
HETATM   19  O2  UNL     1      25.767   9.305  49.113  1.00  0.00    -0.284 OA
HETATM   20  C3  UNL     1      27.148   9.189  49.343  1.00  0.00     0.185 C 
HETATM   21  C2  UNL     1      27.892   8.151  48.943  1.00  0.00     0.079 C 
HETATM   22  C16 UNL     1      28.652   6.000  48.037  1.00  0.00     0.165 A 
HETATM   23  N2  UNL     1      28.233   4.732  48.582  1.00  0.00    -0.291 NA
BRANCH  21  24
HETATM   24  O1  UNL     1      29.261   8.229  49.274  1.00  0.00    -0.357 OA
HETATM   25  C1  UNL     1      29.939   9.476  49.338  1.00  0.00     0.209 C 
ENDBRANCH  21  24
ENDBRANCH  13  14
ENDBRANCH  11  13
ENDBRANCH   1  11
TORSDOF 5
ENDMDL
MODEL 2
REMARK VINA RESULT:      -7.1      3.419      4.645
REMARK  5 active torsions:
REMARK  status: ('A' for Active; 'I' for Inactive)
REMARK    1  A    between atoms: O1_2  and  C2_3 
REMARK    2  A    between atoms: C6_9  and  C7_10 
REMARK    3  A    between atoms: C7_10  and  N1_11 
REMARK    4  A    between atoms: N1_11  and  C8_12 
REMARK    5  A    between atoms: C13_18  and  O4_19 
ROOT
HETATM    1  C8  UNL     1      24.901   0.376  53.277  1.00  0.00     0.031 A 
HETATM    2  C9  UNL     1      25.265  -0.881  52.841  1.00  0.00     0.032 A 
HETATM    3  C10 UNL     1      26.616  -1.191  53.001  1.00  0.00     0.042 A 
HETATM    4  C11 UNL     1      27.552  -0.329  53.552  1.00  0.00     0.101 A 
HETATM    5  O3  UNL     1      28.755  -0.721  53.647  1.00  0.00    -0.353 OA
HETATM    6  C12 UNL     1      29.939  -1.297  53.661  1.00  0.00     0.210 C 
HETATM    7  C13 UNL     1      27.121   0.914  53.969  1.00  0.00     0.103 A 
HETATM    8  C15 UNL     1      25.786   1.288  53.837  1.00  0.00     0.068 A 
ENDROOT
BRANCH   7   9
HETATM    9  O4  UNL     1      28.096   1.750  54.518  1.00  0.00    -0.353 OA
HETATM   10  C14 UNL     1      28.839   2.563  53.639  1.00  0.00     0.210 C 
ENDBRANCH   7   9
BRANCH   1  11
HETATM   11  N1  UNL     1      23.565   0.792  53.168  1.00  0.00    -0.384 N 
HETATM   12  H8  UNL     1      22.923   0.770  54.018  1.00  0.00     0.160 HD
BRANCH  11  13
HETATM   13  C7  UNL     1      22.967   1.270  51.934  1.00  0.00     0.179 C 
BRANCH  13  14
HETATM   14  C6  UNL     1      23.101   2.749  51.790  1.00  0.00     0.054 A 
HETATM   15  C5  UNL     1      24.162   3.494  51.125  1.00  0.00    -0.012 A 
HETATM   16  C4  UNL     1      25.170   2.912  50.476  1.00  0.00     0.085 C 
HETATM   17  C17 UNL     1      23.906   4.922  51.305  1.00  0.00     0.100 A 
HETATM   18  S1  UNL     1      26.530   3.702  49.622  1.00  0.00     0.024 SA
HETATM   19  O2  UNL     1      26.031   5.297  49.131  1.00  0.00    -0.284 OA
HETATM   20  C3  UNL     1      24.731   5.829  49.071  1.00  0.00     0.185 C 
HETATM   21  C2  UNL     1      23.807   5.663  50.022  1.00  0.00     0.079 C 
HETATM   22  C16 UNL     1      22.579   4.947  52.024  1.00  0.00     0.165 A 
HETATM   23  N2  UNL     1      22.238   3.569  52.279  1.00  0.00    -0.291 NA
BRANCH  21  24
HETATM   24  O1  UNL     1      22.564   6.280  49.768  1.00  0.00    -0.357 OA
HETATM   25  C1  UNL     1      22.476   7.656  49.421  1.00  0.00     0.209 C 
ENDBRANCH  21  24
ENDBRANCH  13  14
ENDBRANCH  11  13
ENDBRANCH   1  11
TORSDOF 5
ENDMDL
MODEL 3
REMARK VINA RESULT:      -7.1      2.228      8.140
REMARK  5 active torsions:
REMARK  status: ('A' for Active; 'I' for Inactive)
REMARK    1  A    between atoms: O1_2  and  C2_3 
REMARK    2  A    between atoms: C6_9  and  C7_10 
REMARK    3  A    between atoms: C7_10  and  N1_11 
REMARK    4  A    between atoms: N1_11  and  C8_12 
REMARK    5  A    between atoms: C13_18  and  O4_19 
ROOT
HETATM    1  C8  UNL     1      25.798   5.807  49.641  1.00  0.00     0.031 A 
HETATM    2  C9  UNL     1      25.478   6.975  50.300  1.00  0.00     0.032 A 
HETATM    3  C10 UNL     1      26.328   8.051  50.037  1.00  0.00     0.042 A 
HETATM    4  C11 UNL     1      27.420   7.990  49.185  1.00  0.00     0.101 A 
HETATM    5  O3  UNL     1      28.122   9.034  49.024  1.00  0.00    -0.353 OA
HETATM    6  C12 UNL     1      28.725  10.203  48.984  1.00  0.00     0.210 C 
HETATM    7  C13 UNL     1      27.684   6.790  48.555  1.00  0.00     0.103 A 
HETATM    8  C15 UNL     1      26.876   5.677  48.774  1.00  0.00     0.068 A 
ENDROOT
BRANCH   7   9
HETATM    9  O4  UNL     1      28.792   6.773  47.705  1.00  0.00    -0.353 OA
HETATM   10  C14 UNL     1      29.809   5.833  47.967  1.00  0.00     0.210 C 
ENDBRANCH   7   9
BRANCH   1  11
HETATM   11  N1  UNL     1      25.008   4.662  49.827  1.00  0.00    -0.384 N 
HETATM   12  H8  UNL     1      23.985   4.754  50.107  1.00  0.00     0.160 HD
BRANCH  11  13
HETATM   13  C7  UNL     1      25.502   3.307  49.661  1.00  0.00     0.179 C 
BRANCH  13  14
HETATM   14  C6  UNL     1      25.841   2.676  50.970  1.00  0.00     0.054 A 
HETATM   15  C5  UNL     1      24.941   2.025  51.913  1.00  0.00    -0.012 A 
HETATM   16  C4  UNL     1      23.641   1.848  51.682  1.00  0.00     0.085 C 
HETATM   17  C17 UNL     1      25.713   1.627  53.088  1.00  0.00     0.100 A 
HETATM   18  S1  UNL     1      22.431   1.070  52.747  1.00  0.00     0.024 SA
HETATM   19  O2  UNL     1      23.250  -0.048  53.800  1.00  0.00    -0.284 OA
HETATM   20  C3  UNL     1      24.554  -0.561  53.691  1.00  0.00     0.185 C 
HETATM   21  C2  UNL     1      25.627   0.174  53.380  1.00  0.00     0.079 C 
HETATM   22  C16 UNL     1      27.128   1.999  52.714  1.00  0.00     0.165 A 
HETATM   23  N2  UNL     1      27.042   2.651  51.431  1.00  0.00    -0.291 NA
BRANCH  21  24
HETATM   24  O1  UNL     1      26.845  -0.535  53.321  1.00  0.00    -0.357 OA
HETATM   25  C1  UNL     1      26.959  -1.758  52.607  1.00  0.00     0.209 C 
ENDBRANCH  21  24
ENDBRANCH  13  14
ENDBRANCH  11  13
ENDBRANCH   1  11
TORSDOF 5
ENDMDL
MODEL 4
REMARK VINA RESULT:      -7.1      2.678      8.282
REMARK  5 active torsions:
REMARK  status: ('A' for Active; 'I' for Inactive)
REMARK    1  A    between atoms: O1_2  and  C2_3 
REMARK    2  A    between atoms: C6_9  and  C7_10 
REMARK    3  A    between atoms: C7_10  and  N1_11 
REMARK    4  A    between atoms: N1_11  and  C8_12 
REMARK    5  A    between atoms: C13_18  and  O4_19 
ROOT
HETATM    1  C8  UNL     1      26.196   5.249  49.284  1.00  0.00     0.031 A 
HETATM    2  C9  UNL     1      26.888   6.271  48.669  1.00  0.00     0.032 A 
HETATM    3  C10 UNL     1      26.098   7.166  47.946  1.00  0.00     0.042 A 
HETATM    4  C11 UNL     1      24.719   7.068  47.831  1.00  0.00     0.101 A 
HETATM    5  O3  UNL     1      24.105   7.942  47.145  1.00  0.00    -0.353 OA
HETATM    6  C12 UNL     1      23.648   8.927  46.402  1.00  0.00     0.210 C 
HETATM    7  C13 UNL     1      24.088   6.022  48.473  1.00  0.00     0.103 A 
HETATM    8  C15 UNL     1      24.817   5.093  49.211  1.00  0.00     0.068 A 
ENDROOT
BRANCH   7   9
HETATM    9  O4  UNL     1      22.699   5.963  48.332  1.00  0.00    -0.353 OA
HETATM   10  C14 UNL     1      22.125   4.726  47.977  1.00  0.00     0.210 C 
ENDBRANCH   7   9
BRANCH   1  11
HETATM   11  N1  UNL     1      26.890   4.294  50.042  1.00  0.00    -0.384 N 
HETATM   12  H8  UNL     1      27.771   4.565  50.575  1.00  0.00     0.160 HD
BRANCH  11  13
HETATM   13  C7  UNL     1      26.480   2.906  50.160  1.00  0.00     0.179 C 
BRANCH  13  14
HETATM   14  C6  UNL     1      26.659   2.391  51.550  1.00  0.00     0.054 A 
HETATM   15  C5  UNL     1      25.684   1.700  52.383  1.00  0.00    -0.012 A 
HETATM   16  C4  UNL     1      24.463   1.371  51.963  1.00  0.00     0.085 C 
HETATM   17  C17 UNL     1      26.286   1.456  53.692  1.00  0.00     0.100 A 
HETATM   18  S1  UNL     1      23.176   0.528  52.877  1.00  0.00     0.024 SA
HETATM   19  O2  UNL     1      23.915  -0.433  54.127  1.00  0.00    -0.284 OA
HETATM   20  C3  UNL     1      25.263  -0.808  54.263  1.00  0.00     0.185 C 
HETATM   21  C2  UNL     1      26.296   0.021  54.072  1.00  0.00     0.079 C 
HETATM   22  C16 UNL     1      27.700   1.957  53.520  1.00  0.00     0.165 A 
HETATM   23  N2  UNL     1      27.764   2.522  52.195  1.00  0.00    -0.291 NA
BRANCH  21  24
HETATM   24  O1  UNL     1      27.570  -0.554  54.260  1.00  0.00    -0.357 OA
HETATM   25  C1  UNL     1      28.194  -1.325  53.242  1.00  0.00     0.209 C 
ENDBRANCH  21  24
ENDBRANCH  13  14
ENDBRANCH  11  13
ENDBRANCH   1  11
TORSDOF 5
ENDMDL
MODEL 5
REMARK VINA RESULT:      -7.0      2.583      8.532
REMARK  5 active torsions:
REMARK  status: ('A' for Active; 'I' for Inactive)
REMARK    1  A    between atoms: O1_2  and  C2_3 
REMARK    2  A    between atoms: C6_9  and  C7_10 
REMARK    3  A    between atoms: C7_10  and  N1_11 
REMARK    4  A    between atoms: N1_11  and  C8_12 
REMARK    5  A    between atoms: C13_18  and  O4_19 
ROOT
HETATM    1  C8  UNL     1      25.564   5.397  49.506  1.00  0.00     0.031 A 
HETATM    2  C9  UNL     1      26.475   4.431  49.132  1.00  0.00     0.032 A 
HETATM    3  C10 UNL     1      27.662   4.921  48.586  1.00  0.00     0.042 A 
HETATM    4  C11 UNL     1      27.942   6.268  48.415  1.00  0.00     0.101 A 
HETATM    5  O3  UNL     1      29.057   6.596  47.905  1.00  0.00    -0.353 OA
HETATM    6  C12 UNL     1      30.249   6.740  47.367  1.00  0.00     0.210 C 
HETATM    7  C13 UNL     1      26.987   7.183  48.811  1.00  0.00     0.103 A 
HETATM    8  C15 UNL     1      25.781   6.762  49.363  1.00  0.00     0.068 A 
ENDROOT
BRANCH   7   9
HETATM    9  O4  UNL     1      27.311   8.529  48.621  1.00  0.00    -0.353 OA
HETATM   10  C14 UNL     1      27.841   9.239  49.716  1.00  0.00     0.210 C 
ENDBRANCH   7   9
BRANCH   1  11
HETATM   11  N1  UNL     1      24.338   5.018  50.071  1.00  0.00    -0.384 N 
HETATM   12  H8  UNL     1      23.465   4.945  49.466  1.00  0.00     0.160 HD
BRANCH  11  13
HETATM   13  C7  UNL     1      24.161   4.705  51.478  1.00  0.00     0.179 C 
BRANCH  13  14
HETATM   14  C6  UNL     1      23.621   3.327  51.676  1.00  0.00     0.054 A 
HETATM   15  C5  UNL     1      24.365   2.095  51.896  1.00  0.00    -0.012 A 
HETATM   16  C4  UNL     1      25.692   2.051  52.015  1.00  0.00     0.085 C 
HETATM   17  C17 UNL     1      23.414   0.986  51.959  1.00  0.00     0.100 A 
HETATM   18  S1  UNL     1      26.724   0.614  52.285  1.00  0.00     0.024 SA
HETATM   19  O2  UNL     1      25.776  -0.617  53.070  1.00  0.00    -0.284 OA
HETATM   20  C3  UNL     1      24.532  -0.489  53.712  1.00  0.00     0.185 C 
HETATM   21  C2  UNL     1      23.503   0.212  53.223  1.00  0.00     0.079 C 
HETATM   22  C16 UNL     1      22.074   1.676  51.865  1.00  0.00     0.165 A 
HETATM   23  N2  UNL     1      22.360   3.074  51.662  1.00  0.00    -0.291 NA
BRANCH  21  24
HETATM   24  O1  UNL     1      22.342   0.213  54.023  1.00  0.00    -0.357 OA
HETATM   25  C1  UNL     1      21.962  -0.928  54.781  1.00  0.00     0.209 C 
ENDBRANCH  21  24
ENDBRANCH  13  14
ENDBRANCH  11  13
ENDBRANCH   1  11
TORSDOF 5
ENDMDL
MODEL 6
REMARK VINA RESULT:      -7.0      2.165      2.852
REMARK  5 active torsions:
REMARK  status: ('A' for Active; 'I' for Inactive)
REMARK    1  A    between atoms: O1_2  and  C2_3 
REMARK    2  A    between atoms: C6_9  and  C7_10 
REMARK    3  A    between atoms: C7_10  and  N1_11 
REMARK    4  A    between atoms: N1_11  and  C8_12 
REMARK    5  A    between atoms: C13_18  and  O4_19 
ROOT
HETATM    1  C8  UNL     1      25.832   2.039  51.887  1.00  0.00     0.031 A 
HETATM    2  C9  UNL     1      24.531   2.377  52.192  1.00  0.00     0.032 A 
HETATM    3  C10 UNL     1      23.842   1.435  52.959  1.00  0.00     0.042 A 
HETATM    4  C11 UNL     1      24.390   0.239  53.398  1.00  0.00     0.101 A 
HETATM    5  O3  UNL     1      23.666  -0.540  54.090  1.00  0.00    -0.353 OA
HETATM    6  C12 UNL     1      22.773  -1.212  54.785  1.00  0.00     0.210 C 
HETATM    7  C13 UNL     1      25.699  -0.037  53.058  1.00  0.00     0.103 A 
HETATM    8  C15 UNL     1      26.442   0.859  52.295  1.00  0.00     0.068 A 
ENDROOT
BRANCH   7   9
HETATM    9  O4  UNL     1      26.210  -1.251  53.523  1.00  0.00    -0.353 OA
HETATM   10  C14 UNL     1      26.968  -2.032  52.628  1.00  0.00     0.210 C 
ENDBRANCH   7   9
BRANCH   1  11
HETATM   11  N1  UNL     1      26.620   2.914  51.125  1.00  0.00    -0.384 N 
HETATM   12  H8  UNL     1      27.455   3.408  51.564  1.00  0.00     0.160 HD
BRANCH  11  13
HETATM   13  C7  UNL     1      26.372   3.211  49.725  1.00  0.00     0.179 C 
BRANCH  13  14
HETATM   14  C6  UNL     1      26.106   4.663  49.505  1.00  0.00     0.054 A 
HETATM   15  C5  UNL     1      26.999   5.662  48.931  1.00  0.00    -0.012 A 
HETATM   16  C4  UNL     1      28.207   5.375  48.450  1.00  0.00     0.085 C 
HETATM   17  C17 UNL     1      26.333   6.962  48.987  1.00  0.00     0.100 A 
HETATM   18  S1  UNL     1      29.396   6.498  47.723  1.00  0.00     0.024 SA
HETATM   19  O2  UNL     1      28.545   7.871  47.074  1.00  0.00    -0.284 OA
HETATM   20  C3  UNL     1      27.169   8.009  46.819  1.00  0.00     0.185 C 
HETATM   21  C2  UNL     1      26.206   7.611  47.658  1.00  0.00     0.079 C 
HETATM   22  C16 UNL     1      24.965   6.626  49.533  1.00  0.00     0.165 A 
HETATM   23  N2  UNL     1      24.991   5.215  49.830  1.00  0.00    -0.291 NA
BRANCH  21  24
HETATM   24  O1  UNL     1      24.888   7.842  47.213  1.00  0.00    -0.357 OA
HETATM   25  C1  UNL     1      24.595   8.055  45.838  1.00  0.00     0.209 C 
ENDBRANCH  21  24
ENDBRANCH  13  14
ENDBRANCH  11  13
ENDBRANCH   1  11
TORSDOF 5
ENDMDL
MODEL 7
REMARK VINA RESULT:      -6.9      1.843      2.767
REMARK  5 active torsions:
REMARK  status: ('A' for Active; 'I' for Inactive)
REMARK    1  A    between atoms: O1_2  and  C2_3 
REMARK    2  A    between atoms: C6_9  and  C7_10 
REMARK    3  A    between atoms: C7_10  and  N1_11 
REMARK    4  A    between atoms: N1_11  and  C8_12 
REMARK    5  A    between atoms: C13_18  and  O4_19 
ROOT
HETATM    1  C8  UNL     1      25.215   2.523  51.811  1.00  0.00     0.031 A 
HETATM    2  C9  UNL     1      25.579   1.362  52.458  1.00  0.00     0.032 A 
HETATM    3  C10 UNL     1      24.533   0.687  53.090  1.00  0.00     0.042 A 
HETATM    4  C11 UNL     1      23.216   1.121  53.090  1.00  0.00     0.101 A 
HETATM    5  O3  UNL     1      22.348   0.424  53.700  1.00  0.00    -0.353 OA
HETATM    6  C12 UNL     1      21.600  -0.419  54.379  1.00  0.00     0.210 C 
HETATM    7  C13 UNL     1      22.919   2.292  52.422  1.00  0.00     0.103 A 
HETATM    8  C15 UNL     1      23.916   3.014  51.771  1.00  0.00     0.068 A 
ENDROOT
BRANCH   7   9
HETATM    9  O4  UNL     1      21.581   2.691  52.446  1.00  0.00    -0.353 OA
HETATM   10  C14 UNL     1      21.284   4.024  52.097  1.00  0.00     0.210 C 
ENDBRANCH   7   9
BRANCH   1  11
HETATM   11  N1  UNL     1      26.186   3.280  51.137  1.00  0.00    -0.384 N 
HETATM   12  H8  UNL     1      26.802   3.965  51.671  1.00  0.00     0.160 HD
BRANCH  11  13
HETATM   13  C7  UNL     1      26.425   3.196  49.707  1.00  0.00     0.179 C 
BRANCH  13  14
HETATM   14  C6  UNL     1      26.828   4.514  49.134  1.00  0.00     0.054 A 
HETATM   15  C5  UNL     1      26.000   5.696  48.933  1.00  0.00    -0.012 A 
HETATM   16  C4  UNL     1      24.725   5.771  49.313  1.00  0.00     0.085 C 
HETATM   17  C17 UNL     1      26.809   6.719  48.273  1.00  0.00     0.100 A 
HETATM   18  S1  UNL     1      23.603   7.153  49.128  1.00  0.00     0.024 SA
HETATM   19  O2  UNL     1      24.534   8.621  49.036  1.00  0.00    -0.284 OA
HETATM   20  C3  UNL     1      25.884   8.826  49.369  1.00  0.00     0.185 C 
HETATM   21  C2  UNL     1      26.875   7.992  49.034  1.00  0.00     0.079 C 
HETATM   22  C16 UNL     1      28.178   6.085  48.203  1.00  0.00     0.165 A 
HETATM   23  N2  UNL     1      28.024   4.749  48.725  1.00  0.00    -0.291 NA
BRANCH  21  24
HETATM   24  O1  UNL     1      28.160   8.382  49.465  1.00  0.00    -0.357 OA
HETATM   25  C1  UNL     1      28.625   9.715  49.303  1.00  0.00     0.209 C 
ENDBRANCH  21  24
ENDBRANCH  13  14
ENDBRANCH  11  13
ENDBRANCH   1  11
TORSDOF 5
ENDMDL
MODEL 8
REMARK VINA RESULT:      -6.7      1.720      2.754
REMARK  5 active torsions:
REMARK  status: ('A' for Active; 'I' for Inactive)
REMARK    1  A    between atoms: O1_2  and  C2_3 
REMARK    2  A    between atoms: C6_9  and  C7_10 
REMARK    3  A    between atoms: C7_10  and  N1_11 
REMARK    4  A    between atoms: N1_11  and  C8_12 
REMARK    5  A    between atoms: C13_18  and  O4_19 
ROOT
HETATM    1  C8  UNL     1      25.477   2.763  50.414  1.00  0.00     0.031 A 
HETATM    2  C9  UNL     1      26.618   2.279  51.018  1.00  0.00     0.032 A 
HETATM    3  C10 UNL     1      26.395   1.389  52.070  1.00  0.00     0.042 A 
HETATM    4  C11 UNL     1      25.138   0.996  52.503  1.00  0.00     0.101 A 
HETATM    5  O3  UNL     1      25.059   0.179  53.471  1.00  0.00    -0.353 OA
HETATM    6  C12 UNL     1      25.175  -0.662  54.476  1.00  0.00     0.210 C 
HETATM    7  C13 UNL     1      24.037   1.517  51.854  1.00  0.00     0.103 A 
HETATM    8  C15 UNL     1      24.188   2.411  50.797  1.00  0.00     0.068 A 
ENDROOT
BRANCH   7   9
HETATM    9  O4  UNL     1      22.791   1.093  52.322  1.00  0.00    -0.353 OA
HETATM   10  C14 UNL     1      21.715   2.001  52.247  1.00  0.00     0.210 C 
ENDBRANCH   7   9
BRANCH   1  11
HETATM   11  N1  UNL     1      25.582   3.662  49.342  1.00  0.00    -0.384 N 
HETATM   12  H8  UNL     1      25.532   3.311  48.337  1.00  0.00     0.160 HD
BRANCH  11  13
HETATM   13  C7  UNL     1      25.763   5.093  49.505  1.00  0.00     0.179 C 
BRANCH  13  14
HETATM   14  C6  UNL     1      27.051   5.560  48.911  1.00  0.00     0.054 A 
HETATM   15  C5  UNL     1      27.423   6.916  48.530  1.00  0.00    -0.012 A 
HETATM   16  C4  UNL     1      26.640   7.975  48.731  1.00  0.00     0.085 C 
HETATM   17  C17 UNL     1      28.752   6.876  47.922  1.00  0.00     0.100 A 
HETATM   18  S1  UNL     1      26.973   9.684  48.314  1.00  0.00     0.024 SA
HETATM   19  O2  UNL     1      28.697   9.920  48.257  1.00  0.00    -0.284 OA
HETATM   20  C3  UNL     1      29.713   9.085  48.754  1.00  0.00     0.185 C 
HETATM   21  C2  UNL     1      29.733   7.756  48.606  1.00  0.00     0.079 C 
HETATM   22  C16 UNL     1      29.157   5.430  48.074  1.00  0.00     0.165 A 
HETATM   23  N2  UNL     1      28.020   4.756  48.652  1.00  0.00    -0.291 NA
BRANCH  21  24
HETATM   24  O1  UNL     1      30.844   7.104  49.179  1.00  0.00    -0.357 OA
HETATM   25  C1  UNL     1      32.164   7.609  49.025  1.00  0.00     0.209 C 
ENDBRANCH  21  24
ENDBRANCH  13  14
ENDBRANCH  11  13
ENDBRANCH   1  11
TORSDOF 5
ENDMDL
MODEL 9
REMARK VINA RESULT:      -6.5      4.922      6.775
REMARK  5 active torsions:
REMARK  status: ('A' for Active; 'I' for Inactive)
REMARK    1  A    between atoms: O1_2  and  C2_3 
REMARK    2  A    between atoms: C6_9  and  C7_10 
REMARK    3  A    between atoms: C7_10  and  N1_11 
REMARK    4  A    between atoms: N1_11  and  C8_12 
REMARK    5  A    between atoms: C13_18  and  O4_19 
ROOT
HETATM    1  C8  UNL     1      24.989   2.537  52.909  1.00  0.00     0.031 A 
HETATM    2  C9  UNL     1      26.270   2.344  52.436  1.00  0.00     0.032 A 
HETATM    3  C10 UNL     1      26.670   1.009  52.349  1.00  0.00     0.042 A 
HETATM    4  C11 UNL     1      25.869  -0.068  52.701  1.00  0.00     0.101 A 
HETATM    5  O3  UNL     1      26.341  -1.239  52.579  1.00  0.00    -0.353 OA
HETATM    6  C12 UNL     1      26.996  -2.364  52.387  1.00  0.00     0.210 C 
HETATM    7  C13 UNL     1      24.597   0.197  53.166  1.00  0.00     0.103 A 
HETATM    8  C15 UNL     1      24.135   1.505  53.279  1.00  0.00     0.068 A 
ENDROOT
BRANCH   7   9
HETATM    9  O4  UNL     1      23.825  -0.916  53.508  1.00  0.00    -0.353 OA
HETATM   10  C14 UNL     1      22.587  -0.690  54.142  1.00  0.00     0.210 C 
ENDBRANCH   7   9
BRANCH   1  11
HETATM   11  N1  UNL     1      24.481   3.839  53.034  1.00  0.00    -0.384 N 
HETATM   12  H8  UNL     1      24.462   4.321  53.984  1.00  0.00     0.160 HD
BRANCH  11  13
HETATM   13  C7  UNL     1      23.957   4.610  51.921  1.00  0.00     0.179 C 
BRANCH  13  14
HETATM   14  C6  UNL     1      22.564   4.204  51.572  1.00  0.00     0.054 A 
HETATM   15  C5  UNL     1      22.104   3.512  50.376  1.00  0.00    -0.012 A 
HETATM   16  C4  UNL     1      22.924   3.078  49.419  1.00  0.00     0.085 C 
HETATM   17  C17 UNL     1      20.648   3.397  50.440  1.00  0.00     0.100 A 
HETATM   18  S1  UNL     1      22.493   2.220  47.909  1.00  0.00     0.024 SA
HETATM   19  O2  UNL     1      20.978   1.396  48.146  1.00  0.00    -0.284 OA
HETATM   20  C3  UNL     1      20.311   1.117  49.351  1.00  0.00     0.185 C 
HETATM   21  C2  UNL     1      20.168   1.995  50.351  1.00  0.00     0.079 C 
HETATM   22  C16 UNL     1      20.316   3.974  51.796  1.00  0.00     0.165 A 
HETATM   23  N2  UNL     1      21.563   4.450  52.342  1.00  0.00    -0.291 NA
BRANCH  21  24
HETATM   24  O1  UNL     1      19.464   1.516  51.475  1.00  0.00    -0.357 OA
HETATM   25  C1  UNL     1      19.058   0.158  51.574  1.00  0.00     0.209 C 
ENDBRANCH  21  24
ENDBRANCH  13  14
ENDBRANCH  11  13
ENDBRANCH   1  11
TORSDOF 5
ENDMDL
