MODEL 1
REMARK VINA RESULT:      -7.7      0.000      0.000
REMARK  3 active torsions:
REMARK  status: ('A' for Active; 'I' for Inactive)
REMARK    1  A    between atoms: C2_2  and  O1_3 
REMARK    2  A    between atoms: O1_3  and  C3_4 
REMARK    3  A    between atoms: C4_5  and  C5_6 
ROOT
HETATM    1  C5  UNL     1      20.803   2.924  49.470  1.00  0.00     0.111 A 
HETATM    2  C6  UNL     1      21.208   1.699  49.954  1.00  0.00     0.074 A 
HETATM    3  C7  UNL     1      21.758   2.052  51.165  1.00  0.00     0.080 A 
HETATM    4  N1  UNL     1      21.690   3.357  51.383  1.00  0.00    -0.171 NA
HETATM    5  N2  UNL     1      21.101   3.904  50.341  1.00  0.00    -0.251 N 
HETATM    6  C8  UNL     1      20.930   5.345  50.360  1.00  0.00     0.230 C 
HETATM    7  S1  UNL     1      22.465   6.178  50.849  1.00  0.00    -0.120 SA
HETATM    8  C9  UNL     1      23.773   5.950  49.653  1.00  0.00     0.046 C 
HETATM    9  C10 UNL     1      24.760   5.078  49.648  1.00  0.00     0.007 C 
HETATM   10  C11 UNL     1      25.939   4.287  49.321  1.00  0.00    -0.002 C 
HETATM   11  C12 UNL     1      26.736   3.297  49.684  1.00  0.00    -0.005 C 
HETATM   12  C13 UNL     1      26.469   2.556  50.935  1.00  0.00     0.175 C 
HETATM   13  N3  UNL     1      27.555   2.658  51.875  1.00  0.00    -0.298 NA
HETATM   14  C14 UNL     1      27.607   1.751  52.778  1.00  0.00     0.110 C 
HETATM   15  C15 UNL     1      27.597   0.695  53.764  1.00  0.00     0.015 C 
HETATM   16  C16 UNL     1      26.725  -0.278  53.833  1.00  0.00    -0.022 C 
HETATM   17  C17 UNL     1      25.517  -0.798  53.146  1.00  0.00     0.054 C 
HETATM   18  C18 UNL     1      24.338  -0.826  54.009  1.00  0.00    -0.023 C 
HETATM   19  C19 UNL     1      23.115  -0.356  54.102  1.00  0.00    -0.004 C 
HETATM   20  C20 UNL     1      22.329   0.504  53.266  1.00  0.00     0.002 C 
HETATM   21  C21 UNL     1      22.358   1.179  52.152  1.00  0.00     0.033 C 
ENDROOT
BRANCH   1  22
HETATM   22  C4  UNL     1      20.149   3.078  48.190  1.00  0.00    -0.017 C 
HETATM   23  C3  UNL     1      19.618   3.193  47.114  1.00  0.00     0.061 C 
BRANCH  23  24
HETATM   24  O1  UNL     1      19.027   3.320  45.869  1.00  0.00    -0.304 OA
BRANCH  24  25
HETATM   25  C2  UNL     1      19.562   4.256  44.923  1.00  0.00     0.183 C 
HETATM   26  C1  UNL     1      21.039   3.940  44.709  1.00  0.00     0.035 C 
ENDBRANCH  24  25
ENDBRANCH  23  24
ENDBRANCH   1  22
TORSDOF 3
ENDMDL
MODEL 2
REMARK VINA RESULT:      -7.2      3.388      7.929
REMARK  3 active torsions:
REMARK  status: ('A' for Active; 'I' for Inactive)
REMARK    1  A    between atoms: C2_2  and  O1_3 
REMARK    2  A    between atoms: O1_3  and  C3_4 
REMARK    3  A    between atoms: C4_5  and  C5_6 
ROOT
HETATM    1  C5  UNL     1      24.625   1.801  52.608  1.00  0.00     0.111 A 
HETATM    2  C6  UNL     1      25.179   2.945  52.079  1.00  0.00     0.074 A 
HETATM    3  C7  UNL     1      24.076   3.762  51.975  1.00  0.00     0.080 A 
HETATM    4  N1  UNL     1      22.972   3.164  52.398  1.00  0.00    -0.171 NA
HETATM    5  N2  UNL     1      23.301   1.953  52.791  1.00  0.00    -0.251 N 
HETATM    6  C8  UNL     1      22.231   1.105  53.288  1.00  0.00     0.230 C 
HETATM    7  S1  UNL     1      20.798   1.147  52.178  1.00  0.00    -0.120 SA
HETATM    8  C9  UNL     1      21.157   0.435  50.578  1.00  0.00     0.046 C 
HETATM    9  C10 UNL     1      21.496   1.031  49.454  1.00  0.00     0.007 C 
HETATM   10  C11 UNL     1      21.876   1.338  48.081  1.00  0.00    -0.002 C 
HETATM   11  C12 UNL     1      22.178   2.282  47.207  1.00  0.00    -0.005 C 
HETATM   12  C13 UNL     1      22.183   3.700  47.626  1.00  0.00     0.175 C 
HETATM   13  N3  UNL     1      21.233   4.494  46.890  1.00  0.00    -0.298 NA
HETATM   14  C14 UNL     1      21.442   5.757  46.878  1.00  0.00     0.110 C 
HETATM   15  C15 UNL     1      21.743   7.169  46.912  1.00  0.00     0.015 C 
HETATM   16  C16 UNL     1      22.762   7.718  47.522  1.00  0.00    -0.022 C 
HETATM   17  C17 UNL     1      23.945   7.364  48.345  1.00  0.00     0.054 C 
HETATM   18  C18 UNL     1      23.917   7.970  49.675  1.00  0.00    -0.023 C 
HETATM   19  C19 UNL     1      23.924   7.659  50.951  1.00  0.00    -0.004 C 
HETATM   20  C20 UNL     1      23.970   6.412  51.656  1.00  0.00     0.002 C 
HETATM   21  C21 UNL     1      24.024   5.122  51.482  1.00  0.00     0.033 C 
ENDROOT
BRANCH   1  22
HETATM   22  C4  UNL     1      25.407   0.623  52.907  1.00  0.00    -0.017 C 
HETATM   23  C3  UNL     1      26.075  -0.348  53.164  1.00  0.00     0.061 C 
BRANCH  23  24
HETATM   24  O1  UNL     1      26.860  -1.449  53.457  1.00  0.00    -0.304 OA
BRANCH  24  25
HETATM   25  C2  UNL     1      28.261  -1.422  53.152  1.00  0.00     0.183 C 
HETATM   26  C1  UNL     1      28.918  -0.324  53.981  1.00  0.00     0.035 C 
ENDBRANCH  24  25
ENDBRANCH  23  24
ENDBRANCH   1  22
TORSDOF 3
ENDMDL
MODEL 3
REMARK VINA RESULT:      -6.9      3.680      4.477
REMARK  3 active torsions:
REMARK  status: ('A' for Active; 'I' for Inactive)
REMARK    1  A    between atoms: C2_2  and  O1_3 
REMARK    2  A    between atoms: O1_3  and  C3_4 
REMARK    3  A    between atoms: C4_5  and  C5_6 
ROOT
HETATM    1  C5  UNL     1      17.231   0.603  50.355  1.00  0.00     0.111 A 
HETATM    2  C6  UNL     1      18.094  -0.272  50.978  1.00  0.00     0.074 A 
HETATM    3  C7  UNL     1      18.769   0.571  51.833  1.00  0.00     0.080 A 
HETATM    4  N1  UNL     1      18.351   1.825  51.729  1.00  0.00    -0.171 NA
HETATM    5  N2  UNL     1      17.402   1.854  50.820  1.00  0.00    -0.251 N 
HETATM    6  C8  UNL     1      16.801   3.144  50.532  1.00  0.00     0.230 C 
HETATM    7  S1  UNL     1      18.071   4.416  50.299  1.00  0.00    -0.120 SA
HETATM    8  C9  UNL     1      19.077   4.117  48.852  1.00  0.00     0.046 C 
HETATM    9  C10 UNL     1      20.257   3.540  48.759  1.00  0.00     0.007 C 
HETATM   10  C11 UNL     1      21.517   2.976  48.290  1.00  0.00    -0.002 C 
HETATM   11  C12 UNL     1      22.641   2.367  48.622  1.00  0.00    -0.005 C 
HETATM   12  C13 UNL     1      22.909   2.032  50.037  1.00  0.00     0.175 C 
HETATM   13  N3  UNL     1      24.094   2.679  50.539  1.00  0.00    -0.298 NA
HETATM   14  C14 UNL     1      24.628   2.152  51.576  1.00  0.00     0.110 C 
HETATM   15  C15 UNL     1      25.171   1.502  52.746  1.00  0.00     0.015 C 
HETATM   16  C16 UNL     1      24.683   0.432  53.321  1.00  0.00    -0.022 C 
HETATM   17  C17 UNL     1      23.572  -0.543  53.194  1.00  0.00     0.054 C 
HETATM   18  C18 UNL     1      22.689  -0.558  54.358  1.00  0.00    -0.023 C 
HETATM   19  C19 UNL     1      21.436  -0.374  54.705  1.00  0.00    -0.004 C 
HETATM   20  C20 UNL     1      20.254  -0.036  53.968  1.00  0.00     0.002 C 
HETATM   21  C21 UNL     1      19.818   0.228  52.769  1.00  0.00     0.033 C 
ENDROOT
BRANCH   1  22
HETATM   22  C4  UNL     1      16.289   0.179  49.345  1.00  0.00    -0.017 C 
HETATM   23  C3  UNL     1      15.515  -0.191  48.497  1.00  0.00     0.061 C 
BRANCH  23  24
HETATM   24  O1  UNL     1      14.644  -0.625  47.514  1.00  0.00    -0.304 OA
BRANCH  24  25
HETATM   25  C2  UNL     1      15.051  -1.666  46.615  1.00  0.00     0.183 C 
HETATM   26  C1  UNL     1      15.454  -2.887  47.438  1.00  0.00     0.035 C 
ENDBRANCH  24  25
ENDBRANCH  23  24
ENDBRANCH   1  22
TORSDOF 3
ENDMDL
MODEL 4
REMARK VINA RESULT:      -6.8      3.325      7.643
REMARK  3 active torsions:
REMARK  status: ('A' for Active; 'I' for Inactive)
REMARK    1  A    between atoms: C2_2  and  O1_3 
REMARK    2  A    between atoms: O1_3  and  C3_4 
REMARK    3  A    between atoms: C4_5  and  C5_6 
ROOT
HETATM    1  C5  UNL     1      22.833   2.890  52.316  1.00  0.00     0.111 A 
HETATM    2  C6  UNL     1      23.872   3.674  51.865  1.00  0.00     0.074 A 
HETATM    3  C7  UNL     1      23.205   4.812  51.470  1.00  0.00     0.080 A 
HETATM    4  N1  UNL     1      21.898   4.716  51.663  1.00  0.00    -0.171 NA
HETATM    5  N2  UNL     1      21.659   3.533  52.185  1.00  0.00    -0.251 N 
HETATM    6  C8  UNL     1      20.274   3.204  52.472  1.00  0.00     0.230 C 
HETATM    7  S1  UNL     1      19.204   3.609  51.065  1.00  0.00    -0.120 SA
HETATM    8  C9  UNL     1      19.559   2.606  49.629  1.00  0.00     0.046 C 
HETATM    9  C10 UNL     1      20.307   2.881  48.581  1.00  0.00     0.007 C 
HETATM   10  C11 UNL     1      21.029   2.841  47.315  1.00  0.00    -0.002 C 
HETATM   11  C12 UNL     1      21.828   3.485  46.483  1.00  0.00    -0.005 C 
HETATM   12  C13 UNL     1      22.295   4.848  46.815  1.00  0.00     0.175 C 
HETATM   13  N3  UNL     1      21.877   5.823  45.840  1.00  0.00    -0.298 NA
HETATM   14  C14 UNL     1      22.550   6.912  45.808  1.00  0.00     0.110 C 
HETATM   15  C15 UNL     1      23.356   8.111  45.833  1.00  0.00     0.015 C 
HETATM   16  C16 UNL     1      24.371   8.333  46.627  1.00  0.00    -0.022 C 
HETATM   17  C17 UNL     1      25.150   7.691  47.715  1.00  0.00     0.054 C 
HETATM   18  C18 UNL     1      25.103   8.440  48.969  1.00  0.00    -0.023 C 
HETATM   19  C19 UNL     1      24.749   8.324  50.228  1.00  0.00    -0.004 C 
HETATM   20  C20 UNL     1      24.181   7.252  50.992  1.00  0.00     0.002 C 
HETATM   21  C21 UNL     1      23.771   6.018  50.905  1.00  0.00     0.033 C 
ENDROOT
BRANCH   1  22
HETATM   22  C4  UNL     1      23.034   1.562  52.847  1.00  0.00    -0.017 C 
HETATM   23  C3  UNL     1      23.217   0.461  53.305  1.00  0.00     0.061 C 
BRANCH  23  24
HETATM   24  O1  UNL     1      23.445  -0.796  53.837  1.00  0.00    -0.304 OA
BRANCH  24  25
HETATM   25  C2  UNL     1      22.652  -1.254  54.941  1.00  0.00     0.183 C 
HETATM   26  C1  UNL     1      21.241  -1.542  54.437  1.00  0.00     0.035 C 
ENDBRANCH  24  25
ENDBRANCH  23  24
ENDBRANCH   1  22
TORSDOF 3
ENDMDL
MODEL 5
REMARK VINA RESULT:      -6.8      8.681     12.428
REMARK  3 active torsions:
REMARK  status: ('A' for Active; 'I' for Inactive)
REMARK    1  A    between atoms: C2_2  and  O1_3 
REMARK    2  A    between atoms: O1_3  and  C3_4 
REMARK    3  A    between atoms: C4_5  and  C5_6 
ROOT
HETATM    1  C5  UNL     1      33.301   6.686  48.140  1.00  0.00     0.111 A 
HETATM    2  C6  UNL     1      32.201   6.369  48.907  1.00  0.00     0.074 A 
HETATM    3  C7  UNL     1      31.172   6.636  48.032  1.00  0.00     0.080 A 
HETATM    4  N1  UNL     1      31.612   7.071  46.861  1.00  0.00    -0.171 NA
HETATM    5  N2  UNL     1      32.926   7.105  46.918  1.00  0.00    -0.251 N 
HETATM    6  C8  UNL     1      33.627   7.569  45.734  1.00  0.00     0.230 C 
HETATM    7  S1  UNL     1      32.887   9.095  45.094  1.00  0.00    -0.120 SA
HETATM    8  C9  UNL     1      33.071  10.467  46.224  1.00  0.00     0.046 C 
HETATM    9  C10 UNL     1      32.220  10.940  47.110  1.00  0.00     0.007 C 
HETATM   10  C11 UNL     1      31.556  11.708  48.157  1.00  0.00    -0.002 C 
HETATM   11  C12 UNL     1      30.464  11.861  48.885  1.00  0.00    -0.005 C 
HETATM   12  C13 UNL     1      29.315  10.951  48.692  1.00  0.00     0.175 C 
HETATM   13  N3  UNL     1      28.125  11.650  48.279  1.00  0.00    -0.298 NA
HETATM   14  C14 UNL     1      27.016  11.043  48.482  1.00  0.00     0.110 C 
HETATM   15  C15 UNL     1      25.807  10.296  48.743  1.00  0.00     0.015 C 
HETATM   16  C16 UNL     1      25.744   9.115  49.301  1.00  0.00    -0.022 C 
HETATM   17  C17 UNL     1      26.616   8.059  49.873  1.00  0.00     0.054 C 
HETATM   18  C18 UNL     1      26.511   6.786  49.164  1.00  0.00    -0.023 C 
HETATM   19  C19 UNL     1      27.232   5.913  48.498  1.00  0.00    -0.004 C 
HETATM   20  C20 UNL     1      28.621   5.851  48.149  1.00  0.00     0.002 C 
HETATM   21  C21 UNL     1      29.751   6.489  48.267  1.00  0.00     0.033 C 
ENDROOT
BRANCH   1  22
HETATM   22  C4  UNL     1      34.654   6.566  48.632  1.00  0.00    -0.017 C 
HETATM   23  C3  UNL     1      35.789   6.457  49.025  1.00  0.00     0.061 C 
BRANCH  23  24
HETATM   24  O1  UNL     1      37.095   6.318  49.460  1.00  0.00    -0.304 OA
BRANCH  24  25
HETATM   25  C2  UNL     1      37.974   7.451  49.442  1.00  0.00     0.183 C 
HETATM   26  C1  UNL     1      39.222   7.110  50.250  1.00  0.00     0.035 C 
ENDBRANCH  24  25
ENDBRANCH  23  24
ENDBRANCH   1  22
TORSDOF 3
ENDMDL
MODEL 6
REMARK VINA RESULT:      -6.8      5.583      7.825
REMARK  3 active torsions:
REMARK  status: ('A' for Active; 'I' for Inactive)
REMARK    1  A    between atoms: C2_2  and  O1_3 
REMARK    2  A    between atoms: O1_3  and  C3_4 
REMARK    3  A    between atoms: C4_5  and  C5_6 
ROOT
HETATM    1  C5  UNL     1      15.437   3.209  51.523  1.00  0.00     0.111 A 
HETATM    2  C6  UNL     1      16.497   4.006  51.893  1.00  0.00     0.074 A 
HETATM    3  C7  UNL     1      17.462   3.615  50.992  1.00  0.00     0.080 A 
HETATM    4  N1  UNL     1      17.022   2.677  50.167  1.00  0.00    -0.171 NA
HETATM    5  N2  UNL     1      15.773   2.419  50.487  1.00  0.00    -0.251 N 
HETATM    6  C8  UNL     1      15.088   1.401  49.711  1.00  0.00     0.230 C 
HETATM    7  S1  UNL     1      16.114  -0.083  49.534  1.00  0.00    -0.120 SA
HETATM    8  C9  UNL     1      16.401  -0.902  51.096  1.00  0.00     0.046 C 
HETATM    9  C10 UNL     1      17.434  -0.815  51.909  1.00  0.00     0.007 C 
HETATM   10  C11 UNL     1      18.376  -0.964  53.011  1.00  0.00    -0.002 C 
HETATM   11  C12 UNL     1      19.543  -0.606  53.517  1.00  0.00    -0.005 C 
HETATM   12  C13 UNL     1      20.400   0.354  52.789  1.00  0.00     0.175 C 
HETATM   13  N3  UNL     1      21.676  -0.211  52.432  1.00  0.00    -0.298 NA
HETATM   14  C14 UNL     1      22.613   0.624  52.182  1.00  0.00     0.110 C 
HETATM   15  C15 UNL     1      23.617   1.628  51.914  1.00  0.00     0.015 C 
HETATM   16  C16 UNL     1      23.440   2.923  51.984  1.00  0.00    -0.022 C 
HETATM   17  C17 UNL     1      22.398   3.932  52.295  1.00  0.00     0.054 C 
HETATM   18  C18 UNL     1      22.104   4.814  51.168  1.00  0.00    -0.023 C 
HETATM   19  C19 UNL     1      21.121   5.198  50.387  1.00  0.00    -0.004 C 
HETATM   20  C20 UNL     1      19.732   4.852  50.317  1.00  0.00     0.002 C 
HETATM   21  C21 UNL     1      18.817   4.110  50.876  1.00  0.00     0.033 C 
ENDROOT
BRANCH   1  22
HETATM   22  C4  UNL     1      14.157   3.255  52.193  1.00  0.00    -0.017 C 
HETATM   23  C3  UNL     1      13.099   3.303  52.768  1.00  0.00     0.061 C 
BRANCH  23  24
HETATM   24  O1  UNL     1      11.895   3.359  53.448  1.00  0.00    -0.304 OA
BRANCH  24  25
HETATM   25  C2  UNL     1      11.892   3.513  54.874  1.00  0.00     0.183 C 
HETATM   26  C1  UNL     1      11.645   2.148  55.508  1.00  0.00     0.035 C 
ENDBRANCH  24  25
ENDBRANCH  23  24
ENDBRANCH   1  22
TORSDOF 3
ENDMDL
MODEL 7
REMARK VINA RESULT:      -6.7      5.149      8.007
REMARK  3 active torsions:
REMARK  status: ('A' for Active; 'I' for Inactive)
REMARK    1  A    between atoms: C2_2  and  O1_3 
REMARK    2  A    between atoms: O1_3  and  C3_4 
REMARK    3  A    between atoms: C4_5  and  C5_6 
ROOT
HETATM    1  C5  UNL     1      26.745   9.104  48.455  1.00  0.00     0.111 A 
HETATM    2  C6  UNL     1      27.056   8.077  49.318  1.00  0.00     0.074 A 
HETATM    3  C7  UNL     1      26.434   7.010  48.710  1.00  0.00     0.080 A 
HETATM    4  N1  UNL     1      25.812   7.365  47.595  1.00  0.00    -0.171 NA
HETATM    5  N2  UNL     1      25.999   8.656  47.430  1.00  0.00    -0.251 N 
HETATM    6  C8  UNL     1      25.388   9.268  46.263  1.00  0.00     0.230 C 
HETATM    7  S1  UNL     1      23.657   8.755  46.089  1.00  0.00    -0.120 SA
HETATM    8  C9  UNL     1      22.634   9.348  47.429  1.00  0.00     0.046 C 
HETATM    9  C10 UNL     1      22.253   8.729  48.527  1.00  0.00     0.007 C 
HETATM   10  C11 UNL     1      21.656   8.371  49.809  1.00  0.00    -0.002 C 
HETATM   11  C12 UNL     1      21.508   7.436  50.730  1.00  0.00    -0.005 C 
HETATM   12  C13 UNL     1      22.156   6.118  50.556  1.00  0.00     0.175 C 
HETATM   13  N3  UNL     1      21.203   5.040  50.508  1.00  0.00    -0.298 NA
HETATM   14  C14 UNL     1      21.658   3.873  50.771  1.00  0.00     0.110 C 
HETATM   15  C15 UNL     1      22.246   2.589  51.077  1.00  0.00     0.015 C 
HETATM   16  C16 UNL     1      23.501   2.376  51.382  1.00  0.00    -0.022 C 
HETATM   17  C17 UNL     1      24.784   3.099  51.565  1.00  0.00     0.054 C 
HETATM   18  C18 UNL     1      25.823   2.658  50.637  1.00  0.00    -0.023 C 
HETATM   19  C19 UNL     1      26.618   3.103  49.691  1.00  0.00    -0.004 C 
HETATM   20  C20 UNL     1      26.815   4.395  49.102  1.00  0.00     0.002 C 
HETATM   21  C21 UNL     1      26.407   5.632  49.152  1.00  0.00     0.033 C 
ENDROOT
BRANCH   1  22
HETATM   22  C4  UNL     1      27.188  10.463  48.670  1.00  0.00    -0.017 C 
HETATM   23  C3  UNL     1      27.556  11.600  48.829  1.00  0.00     0.061 C 
BRANCH  23  24
HETATM   24  O1  UNL     1      27.985  12.906  48.991  1.00  0.00    -0.304 OA
BRANCH  24  25
HETATM   25  C2  UNL     1      29.225  13.322  48.403  1.00  0.00     0.183 C 
HETATM   26  C1  UNL     1      30.351  12.482  48.998  1.00  0.00     0.035 C 
ENDBRANCH  24  25
ENDBRANCH  23  24
ENDBRANCH   1  22
TORSDOF 3
ENDMDL
MODEL 8
REMARK VINA RESULT:      -6.5      3.451      8.130
REMARK  3 active torsions:
REMARK  status: ('A' for Active; 'I' for Inactive)
REMARK    1  A    between atoms: C2_2  and  O1_3 
REMARK    2  A    between atoms: O1_3  and  C3_4 
REMARK    3  A    between atoms: C4_5  and  C5_6 
ROOT
HETATM    1  C5  UNL     1      23.412   3.663  52.490  1.00  0.00     0.111 A 
HETATM    2  C6  UNL     1      23.553   4.919  51.940  1.00  0.00     0.074 A 
HETATM    3  C7  UNL     1      22.275   5.166  51.491  1.00  0.00     0.080 A 
HETATM    4  N1  UNL     1      21.454   4.157  51.745  1.00  0.00    -0.171 NA
HETATM    5  N2  UNL     1      22.147   3.225  52.361  1.00  0.00    -0.251 N 
HETATM    6  C8  UNL     1      21.442   2.010  52.728  1.00  0.00     0.230 C 
HETATM    7  S1  UNL     1      20.455   1.386  51.341  1.00  0.00    -0.120 SA
HETATM    8  C9  UNL     1      21.470   0.855  49.969  1.00  0.00     0.046 C 
HETATM    9  C10 UNL     1      21.801   1.505  48.873  1.00  0.00     0.007 C 
HETATM   10  C11 UNL     1      22.353   1.907  47.585  1.00  0.00    -0.002 C 
HETATM   11  C12 UNL     1      22.443   2.861  46.676  1.00  0.00    -0.005 C 
HETATM   12  C13 UNL     1      21.750   4.150  46.887  1.00  0.00     0.175 C 
HETATM   13  N3  UNL     1      20.776   4.424  45.862  1.00  0.00    -0.298 NA
HETATM   14  C14 UNL     1      20.434   5.649  45.722  1.00  0.00     0.110 C 
HETATM   15  C15 UNL     1      20.099   7.052  45.626  1.00  0.00     0.015 C 
HETATM   16  C16 UNL     1      20.605   8.010  46.360  1.00  0.00    -0.022 C 
HETATM   17  C17 UNL     1      21.576   8.234  47.458  1.00  0.00     0.054 C 
HETATM   18  C18 UNL     1      20.963   8.806  48.654  1.00  0.00    -0.023 C 
HETATM   19  C19 UNL     1      20.775   8.569  49.932  1.00  0.00    -0.004 C 
HETATM   20  C20 UNL     1      21.157   7.490  50.796  1.00  0.00     0.002 C 
HETATM   21  C21 UNL     1      21.788   6.350  50.816  1.00  0.00     0.033 C 
ENDROOT
BRANCH   1  22
HETATM   22  C4  UNL     1      24.511   2.957  53.108  1.00  0.00    -0.017 C 
HETATM   23  C3  UNL     1      25.427   2.354  53.609  1.00  0.00     0.061 C 
BRANCH  23  24
HETATM   24  O1  UNL     1      26.472   1.643  54.173  1.00  0.00    -0.304 OA
BRANCH  24  25
HETATM   25  C2  UNL     1      27.512   1.124  53.332  1.00  0.00     0.183 C 
HETATM   26  C1  UNL     1      26.931   0.001  52.479  1.00  0.00     0.035 C 
ENDBRANCH  24  25
ENDBRANCH  23  24
ENDBRANCH   1  22
TORSDOF 3
ENDMDL
MODEL 9
REMARK VINA RESULT:      -6.4      3.639      6.452
REMARK  3 active torsions:
REMARK  status: ('A' for Active; 'I' for Inactive)
REMARK    1  A    between atoms: C2_2  and  O1_3 
REMARK    2  A    between atoms: O1_3  and  C3_4 
REMARK    3  A    between atoms: C4_5  and  C5_6 
ROOT
HETATM    1  C5  UNL     1      18.641   4.182  50.435  1.00  0.00     0.111 A 
HETATM    2  C6  UNL     1      19.372   5.295  50.080  1.00  0.00     0.074 A 
HETATM    3  C7  UNL     1      20.270   4.758  49.185  1.00  0.00     0.080 A 
HETATM    4  N1  UNL     1      20.094   3.455  49.022  1.00  0.00    -0.171 NA
HETATM    5  N2  UNL     1      19.090   3.091  49.790  1.00  0.00    -0.251 N 
HETATM    6  C8  UNL     1      18.726   1.685  49.779  1.00  0.00     0.230 C 
HETATM    7  S1  UNL     1      20.191   0.631  49.948  1.00  0.00    -0.120 SA
HETATM    8  C9  UNL     1      20.986   0.821  51.537  1.00  0.00     0.046 C 
HETATM    9  C10 UNL     1      22.019   1.565  51.872  1.00  0.00     0.007 C 
HETATM   10  C11 UNL     1      23.099   2.240  52.581  1.00  0.00    -0.002 C 
HETATM   11  C12 UNL     1      24.111   3.085  52.498  1.00  0.00    -0.005 C 
HETATM   12  C13 UNL     1      24.436   3.723  51.204  1.00  0.00     0.175 C 
HETATM   13  N3  UNL     1      25.764   3.398  50.751  1.00  0.00    -0.298 NA
HETATM   14  C14 UNL     1      26.277   4.196  49.891  1.00  0.00     0.110 C 
HETATM   15  C15 UNL     1      26.787   5.140  48.924  1.00  0.00     0.015 C 
HETATM   16  C16 UNL     1      26.156   6.198  48.483  1.00  0.00    -0.022 C 
HETATM   17  C17 UNL     1      24.872   6.925  48.636  1.00  0.00     0.054 C 
HETATM   18  C18 UNL     1      24.111   7.006  47.391  1.00  0.00    -0.023 C 
HETATM   19  C19 UNL     1      22.953   6.677  46.865  1.00  0.00    -0.004 C 
HETATM   20  C20 UNL     1      21.796   6.007  47.383  1.00  0.00     0.002 C 
HETATM   21  C21 UNL     1      21.313   5.449  48.457  1.00  0.00     0.033 C 
ENDROOT
BRANCH   1  22
HETATM   22  C4  UNL     1      17.547   4.238  51.378  1.00  0.00    -0.017 C 
HETATM   23  C3  UNL     1      16.649   4.288  52.180  1.00  0.00     0.061 C 
BRANCH  23  24
HETATM   24  O1  UNL     1      15.632   4.341  53.117  1.00  0.00    -0.304 OA
BRANCH  24  25
HETATM   25  C2  UNL     1      14.421   3.606  52.892  1.00  0.00     0.183 C 
HETATM   26  C1  UNL     1      13.294   4.276  53.673  1.00  0.00     0.035 C 
ENDBRANCH  24  25
ENDBRANCH  23  24
ENDBRANCH   1  22
TORSDOF 3
ENDMDL
