MODEL 1
REMARK VINA RESULT:      -7.7      0.000      0.000
REMARK  3 active torsions:
REMARK  status: ('A' for Active; 'I' for Inactive)
REMARK    1  A    between atoms: C2_2  and  C3_3 
REMARK    2  A    between atoms: C3_3  and  C4_4 
REMARK    3  A    between atoms: N1_8  and  C8_9 
ROOT
HETATM    1  C4  UNL     1      28.452  -0.061  53.905  1.00  0.00     0.030 C 
HETATM    2  C5  UNL     1      27.435   0.240  54.746  1.00  0.00     0.008 C 
HETATM    3  C6  UNL     1      26.054   0.596  55.164  1.00  0.00     0.100 C 
HETATM    4  C7  UNL     1      25.259   0.661  54.045  1.00  0.00     0.099 C 
HETATM    5  N1  UNL     1      23.954   0.910  53.456  1.00  0.00    -0.269 N 
HETATM    6  N2  UNL     1      24.022   2.148  52.686  1.00  0.00    -0.188 NA
HETATM    7  C14 UNL     1      25.147   2.191  51.968  1.00  0.00     0.117 C 
HETATM    8  C15 UNL     1      26.470   1.873  51.341  1.00  0.00     0.095 C 
HETATM    9  C16 UNL     1      27.467   1.545  52.420  1.00  0.00     0.095 C 
HETATM   10  N3  UNL     1      27.507   0.301  52.857  1.00  0.00    -0.270 NA
ENDROOT
BRANCH   5  11
HETATM   11  C8  UNL     1      22.749   0.126  53.579  1.00  0.00     0.054 A 
HETATM   12  C9  UNL     1      22.825  -0.922  54.459  1.00  0.00     0.034 A 
HETATM   13  C10 UNL     1      21.638  -1.657  54.558  1.00  0.00     0.046 A 
HETATM   14  C11 UNL     1      20.519  -1.300  53.799  1.00  0.00     0.138 A 
HETATM   15  F1  UNL     1      19.369  -2.038  53.915  1.00  0.00    -0.204 F 
HETATM   16  C12 UNL     1      20.553  -0.205  52.927  1.00  0.00     0.074 A 
HETATM   17 CL1  UNL     1      19.159   0.253  51.971  1.00  0.00    -0.081 Cl
HETATM   18  C13 UNL     1      21.714   0.555  52.798  1.00  0.00     0.058 A 
ENDBRANCH   5  11
BRANCH   1  19
HETATM   19  C3  UNL     1      29.763  -0.417  53.313  1.00  0.00     0.058 C 
BRANCH  19  20
HETATM   20  C2  UNL     1      30.064  -1.860  53.696  1.00  0.00     0.002 C 
HETATM   21  C1  UNL     1      28.930  -2.746  53.168  1.00  0.00     0.005 C 
ENDBRANCH  19  20
ENDBRANCH   1  19
TORSDOF 3
ENDMDL
MODEL 2
REMARK VINA RESULT:      -7.6      4.052      6.988
REMARK  3 active torsions:
REMARK  status: ('A' for Active; 'I' for Inactive)
REMARK    1  A    between atoms: C2_2  and  C3_3 
REMARK    2  A    between atoms: C3_3  and  C4_4 
REMARK    3  A    between atoms: N1_8  and  C8_9 
ROOT
HETATM    1  C4  UNL     1      22.064   2.566  50.712  1.00  0.00     0.030 C 
HETATM    2  C5  UNL     1      22.919   2.914  51.702  1.00  0.00     0.008 C 
HETATM    3  C6  UNL     1      23.918   2.728  52.787  1.00  0.00     0.100 C 
HETATM    4  C7  UNL     1      24.208   1.388  52.892  1.00  0.00     0.099 C 
HETATM    5  N1  UNL     1      24.938   0.319  53.552  1.00  0.00    -0.269 N 
HETATM    6  N2  UNL     1      23.989  -0.491  54.309  1.00  0.00    -0.188 NA
HETATM    7  C14 UNL     1      22.890  -0.720  53.587  1.00  0.00     0.117 C 
HETATM    8  C15 UNL     1      21.859  -0.752  52.499  1.00  0.00     0.095 C 
HETATM    9  C16 UNL     1      21.546   0.657  52.068  1.00  0.00     0.095 C 
HETATM   10  N3  UNL     1      22.325   1.204  51.155  1.00  0.00    -0.270 NA
ENDROOT
BRANCH   5  11
HETATM   11  C8  UNL     1      26.356   0.049  53.526  1.00  0.00     0.054 A 
HETATM   12  C9  UNL     1      26.706  -1.167  52.998  1.00  0.00     0.034 A 
HETATM   13  C10 UNL     1      28.086  -1.394  52.984  1.00  0.00     0.046 A 
HETATM   14  C11 UNL     1      28.968  -0.427  53.478  1.00  0.00     0.138 A 
HETATM   15  F1  UNL     1      30.317  -0.675  53.451  1.00  0.00    -0.204 F 
HETATM   16  C12 UNL     1      28.499   0.786  53.996  1.00  0.00     0.074 A 
HETATM   17 CL1  UNL     1      29.591   2.004  54.617  1.00  0.00    -0.081 Cl
HETATM   18  C13 UNL     1      27.131   1.053  54.029  1.00  0.00     0.058 A 
ENDBRANCH   5  11
BRANCH   1  19
HETATM   19  C3  UNL     1      21.074   2.566  49.609  1.00  0.00     0.058 C 
BRANCH  19  20
HETATM   20  C2  UNL     1      21.524   1.529  48.589  1.00  0.00     0.002 C 
HETATM   21  C1  UNL     1      22.469   2.209  47.592  1.00  0.00     0.005 C 
ENDBRANCH  19  20
ENDBRANCH   1  19
TORSDOF 3
ENDMDL
MODEL 3
REMARK VINA RESULT:      -7.6      3.502      4.666
REMARK  3 active torsions:
REMARK  status: ('A' for Active; 'I' for Inactive)
REMARK    1  A    between atoms: C2_2  and  C3_3 
REMARK    2  A    between atoms: C3_3  and  C4_4 
REMARK    3  A    between atoms: N1_8  and  C8_9 
ROOT
HETATM    1  C4  UNL     1      27.743   0.597  53.445  1.00  0.00     0.030 C 
HETATM    2  C5  UNL     1      27.256   1.060  52.270  1.00  0.00     0.008 C 
HETATM    3  C6  UNL     1      26.251   1.575  51.303  1.00  0.00     0.100 C 
HETATM    4  C7  UNL     1      25.041   1.687  51.945  1.00  0.00     0.099 C 
HETATM    5  N1  UNL     1      23.629   2.029  51.894  1.00  0.00    -0.269 N 
HETATM    6  N2  UNL     1      22.851   0.801  52.025  1.00  0.00    -0.188 NA
HETATM    7  C14 UNL     1      23.360   0.025  52.983  1.00  0.00     0.117 C 
HETATM    8  C15 UNL     1      24.201  -0.538  54.089  1.00  0.00     0.095 C 
HETATM    9  C16 UNL     1      25.645  -0.546  53.662  1.00  0.00     0.095 C 
HETATM   10  N3  UNL     1      26.344   0.557  53.848  1.00  0.00    -0.270 NA
ENDROOT
BRANCH   5  11
HETATM   11  C8  UNL     1      23.025   3.328  51.727  1.00  0.00     0.054 A 
HETATM   12  C9  UNL     1      21.654   3.336  51.735  1.00  0.00     0.034 A 
HETATM   13  C10 UNL     1      21.101   4.612  51.575  1.00  0.00     0.046 A 
HETATM   14  C11 UNL     1      21.929   5.729  51.427  1.00  0.00     0.138 A 
HETATM   15  F1  UNL     1      21.360   6.967  51.273  1.00  0.00    -0.204 F 
HETATM   16  C12 UNL     1      23.323   5.605  51.435  1.00  0.00     0.074 A 
HETATM   17 CL1  UNL     1      24.371   6.995  51.250  1.00  0.00    -0.081 Cl
HETATM   18  C13 UNL     1      23.916   4.353  51.591  1.00  0.00     0.058 A 
ENDBRANCH   5  11
BRANCH   1  19
HETATM   19  C3  UNL     1      28.606   0.081  54.534  1.00  0.00     0.058 C 
BRANCH  19  20
HETATM   20  C2  UNL     1      29.791  -0.623  53.885  1.00  0.00     0.002 C 
HETATM   21  C1  UNL     1      29.295  -1.936  53.268  1.00  0.00     0.005 C 
ENDBRANCH  19  20
ENDBRANCH   1  19
TORSDOF 3
ENDMDL
MODEL 4
REMARK VINA RESULT:      -7.5      4.190      6.915
REMARK  3 active torsions:
REMARK  status: ('A' for Active; 'I' for Inactive)
REMARK    1  A    between atoms: C2_2  and  C3_3 
REMARK    2  A    between atoms: C3_3  and  C4_4 
REMARK    3  A    between atoms: N1_8  and  C8_9 
ROOT
HETATM    1  C4  UNL     1      24.011   3.606  49.012  1.00  0.00     0.030 C 
HETATM    2  C5  UNL     1      25.301   3.478  49.402  1.00  0.00     0.008 C 
HETATM    3  C6  UNL     1      26.447   3.061  50.251  1.00  0.00     0.100 C 
HETATM    4  C7  UNL     1      25.966   2.335  51.314  1.00  0.00     0.099 C 
HETATM    5  N1  UNL     1      26.224   1.599  52.540  1.00  0.00    -0.269 N 
HETATM    6  N2  UNL     1      25.695   2.368  53.662  1.00  0.00    -0.188 NA
HETATM    7  C14 UNL     1      24.489   2.856  53.366  1.00  0.00     0.117 C 
HETATM    8  C15 UNL     1      23.205   3.211  52.678  1.00  0.00     0.095 C 
HETATM    9  C16 UNL     1      23.512   3.843  51.347  1.00  0.00     0.095 C 
HETATM   10  N3  UNL     1      23.706   3.040  50.319  1.00  0.00    -0.270 NA
ENDROOT
BRANCH   5  11
HETATM   11  C8  UNL     1      26.896   0.332  52.703  1.00  0.00     0.054 A 
HETATM   12  C9  UNL     1      26.162  -0.766  52.338  1.00  0.00     0.034 A 
HETATM   13  C10 UNL     1      26.844  -1.976  52.504  1.00  0.00     0.046 A 
HETATM   14  C11 UNL     1      28.152  -1.989  53.002  1.00  0.00     0.138 A 
HETATM   15  F1  UNL     1      28.797  -3.190  53.155  1.00  0.00    -0.204 F 
HETATM   16  C12 UNL     1      28.809  -0.802  53.345  1.00  0.00     0.074 A 
HETATM   17 CL1  UNL     1      30.445  -0.804  53.969  1.00  0.00    -0.081 Cl
HETATM   18  C13 UNL     1      28.166   0.426  53.195  1.00  0.00     0.058 A 
ENDBRANCH   5  11
BRANCH   1  19
HETATM   19  C3  UNL     1      22.759   3.934  48.290  1.00  0.00     0.058 C 
BRANCH  19  20
HETATM   20  C2  UNL     1      22.284   2.665  47.595  1.00  0.00     0.002 C 
HETATM   21  C1  UNL     1      20.905   2.296  48.153  1.00  0.00     0.005 C 
ENDBRANCH  19  20
ENDBRANCH   1  19
TORSDOF 3
ENDMDL
MODEL 5
REMARK VINA RESULT:      -7.4      3.756      5.397
REMARK  3 active torsions:
REMARK  status: ('A' for Active; 'I' for Inactive)
REMARK    1  A    between atoms: C2_2  and  C3_3 
REMARK    2  A    between atoms: C3_3  and  C4_4 
REMARK    3  A    between atoms: N1_8  and  C8_9 
ROOT
HETATM    1  C4  UNL     1      24.906   5.236  50.055  1.00  0.00     0.030 C 
HETATM    2  C5  UNL     1      24.057   5.076  51.097  1.00  0.00     0.008 C 
HETATM    3  C6  UNL     1      23.088   4.390  51.990  1.00  0.00     0.100 C 
HETATM    4  C7  UNL     1      22.908   3.105  51.539  1.00  0.00     0.099 C 
HETATM    5  N1  UNL     1      22.254   1.815  51.678  1.00  0.00    -0.269 N 
HETATM    6  N2  UNL     1      21.324   1.644  50.566  1.00  0.00    -0.188 NA
HETATM    7  C14 UNL     1      21.888   2.036  49.421  1.00  0.00     0.117 C 
HETATM    8  C15 UNL     1      22.839   2.556  48.385  1.00  0.00     0.095 C 
HETATM    9  C16 UNL     1      23.344   3.910  48.807  1.00  0.00     0.095 C 
HETATM   10  N3  UNL     1      24.386   3.948  49.615  1.00  0.00    -0.270 NA
ENDROOT
BRANCH   5  11
HETATM   11  C8  UNL     1      22.426   0.827  52.716  1.00  0.00     0.054 A 
HETATM   12  C9  UNL     1      21.263   0.356  53.268  1.00  0.00     0.034 A 
HETATM   13  C10 UNL     1      21.466  -0.603  54.267  1.00  0.00     0.046 A 
HETATM   14  C11 UNL     1      22.762  -0.997  54.617  1.00  0.00     0.138 A 
HETATM   15  F1  UNL     1      22.932  -1.939  55.599  1.00  0.00    -0.204 F 
HETATM   16  C12 UNL     1      23.883  -0.448  53.984  1.00  0.00     0.074 A 
HETATM   17 CL1  UNL     1      25.510  -0.932  54.413  1.00  0.00    -0.081 Cl
HETATM   18  C13 UNL     1      23.727   0.510  52.984  1.00  0.00     0.058 A 
ENDBRANCH   5  11
BRANCH   1  19
HETATM   19  C3  UNL     1      25.879   5.760  49.067  1.00  0.00     0.058 C 
BRANCH  19  20
HETATM   20  C2  UNL     1      26.942   4.690  48.857  1.00  0.00     0.002 C 
HETATM   21  C1  UNL     1      28.251   5.381  48.459  1.00  0.00     0.005 C 
ENDBRANCH  19  20
ENDBRANCH   1  19
TORSDOF 3
ENDMDL
MODEL 6
REMARK VINA RESULT:      -7.2      2.022      2.955
REMARK  3 active torsions:
REMARK  status: ('A' for Active; 'I' for Inactive)
REMARK    1  A    between atoms: C2_2  and  C3_3 
REMARK    2  A    between atoms: C3_3  and  C4_4 
REMARK    3  A    between atoms: N1_8  and  C8_9 
ROOT
HETATM    1  C4  UNL     1      25.953  -0.559  53.136  1.00  0.00     0.030 C 
HETATM    2  C5  UNL     1      24.795  -0.475  53.830  1.00  0.00     0.008 C 
HETATM    3  C6  UNL     1      23.390  -0.088  54.123  1.00  0.00     0.100 C 
HETATM    4  C7  UNL     1      22.894   0.612  53.049  1.00  0.00     0.099 C 
HETATM    5  N1  UNL     1      21.796   1.336  52.432  1.00  0.00    -0.269 N 
HETATM    6  N2  UNL     1      22.153   2.749  52.362  1.00  0.00    -0.188 NA
HETATM    7  C14 UNL     1      23.416   2.892  51.955  1.00  0.00     0.117 C 
HETATM    8  C15 UNL     1      24.819   2.642  51.491  1.00  0.00     0.095 C 
HETATM    9  C16 UNL     1      25.496   1.690  52.441  1.00  0.00     0.095 C 
HETATM   10  N3  UNL     1      25.322   0.398  52.239  1.00  0.00    -0.270 NA
ENDROOT
BRANCH   5  11
HETATM   11  C8  UNL     1      20.533   0.821  51.961  1.00  0.00     0.054 A 
HETATM   12  C9  UNL     1      20.161   1.247  50.712  1.00  0.00     0.034 A 
HETATM   13  C10 UNL     1      18.935   0.726  50.284  1.00  0.00     0.046 A 
HETATM   14  C11 UNL     1      18.210  -0.144  51.106  1.00  0.00     0.138 A 
HETATM   15  F1  UNL     1      17.012  -0.641  50.661  1.00  0.00    -0.204 F 
HETATM   16  C12 UNL     1      18.687  -0.515  52.369  1.00  0.00     0.074 A 
HETATM   17 CL1  UNL     1      17.790  -1.602  53.407  1.00  0.00    -0.081 Cl
HETATM   18  C13 UNL     1      19.904  -0.019  52.834  1.00  0.00     0.058 A 
ENDBRANCH   5  11
BRANCH   1  19
HETATM   19  C3  UNL     1      27.332  -0.856  52.682  1.00  0.00     0.058 C 
BRANCH  19  20
HETATM   20  C2  UNL     1      28.275  -0.528  53.833  1.00  0.00     0.002 C 
HETATM   21  C1  UNL     1      29.669  -1.061  53.483  1.00  0.00     0.005 C 
ENDBRANCH  19  20
ENDBRANCH   1  19
TORSDOF 3
ENDMDL
MODEL 7
REMARK VINA RESULT:      -7.0      4.986      7.393
REMARK  3 active torsions:
REMARK  status: ('A' for Active; 'I' for Inactive)
REMARK    1  A    between atoms: C2_2  and  C3_3 
REMARK    2  A    between atoms: C3_3  and  C4_4 
REMARK    3  A    between atoms: N1_8  and  C8_9 
ROOT
HETATM    1  C4  UNL     1      22.321   0.600  53.433  1.00  0.00     0.030 C 
HETATM    2  C5  UNL     1      23.543   0.864  52.914  1.00  0.00     0.008 C 
HETATM    3  C6  UNL     1      24.553   1.490  52.021  1.00  0.00     0.100 C 
HETATM    4  C7  UNL     1      23.914   2.373  51.185  1.00  0.00     0.099 C 
HETATM    5  N1  UNL     1      23.984   3.335  50.098  1.00  0.00    -0.269 N 
HETATM    6  N2  UNL     1      23.330   2.760  48.927  1.00  0.00    -0.188 NA
HETATM    7  C14 UNL     1      22.188   2.163  49.276  1.00  0.00     0.117 C 
HETATM    8  C15 UNL     1      21.019   1.621  50.042  1.00  0.00     0.095 C 
HETATM    9  C16 UNL     1      21.519   0.771  51.179  1.00  0.00     0.095 C 
HETATM   10  N3  UNL     1      21.828   1.381  52.308  1.00  0.00    -0.270 NA
ENDROOT
BRANCH   5  11
HETATM   11  C8  UNL     1      24.594   4.643  50.094  1.00  0.00     0.054 A 
HETATM   12  C9  UNL     1      24.005   5.561  50.925  1.00  0.00     0.034 A 
HETATM   13  C10 UNL     1      24.623   6.816  50.900  1.00  0.00     0.046 A 
HETATM   14  C11 UNL     1      25.733   7.043  50.080  1.00  0.00     0.138 A 
HETATM   15  F1  UNL     1      26.319   8.282  50.075  1.00  0.00    -0.204 F 
HETATM   16  C12 UNL     1      26.253   6.028  49.267  1.00  0.00     0.074 A 
HETATM   17 CL1  UNL     1      27.642   6.299  48.235  1.00  0.00    -0.081 Cl
HETATM   18  C13 UNL     1      25.669   4.763  49.261  1.00  0.00     0.058 A 
ENDBRANCH   5  11
BRANCH   1  19
HETATM   19  C3  UNL     1      21.187   0.079  54.233  1.00  0.00     0.058 C 
BRANCH  19  20
HETATM   20  C2  UNL     1      21.444  -1.401  54.484  1.00  0.00     0.002 C 
HETATM   21  C1  UNL     1      22.701  -1.534  55.350  1.00  0.00     0.005 C 
ENDBRANCH  19  20
ENDBRANCH   1  19
TORSDOF 3
ENDMDL
MODEL 8
REMARK VINA RESULT:      -6.9      4.252      5.948
REMARK  3 active torsions:
REMARK  status: ('A' for Active; 'I' for Inactive)
REMARK    1  A    between atoms: C2_2  and  C3_3 
REMARK    2  A    between atoms: C3_3  and  C4_4 
REMARK    3  A    between atoms: N1_8  and  C8_9 
ROOT
HETATM    1  C4  UNL     1      26.932   0.936  53.393  1.00  0.00     0.030 C 
HETATM    2  C5  UNL     1      27.038   1.496  52.166  1.00  0.00     0.008 C 
HETATM    3  C6  UNL     1      26.626   2.268  50.964  1.00  0.00     0.100 C 
HETATM    4  C7  UNL     1      25.360   2.761  51.171  1.00  0.00     0.099 C 
HETATM    5  N1  UNL     1      24.220   3.516  50.680  1.00  0.00    -0.269 N 
HETATM    6  N2  UNL     1      23.119   2.589  50.441  1.00  0.00    -0.188 NA
HETATM    7  C14 UNL     1      23.014   1.718  51.447  1.00  0.00     0.117 C 
HETATM    8  C15 UNL     1      23.218   0.953  52.720  1.00  0.00     0.095 C 
HETATM    9  C16 UNL     1      24.650   0.493  52.801  1.00  0.00     0.095 C 
HETATM   10  N3  UNL     1      25.534   1.335  53.301  1.00  0.00    -0.270 NA
ENDROOT
BRANCH   5  11
HETATM   11  C8  UNL     1      24.122   4.934  50.428  1.00  0.00     0.054 A 
HETATM   12  C9  UNL     1      25.270   5.521  49.963  1.00  0.00     0.034 A 
HETATM   13  C10 UNL     1      25.139   6.894  49.725  1.00  0.00     0.046 A 
HETATM   14  C11 UNL     1      23.921   7.541  49.962  1.00  0.00     0.138 A 
HETATM   15  F1  UNL     1      23.821   8.887  49.720  1.00  0.00    -0.204 F 
HETATM   16  C12 UNL     1      22.808   6.839  50.439  1.00  0.00     0.074 A 
HETATM   17 CL1  UNL     1      21.279   7.635  50.740  1.00  0.00    -0.081 Cl
HETATM   18  C13 UNL     1      22.895   5.470  50.690  1.00  0.00     0.058 A 
ENDBRANCH   5  11
BRANCH   1  19
HETATM   19  C3  UNL     1      27.175   0.208  54.661  1.00  0.00     0.058 C 
BRANCH  19  20
HETATM   20  C2  UNL     1      28.683   0.116  54.856  1.00  0.00     0.002 C 
HETATM   21  C1  UNL     1      29.248  -0.847  53.806  1.00  0.00     0.005 C 
ENDBRANCH  19  20
ENDBRANCH   1  19
TORSDOF 3
ENDMDL
MODEL 9
REMARK VINA RESULT:      -6.8      4.545      7.241
REMARK  3 active torsions:
REMARK  status: ('A' for Active; 'I' for Inactive)
REMARK    1  A    between atoms: C2_2  and  C3_3 
REMARK    2  A    between atoms: C3_3  and  C4_4 
REMARK    3  A    between atoms: N1_8  and  C8_9 
ROOT
HETATM    1  C4  UNL     1      23.436   5.997  50.229  1.00  0.00     0.030 C 
HETATM    2  C5  UNL     1      23.344   5.546  51.502  1.00  0.00     0.008 C 
HETATM    3  C6  UNL     1      23.392   4.574  52.626  1.00  0.00     0.100 C 
HETATM    4  C7  UNL     1      23.783   3.352  52.133  1.00  0.00     0.099 C 
HETATM    5  N1  UNL     1      24.080   1.949  52.369  1.00  0.00    -0.269 N 
HETATM    6  N2  UNL     1      23.039   1.143  51.739  1.00  0.00    -0.188 NA
HETATM    7  C14 UNL     1      22.755   1.615  50.523  1.00  0.00     0.117 C 
HETATM    8  C15 UNL     1      22.725   2.420  49.258  1.00  0.00     0.095 C 
HETATM    9  C16 UNL     1      22.519   3.872  49.597  1.00  0.00     0.095 C 
HETATM   10  N3  UNL     1      23.587   4.589  49.890  1.00  0.00    -0.270 NA
ENDROOT
BRANCH   5  11
HETATM   11  C8  UNL     1      25.181   1.375  53.104  1.00  0.00     0.054 A 
HETATM   12  C9  UNL     1      24.917   0.166  53.694  1.00  0.00     0.034 A 
HETATM   13  C10 UNL     1      26.007  -0.364  54.394  1.00  0.00     0.046 A 
HETATM   14  C11 UNL     1      27.221   0.328  54.444  1.00  0.00     0.138 A 
HETATM   15  F1  UNL     1      28.273  -0.215  55.137  1.00  0.00    -0.204 F 
HETATM   16  C12 UNL     1      27.380   1.561  53.801  1.00  0.00     0.074 A 
HETATM   17 CL1  UNL     1      28.894   2.438  53.856  1.00  0.00    -0.081 Cl
HETATM   18  C13 UNL     1      26.321   2.126  53.093  1.00  0.00     0.058 A 
ENDBRANCH   5  11
BRANCH   1  19
HETATM   19  C3  UNL     1      23.440   6.824  49.000  1.00  0.00     0.058 C 
BRANCH  19  20
HETATM   20  C2  UNL     1      23.244   8.275  49.422  1.00  0.00     0.002 C 
HETATM   21  C1  UNL     1      21.739   8.555  49.505  1.00  0.00     0.005 C 
ENDBRANCH  19  20
ENDBRANCH   1  19
TORSDOF 3
ENDMDL
