MODEL 1
REMARK VINA RESULT:      -6.9      0.000      0.000
REMARK  5 active torsions:
REMARK  status: ('A' for Active; 'I' for Inactive)
REMARK    1  A    between atoms: O1_2  and  C2_3 
REMARK    2  A    between atoms: C5_6  and  N1_7 
REMARK       I    between atoms: N1_7  and  C6_8 
REMARK    3  A    between atoms: C6_8  and  C7_10 
REMARK    4  A    between atoms: C10_13  and  N2_14 
REMARK    5  A    between atoms: N2_14  and  C12_16 
ROOT
HETATM    1  N1  UNL     1      26.504   3.600  50.791  1.00  0.00    -0.323 N 
HETATM    2  C6  UNL     1      26.097   4.188  49.587  1.00  0.00     0.256 C 
HETATM    3  O2  UNL     1      25.040   3.751  49.059  1.00  0.00    -0.267 OA
HETATM    4  H6  UNL     1      27.392   4.032  51.147  1.00  0.00     0.169 HD
ENDROOT
BRANCH   2   5
HETATM    5  C7  UNL     1      26.805   5.262  48.905  1.00  0.00     0.032 A 
HETATM    6  C8  UNL     1      26.254   6.470  48.535  1.00  0.00     0.019 A 
HETATM    7  C9  UNL     1      26.960   7.462  47.890  1.00  0.00     0.030 A 
HETATM    8  C10 UNL     1      28.291   7.279  47.577  1.00  0.00     0.030 A 
HETATM    9  C13 UNL     1      28.882   6.086  47.929  1.00  0.00     0.030 A 
HETATM   10  C14 UNL     1      28.137   5.121  48.573  1.00  0.00     0.019 A 
BRANCH   8  11
HETATM   11  N2  UNL     1      28.989   8.323  46.913  1.00  0.00    -0.372 N 
HETATM   12  C11 UNL     1      29.393   8.103  45.537  1.00  0.00     0.151 C 
BRANCH  11  13
HETATM   13  C12 UNL     1      29.288   9.572  47.601  1.00  0.00     0.237 C 
HETATM   14 CL1  UNL     1      29.822   9.275  49.272  1.00  0.00    -0.109 Cl
ENDBRANCH  11  13
ENDBRANCH   8  11
ENDBRANCH   2   5
BRANCH   1  15
HETATM   15  C5  UNL     1      25.930   2.569  51.553  1.00  0.00     0.035 A 
HETATM   16  C4  UNL     1      24.790   2.636  52.317  1.00  0.00     0.032 A 
HETATM   17  C3  UNL     1      24.254   1.603  53.054  1.00  0.00     0.039 A 
HETATM   18  C2  UNL     1      24.904   0.387  53.039  1.00  0.00     0.068 A 
HETATM   19  C16 UNL     1      26.053   0.269  52.288  1.00  0.00     0.039 A 
HETATM   20  C15 UNL     1      26.530   1.330  51.581  1.00  0.00     0.032 A 
BRANCH  18  21
HETATM   21  O1  UNL     1      24.387  -0.671  53.772  1.00  0.00    -0.356 OA
HETATM   22  C1  UNL     1      22.977  -0.859  53.900  1.00  0.00     0.210 C 
ENDBRANCH  18  21
ENDBRANCH   1  15
TORSDOF 5
ENDMDL
MODEL 2
REMARK VINA RESULT:      -6.9      7.221      9.828
REMARK  5 active torsions:
REMARK  status: ('A' for Active; 'I' for Inactive)
REMARK    1  A    between atoms: O1_2  and  C2_3 
REMARK    2  A    between atoms: C5_6  and  N1_7 
REMARK       I    between atoms: N1_7  and  C6_8 
REMARK    3  A    between atoms: C6_8  and  C7_10 
REMARK    4  A    between atoms: C10_13  and  N2_14 
REMARK    5  A    between atoms: N2_14  and  C12_16 
ROOT
HETATM    1  N1  UNL     1      23.795   0.319  52.741  1.00  0.00    -0.323 N 
HETATM    2  C6  UNL     1      22.735  -0.272  53.441  1.00  0.00     0.256 C 
HETATM    3  O2  UNL     1      23.011  -0.850  54.526  1.00  0.00    -0.267 OA
HETATM    4  H6  UNL     1      23.462   0.770  51.854  1.00  0.00     0.169 HD
ENDROOT
BRANCH   2   5
HETATM    5  C7  UNL     1      21.346  -0.268  53.006  1.00  0.00     0.032 A 
HETATM    6  C8  UNL     1      20.289  -0.803  53.710  1.00  0.00     0.019 A 
HETATM    7  C9  UNL     1      18.986  -0.778  53.261  1.00  0.00     0.030 A 
HETATM    8  C10 UNL     1      18.678  -0.198  52.048  1.00  0.00     0.030 A 
HETATM    9  C13 UNL     1      19.705   0.349  51.311  1.00  0.00     0.030 A 
HETATM   10  C14 UNL     1      20.993   0.301  51.799  1.00  0.00     0.019 A 
BRANCH   8  11
HETATM   11  N2  UNL     1      17.324  -0.189  51.617  1.00  0.00    -0.372 N 
HETATM   12  C11 UNL     1      16.332  -0.807  52.476  1.00  0.00     0.151 C 
BRANCH  11  13
HETATM   13  C12 UNL     1      16.953   0.422  50.348  1.00  0.00     0.237 C 
HETATM   14 CL1  UNL     1      16.328  -0.790  49.206  1.00  0.00    -0.109 Cl
ENDBRANCH  11  13
ENDBRANCH   8  11
ENDBRANCH   2   5
BRANCH   1  15
HETATM   15  C5  UNL     1      25.166   0.391  53.035  1.00  0.00     0.035 A 
HETATM   16  C4  UNL     1      25.833   1.430  53.637  1.00  0.00     0.032 A 
HETATM   17  C3  UNL     1      27.183   1.468  53.911  1.00  0.00     0.039 A 
HETATM   18  C2  UNL     1      27.950   0.379  53.555  1.00  0.00     0.068 A 
HETATM   19  C16 UNL     1      27.328  -0.689  52.947  1.00  0.00     0.039 A 
HETATM   20  C15 UNL     1      25.988  -0.663  52.705  1.00  0.00     0.032 A 
BRANCH  18  21
HETATM   21  O1  UNL     1      29.312   0.390  53.818  1.00  0.00    -0.356 OA
HETATM   22  C1  UNL     1      30.097  -0.795  53.682  1.00  0.00     0.210 C 
ENDBRANCH  18  21
ENDBRANCH   1  15
TORSDOF 5
ENDMDL
MODEL 3
REMARK VINA RESULT:      -6.5      3.926      8.927
REMARK  5 active torsions:
REMARK  status: ('A' for Active; 'I' for Inactive)
REMARK    1  A    between atoms: O1_2  and  C2_3 
REMARK    2  A    between atoms: C5_6  and  N1_7 
REMARK       I    between atoms: N1_7  and  C6_8 
REMARK    3  A    between atoms: C6_8  and  C7_10 
REMARK    4  A    between atoms: C10_13  and  N2_14 
REMARK    5  A    between atoms: N2_14  and  C12_16 
ROOT
HETATM    1  N1  UNL     1      25.771   4.334  49.435  1.00  0.00    -0.323 N 
HETATM    2  C6  UNL     1      25.886   3.326  50.401  1.00  0.00     0.256 C 
HETATM    3  O2  UNL     1      27.028   3.125  50.892  1.00  0.00    -0.267 OA
HETATM    4  H6  UNL     1      24.784   4.421  49.088  1.00  0.00     0.169 HD
ENDROOT
BRANCH   2   5
HETATM    5  C7  UNL     1      24.786   2.499  50.874  1.00  0.00     0.032 A 
HETATM    6  C8  UNL     1      23.540   2.419  50.290  1.00  0.00     0.019 A 
HETATM    7  C9  UNL     1      22.524   1.622  50.771  1.00  0.00     0.030 A 
HETATM    8  C10 UNL     1      22.720   0.846  51.894  1.00  0.00     0.030 A 
HETATM    9  C13 UNL     1      23.951   0.894  52.509  1.00  0.00     0.030 A 
HETATM   10  C14 UNL     1      24.938   1.707  51.994  1.00  0.00     0.019 A 
BRANCH   8  11
HETATM   11  N2  UNL     1      21.651   0.034  52.362  1.00  0.00    -0.372 N 
HETATM   12  C11 UNL     1      20.324   0.288  51.834  1.00  0.00     0.151 C 
BRANCH  11  13
HETATM   13  C12 UNL     1      21.890  -1.016  53.342  1.00  0.00     0.237 C 
HETATM   14 CL1  UNL     1      21.549  -0.445  54.993  1.00  0.00    -0.109 Cl
ENDBRANCH  11  13
ENDBRANCH   8  11
ENDBRANCH   2   5
BRANCH   1  15
HETATM   15  C5  UNL     1      26.732   5.199  48.887  1.00  0.00     0.035 A 
HETATM   16  C4  UNL     1      28.032   4.898  48.561  1.00  0.00     0.032 A 
HETATM   17  C3  UNL     1      28.950   5.773  48.024  1.00  0.00     0.039 A 
HETATM   18  C2  UNL     1      28.551   7.071  47.788  1.00  0.00     0.068 A 
HETATM   19  C16 UNL     1      27.257   7.425  48.100  1.00  0.00     0.039 A 
HETATM   20  C15 UNL     1      26.397   6.510  48.627  1.00  0.00     0.032 A 
BRANCH  18  21
HETATM   21  O1  UNL     1      29.455   7.975  47.249  1.00  0.00    -0.356 OA
HETATM   22  C1  UNL     1      29.380   9.367  47.562  1.00  0.00     0.210 C 
ENDBRANCH  18  21
ENDBRANCH   1  15
TORSDOF 5
ENDMDL
MODEL 4
REMARK VINA RESULT:      -6.4      1.492      2.290
REMARK  5 active torsions:
REMARK  status: ('A' for Active; 'I' for Inactive)
REMARK    1  A    between atoms: O1_2  and  C2_3 
REMARK    2  A    between atoms: C5_6  and  N1_7 
REMARK       I    between atoms: N1_7  and  C6_8 
REMARK    3  A    between atoms: C6_8  and  C7_10 
REMARK    4  A    between atoms: C10_13  and  N2_14 
REMARK    5  A    between atoms: N2_14  and  C12_16 
ROOT
HETATM    1  N1  UNL     1      25.316   3.328  51.323  1.00  0.00    -0.323 N 
HETATM    2  C6  UNL     1      25.303   3.733  49.982  1.00  0.00     0.256 C 
HETATM    3  O2  UNL     1      24.486   3.161  49.214  1.00  0.00    -0.267 OA
HETATM    4  H6  UNL     1      26.030   3.863  51.877  1.00  0.00     0.169 HD
ENDROOT
BRANCH   2   5
HETATM    5  C7  UNL     1      26.163   4.763  49.416  1.00  0.00     0.032 A 
HETATM    6  C8  UNL     1      27.400   4.546  48.849  1.00  0.00     0.019 A 
HETATM    7  C9  UNL     1      28.183   5.550  48.324  1.00  0.00     0.030 A 
HETATM    8  C10 UNL     1      27.746   6.858  48.347  1.00  0.00     0.030 A 
HETATM    9  C13 UNL     1      26.514   7.121  48.905  1.00  0.00     0.030 A 
HETATM   10  C14 UNL     1      25.765   6.085  49.418  1.00  0.00     0.019 A 
BRANCH   8  11
HETATM   11  N2  UNL     1      28.579   7.869  47.796  1.00  0.00    -0.372 N 
HETATM   12  C11 UNL     1      28.362   9.238  48.224  1.00  0.00     0.151 C 
BRANCH  11  13
HETATM   13  C12 UNL     1      29.614   7.532  46.829  1.00  0.00     0.237 C 
HETATM   14 CL1  UNL     1      29.272   8.256  45.240  1.00  0.00    -0.109 Cl
ENDBRANCH  11  13
ENDBRANCH   8  11
ENDBRANCH   2   5
BRANCH   1  15
HETATM   15  C5  UNL     1      24.557   2.361  52.000  1.00  0.00     0.035 A 
HETATM   16  C4  UNL     1      24.998   1.162  52.505  1.00  0.00     0.032 A 
HETATM   17  C3  UNL     1      24.223   0.233  53.166  1.00  0.00     0.039 A 
HETATM   18  C2  UNL     1      22.885   0.511  53.345  1.00  0.00     0.068 A 
HETATM   19  C16 UNL     1      22.393   1.701  52.855  1.00  0.00     0.039 A 
HETATM   20  C15 UNL     1      23.213   2.577  52.211  1.00  0.00     0.032 A 
BRANCH  18  21
HETATM   21  O1  UNL     1      22.080  -0.406  54.005  1.00  0.00    -0.356 OA
HETATM   22  C1  UNL     1      22.615  -1.258  55.018  1.00  0.00     0.210 C 
ENDBRANCH  18  21
ENDBRANCH   1  15
TORSDOF 5
ENDMDL
MODEL 5
REMARK VINA RESULT:      -6.4      4.521      8.323
REMARK  5 active torsions:
REMARK  status: ('A' for Active; 'I' for Inactive)
REMARK    1  A    between atoms: O1_2  and  C2_3 
REMARK    2  A    between atoms: C5_6  and  N1_7 
REMARK       I    between atoms: N1_7  and  C6_8 
REMARK    3  A    between atoms: C6_8  and  C7_10 
REMARK    4  A    between atoms: C10_13  and  N2_14 
REMARK    5  A    between atoms: N2_14  and  C12_16 
ROOT
HETATM    1  N1  UNL     1      29.548   5.814  48.981  1.00  0.00    -0.323 N 
HETATM    2  C6  UNL     1      28.360   6.135  48.312  1.00  0.00     0.256 C 
HETATM    3  O2  UNL     1      28.439   6.939  47.346  1.00  0.00    -0.267 OA
HETATM    4  H6  UNL     1      29.375   5.141  49.767  1.00  0.00     0.169 HD
ENDROOT
BRANCH   2   5
HETATM    5  C7  UNL     1      27.046   5.609  48.653  1.00  0.00     0.032 A 
HETATM    6  C8  UNL     1      25.859   6.304  48.556  1.00  0.00     0.019 A 
HETATM    7  C9  UNL     1      24.635   5.767  48.890  1.00  0.00     0.030 A 
HETATM    8  C10 UNL     1      24.544   4.471  49.352  1.00  0.00     0.030 A 
HETATM    9  C13 UNL     1      25.706   3.740  49.465  1.00  0.00     0.030 A 
HETATM   10  C14 UNL     1      26.909   4.317  49.119  1.00  0.00     0.019 A 
BRANCH   8  11
HETATM   11  N2  UNL     1      23.265   3.950  49.686  1.00  0.00    -0.372 N 
HETATM   12  C11 UNL     1      22.269   4.870  50.200  1.00  0.00     0.151 C 
BRANCH  11  13
HETATM   13  C12 UNL     1      22.973   2.533  49.516  1.00  0.00     0.237 C 
HETATM   14 CL1  UNL     1      22.552   2.159  47.829  1.00  0.00    -0.109 Cl
ENDBRANCH  11  13
ENDBRANCH   8  11
ENDBRANCH   2   5
BRANCH   1  15
HETATM   15  C5  UNL     1      30.869   6.240  48.766  1.00  0.00     0.035 A 
HETATM   16  C4  UNL     1      31.433   7.429  49.159  1.00  0.00     0.032 A 
HETATM   17  C3  UNL     1      32.735   7.816  48.932  1.00  0.00     0.039 A 
HETATM   18  C2  UNL     1      33.562   6.949  48.250  1.00  0.00     0.068 A 
HETATM   19  C16 UNL     1      33.044   5.743  47.833  1.00  0.00     0.039 A 
HETATM   20  C15 UNL     1      31.746   5.421  48.091  1.00  0.00     0.032 A 
BRANCH  18  21
HETATM   21  O1  UNL     1      34.879   7.312  48.005  1.00  0.00    -0.356 OA
HETATM   22  C1  UNL     1      35.946   6.782  48.792  1.00  0.00     0.210 C 
ENDBRANCH  18  21
ENDBRANCH   1  15
TORSDOF 5
ENDMDL
MODEL 6
REMARK VINA RESULT:      -6.4      3.603      8.777
REMARK  5 active torsions:
REMARK  status: ('A' for Active; 'I' for Inactive)
REMARK    1  A    between atoms: O1_2  and  C2_3 
REMARK    2  A    between atoms: C5_6  and  N1_7 
REMARK       I    between atoms: N1_7  and  C6_8 
REMARK    3  A    between atoms: C6_8  and  C7_10 
REMARK    4  A    between atoms: C10_13  and  N2_14 
REMARK    5  A    between atoms: N2_14  and  C12_16 
ROOT
HETATM    1  N1  UNL     1      27.076   4.496  49.536  1.00  0.00    -0.323 N 
HETATM    2  C6  UNL     1      25.763   4.041  49.711  1.00  0.00     0.256 C 
HETATM    3  O2  UNL     1      24.860   4.612  49.044  1.00  0.00    -0.267 OA
HETATM    4  H6  UNL     1      27.750   3.959  50.135  1.00  0.00     0.169 HD
ENDROOT
BRANCH   2   5
HETATM    5  C7  UNL     1      25.369   2.961  50.605  1.00  0.00     0.032 A 
HETATM    6  C8  UNL     1      24.071   2.587  50.879  1.00  0.00     0.019 A 
HETATM    7  C9  UNL     1      23.741   1.557  51.733  1.00  0.00     0.030 A 
HETATM    8  C10 UNL     1      24.730   0.836  52.370  1.00  0.00     0.030 A 
HETATM    9  C13 UNL     1      26.041   1.176  52.124  1.00  0.00     0.030 A 
HETATM   10  C14 UNL     1      26.325   2.214  51.262  1.00  0.00     0.019 A 
BRANCH   8  11
HETATM   11  N2  UNL     1      24.354  -0.220  53.243  1.00  0.00    -0.372 N 
HETATM   12  C11 UNL     1      25.341  -0.704  54.189  1.00  0.00     0.151 C 
BRANCH  11  13
HETATM   13  C12 UNL     1      23.017  -0.794  53.181  1.00  0.00     0.237 C 
HETATM   14 CL1  UNL     1      21.964  -0.114  54.443  1.00  0.00    -0.109 Cl
ENDBRANCH  11  13
ENDBRANCH   8  11
ENDBRANCH   2   5
BRANCH   1  15
HETATM   15  C5  UNL     1      27.597   5.514  48.722  1.00  0.00     0.035 A 
HETATM   16  C4  UNL     1      26.939   6.629  48.261  1.00  0.00     0.032 A 
HETATM   17  C3  UNL     1      27.481   7.611  47.462  1.00  0.00     0.039 A 
HETATM   18  C2  UNL     1      28.798   7.482  47.076  1.00  0.00     0.068 A 
HETATM   19  C16 UNL     1      29.502   6.380  47.510  1.00  0.00     0.039 A 
HETATM   20  C15 UNL     1      28.906   5.445  48.301  1.00  0.00     0.032 A 
BRANCH  18  21
HETATM   21  O1  UNL     1      29.371   8.455  46.270  1.00  0.00    -0.356 OA
HETATM   22  C1  UNL     1      30.658   8.259  45.681  1.00  0.00     0.210 C 
ENDBRANCH  18  21
ENDBRANCH   1  15
TORSDOF 5
ENDMDL
MODEL 7
REMARK VINA RESULT:      -6.2      4.206      8.654
REMARK  5 active torsions:
REMARK  status: ('A' for Active; 'I' for Inactive)
REMARK    1  A    between atoms: O1_2  and  C2_3 
REMARK    2  A    between atoms: C5_6  and  N1_7 
REMARK       I    between atoms: N1_7  and  C6_8 
REMARK    3  A    between atoms: C6_8  and  C7_10 
REMARK    4  A    between atoms: C10_13  and  N2_14 
REMARK    5  A    between atoms: N2_14  and  C12_16 
ROOT
HETATM    1  N1  UNL     1      28.843   6.909  48.749  1.00  0.00    -0.323 N 
HETATM    2  C6  UNL     1      28.357   5.614  48.526  1.00  0.00     0.256 C 
HETATM    3  O2  UNL     1      29.156   4.773  48.036  1.00  0.00    -0.267 OA
HETATM    4  H6  UNL     1      28.103   7.531  49.157  1.00  0.00     0.169 HD
ENDROOT
BRANCH   2   5
HETATM    5  C7  UNL     1      27.000   5.173  48.819  1.00  0.00     0.032 A 
HETATM    6  C8  UNL     1      25.858   5.913  48.600  1.00  0.00     0.019 A 
HETATM    7  C9  UNL     1      24.591   5.458  48.892  1.00  0.00     0.030 A 
HETATM    8  C10 UNL     1      24.408   4.203  49.433  1.00  0.00     0.030 A 
HETATM    9  C13 UNL     1      25.523   3.429  49.669  1.00  0.00     0.030 A 
HETATM   10  C14 UNL     1      26.772   3.925  49.361  1.00  0.00     0.019 A 
BRANCH   8  11
HETATM   11  N2  UNL     1      23.087   3.765  49.721  1.00  0.00    -0.372 N 
HETATM   12  C11 UNL     1      22.183   4.703  50.359  1.00  0.00     0.151 C 
BRANCH  11  13
HETATM   13  C12 UNL     1      22.663   2.413  49.384  1.00  0.00     0.237 C 
HETATM   14 CL1  UNL     1      22.618   2.173  47.621  1.00  0.00    -0.109 Cl
ENDBRANCH  11  13
ENDBRANCH   8  11
ENDBRANCH   2   5
BRANCH   1  15
HETATM   15  C5  UNL     1      30.109   7.469  48.517  1.00  0.00     0.035 A 
HETATM   16  C4  UNL     1      31.227   7.353  49.308  1.00  0.00     0.032 A 
HETATM   17  C3  UNL     1      32.457   7.918  49.050  1.00  0.00     0.039 A 
HETATM   18  C2  UNL     1      32.600   8.671  47.905  1.00  0.00     0.068 A 
HETATM   19  C16 UNL     1      31.508   8.819  47.078  1.00  0.00     0.039 A 
HETATM   20  C15 UNL     1      30.319   8.233  47.391  1.00  0.00     0.032 A 
BRANCH  18  21
HETATM   21  O1  UNL     1      33.827   9.253  47.620  1.00  0.00    -0.356 OA
HETATM   22  C1  UNL     1      35.048   8.558  47.875  1.00  0.00     0.210 C 
ENDBRANCH  18  21
ENDBRANCH   1  15
TORSDOF 5
ENDMDL
MODEL 8
REMARK VINA RESULT:      -6.1      3.837      8.738
REMARK  5 active torsions:
REMARK  status: ('A' for Active; 'I' for Inactive)
REMARK    1  A    between atoms: O1_2  and  C2_3 
REMARK    2  A    between atoms: C5_6  and  N1_7 
REMARK       I    between atoms: N1_7  and  C6_8 
REMARK    3  A    between atoms: C6_8  and  C7_10 
REMARK    4  A    between atoms: C10_13  and  N2_14 
REMARK    5  A    between atoms: N2_14  and  C12_16 
ROOT
HETATM    1  N1  UNL     1      28.851   6.785  48.831  1.00  0.00    -0.323 N 
HETATM    2  C6  UNL     1      27.544   6.642  48.346  1.00  0.00     0.256 C 
HETATM    3  O2  UNL     1      27.171   7.443  47.449  1.00  0.00    -0.267 OA
HETATM    4  H6  UNL     1      29.063   6.075  49.574  1.00  0.00     0.169 HD
ENDROOT
BRANCH   2   5
HETATM    5  C7  UNL     1      26.593   5.640  48.804  1.00  0.00     0.032 A 
HETATM    6  C8  UNL     1      25.235   5.834  48.941  1.00  0.00     0.019 A 
HETATM    7  C9  UNL     1      24.367   4.857  49.379  1.00  0.00     0.030 A 
HETATM    8  C10 UNL     1      24.839   3.604  49.710  1.00  0.00     0.030 A 
HETATM    9  C13 UNL     1      26.190   3.366  49.588  1.00  0.00     0.030 A 
HETATM   10  C14 UNL     1      27.021   4.374  49.146  1.00  0.00     0.019 A 
BRANCH   8  11
HETATM   11  N2  UNL     1      23.916   2.620  50.157  1.00  0.00    -0.372 N 
HETATM   12  C11 UNL     1      22.732   2.383  49.353  1.00  0.00     0.151 C 
BRANCH  11  13
HETATM   13  C12 UNL     1      24.159   1.879  51.387  1.00  0.00     0.237 C 
HETATM   14 CL1  UNL     1      24.191   2.964  52.797  1.00  0.00    -0.109 Cl
ENDBRANCH  11  13
ENDBRANCH   8  11
ENDBRANCH   2   5
BRANCH   1  15
HETATM   15  C5  UNL     1      29.865   7.694  48.490  1.00  0.00     0.035 A 
HETATM   16  C4  UNL     1      30.093   8.932  49.041  1.00  0.00     0.032 A 
HETATM   17  C3  UNL     1      31.100   9.800  48.681  1.00  0.00     0.039 A 
HETATM   18  C2  UNL     1      31.966   9.413  47.680  1.00  0.00     0.068 A 
HETATM   19  C16 UNL     1      31.779   8.180  47.094  1.00  0.00     0.039 A 
HETATM   20  C15 UNL     1      30.763   7.368  47.497  1.00  0.00     0.032 A 
BRANCH  18  21
HETATM   21  O1  UNL     1      32.990  10.267  47.296  1.00  0.00    -0.356 OA
HETATM   22  C1  UNL     1      34.170   9.765  46.668  1.00  0.00     0.210 C 
ENDBRANCH  18  21
ENDBRANCH   1  15
TORSDOF 5
ENDMDL
MODEL 9
REMARK VINA RESULT:      -6.1      3.904      8.952
REMARK  5 active torsions:
REMARK  status: ('A' for Active; 'I' for Inactive)
REMARK    1  A    between atoms: O1_2  and  C2_3 
REMARK    2  A    between atoms: C5_6  and  N1_7 
REMARK       I    between atoms: N1_7  and  C6_8 
REMARK    3  A    between atoms: C6_8  and  C7_10 
REMARK    4  A    between atoms: C10_13  and  N2_14 
REMARK    5  A    between atoms: N2_14  and  C12_16 
ROOT
HETATM    1  N1  UNL     1      25.726   5.140  50.395  1.00  0.00    -0.323 N 
HETATM    2  C6  UNL     1      24.738   4.170  50.179  1.00  0.00     0.256 C 
HETATM    3  O2  UNL     1      24.018   4.296  49.155  1.00  0.00    -0.267 OA
HETATM    4  H6  UNL     1      26.268   4.946  51.272  1.00  0.00     0.169 HD
ENDROOT
BRANCH   2   5
HETATM    5  C7  UNL     1      24.486   3.033  51.053  1.00  0.00     0.032 A 
HETATM    6  C8  UNL     1      23.299   2.775  51.703  1.00  0.00     0.019 A 
HETATM    7  C9  UNL     1      23.102   1.685  52.523  1.00  0.00     0.030 A 
HETATM    8  C10 UNL     1      24.119   0.778  52.733  1.00  0.00     0.030 A 
HETATM    9  C13 UNL     1      25.324   0.997  52.102  1.00  0.00     0.030 A 
HETATM   10  C14 UNL     1      25.476   2.101  51.291  1.00  0.00     0.019 A 
BRANCH   8  11
HETATM   11  N2  UNL     1      23.881  -0.335  53.583  1.00  0.00    -0.372 N 
HETATM   12  C11 UNL     1      24.934  -0.728  54.501  1.00  0.00     0.151 C 
BRANCH  11  13
HETATM   13  C12 UNL     1      22.616  -1.055  53.527  1.00  0.00     0.237 C 
HETATM   14 CL1  UNL     1      21.561  -0.610  54.889  1.00  0.00    -0.109 Cl
ENDBRANCH  11  13
ENDBRANCH   8  11
ENDBRANCH   2   5
BRANCH   1  15
HETATM   15  C5  UNL     1      26.078   6.277  49.649  1.00  0.00     0.035 A 
HETATM   16  C4  UNL     1      26.774   6.312  48.465  1.00  0.00     0.032 A 
HETATM   17  C3  UNL     1      27.103   7.447  47.758  1.00  0.00     0.039 A 
HETATM   18  C2  UNL     1      26.710   8.667  48.267  1.00  0.00     0.068 A 
HETATM   19  C16 UNL     1      26.010   8.686  49.453  1.00  0.00     0.039 A 
HETATM   20  C15 UNL     1      25.716   7.526  50.102  1.00  0.00     0.032 A 
BRANCH  18  21
HETATM   21  O1  UNL     1      27.029   9.828  47.577  1.00  0.00    -0.356 OA
HETATM   22  C1  UNL     1      26.011  10.739  47.161  1.00  0.00     0.210 C 
ENDBRANCH  18  21
ENDBRANCH   1  15
TORSDOF 5
ENDMDL
