MODEL 1
REMARK VINA RESULT:      -8.9      0.000      0.000
REMARK  8 active torsions:
REMARK  status: ('A' for Active; 'I' for Inactive)
REMARK    1  A    between atoms: N1_1  and  C1_2 
REMARK    2  A    between atoms: N2_5  and  C4_6 
REMARK    3  A    between atoms: C4_6  and  C5_7 
REMARK    4  A    between atoms: C5_7  and  C6_8 
REMARK    5  A    between atoms: C6_8  and  C7_9 
REMARK    6  A    between atoms: C19_21  and  C20_22 
REMARK    7  A    between atoms: C20_22  and  C21_23 
REMARK    8  A    between atoms: C24_26  and  O1_27 
ROOT
HETATM    1  C1  UNL     1      25.628   2.560  49.980  1.00  0.00     0.162 A 
HETATM    2  C2  UNL     1      24.204   2.979  49.900  1.00  0.00     0.005 A 
HETATM    3  C3  UNL     1      24.905   2.927  51.253  1.00  0.00     0.050 A 
HETATM    4  N2  UNL     1      24.185   3.292  52.519  1.00  0.00    -0.328 N 
HETATM    5  C13 UNL     1      22.691   3.564  52.471  1.00  0.00     0.145 C 
HETATM    6  C14 UNL     1      22.116   4.865  52.530  1.00  0.00     0.056 C 
HETATM    7  C15 UNL     1      22.055   5.460  51.099  1.00  0.00     0.005 C 
HETATM    8  C16 UNL     1      22.242   4.925  49.807  1.00  0.00     0.012 C 
HETATM    9  C17 UNL     1      22.706   3.420  49.835  1.00  0.00    -0.027 C 
HETATM   10  C18 UNL     1      21.658   2.484  49.873  1.00  0.00     0.017 C 
HETATM   11  C19 UNL     1      21.062   1.936  51.167  1.00  0.00     0.158 C 
HETATM   12  O2  UNL     1      21.701   2.458  52.343  1.00  0.00    -0.326 OA
ENDROOT
BRANCH   4  13
HETATM   13  C4  UNL     1      25.150   3.317  53.610  1.00  0.00     0.131 C 
BRANCH  13  14
HETATM   14  C5  UNL     1      25.995   2.103  53.762  1.00  0.00     0.025 C 
BRANCH  14  15
HETATM   15  C6  UNL     1      27.457   2.241  53.564  1.00  0.00     0.040 C 
BRANCH  15  16
HETATM   16  C7  UNL     1      28.084   0.872  53.459  1.00  0.00    -0.058 A 
HETATM   17  C8  UNL     1      27.242  -0.155  53.025  1.00  0.00     0.007 A 
HETATM   18  C9  UNL     1      27.708  -1.447  52.905  1.00  0.00     0.001 A 
HETATM   19  C10 UNL     1      29.007  -1.791  53.199  1.00  0.00     0.000 A 
HETATM   20  C11 UNL     1      29.835  -0.774  53.625  1.00  0.00     0.001 A 
HETATM   21  C12 UNL     1      29.394   0.523  53.752  1.00  0.00     0.007 A 
ENDBRANCH  15  16
ENDBRANCH  14  15
ENDBRANCH  13  14
ENDBRANCH   4  13
BRANCH   1  22
HETATM   22  N1  UNL     1      26.659   3.350  49.427  1.00  0.00    -0.417 N 
HETATM   23  H1  UNL     1      26.669   4.354  49.634  1.00  0.00     0.150 HD
HETATM   24  H2  UNL     1      27.574   2.900  49.429  1.00  0.00     0.150 HD
ENDBRANCH   1  22
BRANCH  11  25
HETATM   25  C20 UNL     1      21.390   0.466  51.090  1.00  0.00     0.075 C 
BRANCH  25  26
HETATM   26  C21 UNL     1      22.010  -0.064  52.310  1.00  0.00    -0.055 A 
HETATM   27  C22 UNL     1      21.048  -0.620  53.180  1.00  0.00     0.010 A 
HETATM   28  C23 UNL     1      21.346  -1.205  54.394  1.00  0.00     0.037 A 
HETATM   29  C24 UNL     1      22.649  -1.251  54.783  1.00  0.00     0.065 A 
HETATM   30  C25 UNL     1      23.607  -0.716  53.950  1.00  0.00     0.037 A 
HETATM   31  C26 UNL     1      23.314  -0.132  52.741  1.00  0.00     0.010 A 
BRANCH  29  32
HETATM   32  O1  UNL     1      22.977  -1.835  56.004  1.00  0.00    -0.361 OA
HETATM   33  H24 UNL     1      23.270  -2.833  55.983  1.00  0.00     0.217 HD
ENDBRANCH  29  32
ENDBRANCH  25  26
ENDBRANCH  11  25
TORSDOF 8
ENDMDL
MODEL 2
REMARK VINA RESULT:      -8.7      1.570      2.263
REMARK  8 active torsions:
REMARK  status: ('A' for Active; 'I' for Inactive)
REMARK    1  A    between atoms: N1_1  and  C1_2 
REMARK    2  A    between atoms: N2_5  and  C4_6 
REMARK    3  A    between atoms: C4_6  and  C5_7 
REMARK    4  A    between atoms: C5_7  and  C6_8 
REMARK    5  A    between atoms: C6_8  and  C7_9 
REMARK    6  A    between atoms: C19_21  and  C20_22 
REMARK    7  A    between atoms: C20_22  and  C21_23 
REMARK    8  A    between atoms: C24_26  and  O1_27 
ROOT
HETATM    1  C1  UNL     1      22.195   3.020  47.571  1.00  0.00     0.162 A 
HETATM    2  C2  UNL     1      21.553   3.575  48.792  1.00  0.00     0.005 A 
HETATM    3  C3  UNL     1      23.063   3.364  48.758  1.00  0.00     0.050 A 
HETATM    4  N2  UNL     1      23.925   3.706  49.938  1.00  0.00    -0.328 N 
HETATM    5  C13 UNL     1      23.266   4.119  51.244  1.00  0.00     0.145 C 
HETATM    6  C14 UNL     1      23.205   5.461  51.716  1.00  0.00     0.056 C 
HETATM    7  C15 UNL     1      21.957   6.157  51.111  1.00  0.00     0.005 C 
HETATM    8  C16 UNL     1      20.825   5.698  50.406  1.00  0.00     0.012 C 
HETATM    9  C17 UNL     1      20.894   4.158  50.084  1.00  0.00    -0.027 C 
HETATM   10  C18 UNL     1      20.380   3.324  51.092  1.00  0.00     0.017 C 
HETATM   11  C19 UNL     1      21.227   2.746  52.223  1.00  0.00     0.158 C 
HETATM   12  O2  UNL     1      22.610   3.123  52.136  1.00  0.00    -0.326 OA
ENDROOT
BRANCH   4  13
HETATM   13  C4  UNL     1      25.321   3.566  49.550  1.00  0.00     0.131 C 
BRANCH  13  14
HETATM   14  C5  UNL     1      26.233   3.011  50.585  1.00  0.00     0.025 C 
BRANCH  14  15
HETATM   15  C6  UNL     1      25.885   1.705  51.194  1.00  0.00     0.040 C 
BRANCH  15  16
HETATM   16  C7  UNL     1      26.948   1.314  52.193  1.00  0.00    -0.058 A 
HETATM   17  C8  UNL     1      27.058  -0.051  52.466  1.00  0.00     0.007 A 
HETATM   18  C9  UNL     1      27.987  -0.518  53.372  1.00  0.00     0.001 A 
HETATM   19  C10 UNL     1      28.845   0.322  54.045  1.00  0.00     0.000 A 
HETATM   20  C11 UNL     1      28.734   1.669  53.770  1.00  0.00     0.001 A 
HETATM   21  C12 UNL     1      27.816   2.158  52.870  1.00  0.00     0.007 A 
ENDBRANCH  15  16
ENDBRANCH  14  15
ENDBRANCH  13  14
ENDBRANCH   4  13
BRANCH   1  22
HETATM   22  N1  UNL     1      22.225   3.746  46.362  1.00  0.00    -0.417 N 
HETATM   23  H1  UNL     1      21.917   4.724  46.371  1.00  0.00     0.150 HD
HETATM   24  H2  UNL     1      23.045   3.558  45.785  1.00  0.00     0.150 HD
ENDBRANCH   1  22
BRANCH  11  25
HETATM   25  C20 UNL     1      21.147   1.261  51.974  1.00  0.00     0.075 C 
BRANCH  25  26
HETATM   26  C21 UNL     1      21.901   0.460  52.946  1.00  0.00    -0.055 A 
HETATM   27  C22 UNL     1      21.051  -0.114  53.916  1.00  0.00     0.010 A 
HETATM   28  C23 UNL     1      21.484  -0.928  54.942  1.00  0.00     0.037 A 
HETATM   29  C24 UNL     1      22.815  -1.198  55.032  1.00  0.00     0.065 A 
HETATM   30  C25 UNL     1      23.665  -0.650  54.097  1.00  0.00     0.037 A 
HETATM   31  C26 UNL     1      23.238   0.161  53.073  1.00  0.00     0.010 A 
BRANCH  29  32
HETATM   32  O1  UNL     1      23.279  -2.016  56.060  1.00  0.00    -0.361 OA
HETATM   33  H24 UNL     1      22.864  -1.864  57.002  1.00  0.00     0.217 HD
ENDBRANCH  29  32
ENDBRANCH  25  26
ENDBRANCH  11  25
TORSDOF 8
ENDMDL
MODEL 3
REMARK VINA RESULT:      -8.5      2.112      5.163
REMARK  8 active torsions:
REMARK  status: ('A' for Active; 'I' for Inactive)
REMARK    1  A    between atoms: N1_1  and  C1_2 
REMARK    2  A    between atoms: N2_5  and  C4_6 
REMARK    3  A    between atoms: C4_6  and  C5_7 
REMARK    4  A    between atoms: C5_7  and  C6_8 
REMARK    5  A    between atoms: C6_8  and  C7_9 
REMARK    6  A    between atoms: C19_21  and  C20_22 
REMARK    7  A    between atoms: C20_22  and  C21_23 
REMARK    8  A    between atoms: C24_26  and  O1_27 
ROOT
HETATM    1  C1  UNL     1      21.645   6.438  50.871  1.00  0.00     0.162 A 
HETATM    2  C2  UNL     1      22.456   5.609  49.941  1.00  0.00     0.005 A 
HETATM    3  C3  UNL     1      21.329   4.968  50.743  1.00  0.00     0.050 A 
HETATM    4  N2  UNL     1      21.016   3.505  50.616  1.00  0.00    -0.328 N 
HETATM    5  C13 UNL     1      21.936   2.617  49.795  1.00  0.00     0.145 C 
HETATM    6  C14 UNL     1      21.626   2.139  48.491  1.00  0.00     0.056 C 
HETATM    7  C15 UNL     1      22.061   3.197  47.444  1.00  0.00     0.005 C 
HETATM    8  C16 UNL     1      22.846   4.367  47.502  1.00  0.00     0.012 C 
HETATM    9  C17 UNL     1      23.298   4.722  48.968  1.00  0.00    -0.027 C 
HETATM   10  C18 UNL     1      24.499   4.114  49.375  1.00  0.00     0.017 C 
HETATM   11  C19 UNL     1      24.562   2.762  50.081  1.00  0.00     0.158 C 
HETATM   12  O2  UNL     1      23.266   2.187  50.308  1.00  0.00    -0.326 OA
ENDROOT
BRANCH   4  13
HETATM   13  C4  UNL     1      19.794   3.226  51.359  1.00  0.00     0.131 C 
BRANCH  13  14
HETATM   14  C5  UNL     1      19.921   2.255  52.479  1.00  0.00     0.025 C 
BRANCH  14  15
HETATM   15  C6  UNL     1      19.989   0.812  52.148  1.00  0.00     0.040 C 
BRANCH  15  16
HETATM   16  C7  UNL     1      21.059   0.152  52.983  1.00  0.00    -0.058 A 
HETATM   17  C8  UNL     1      20.613  -0.782  53.921  1.00  0.00     0.007 A 
HETATM   18  C9  UNL     1      21.505  -1.436  54.746  1.00  0.00     0.001 A 
HETATM   19  C10 UNL     1      22.861  -1.209  54.690  1.00  0.00     0.000 A 
HETATM   20  C11 UNL     1      23.297  -0.287  53.761  1.00  0.00     0.001 A 
HETATM   21  C12 UNL     1      22.427   0.377  52.928  1.00  0.00     0.007 A 
ENDBRANCH  15  16
ENDBRANCH  14  15
ENDBRANCH  13  14
ENDBRANCH   4  13
BRANCH   1  22
HETATM   22  N1  UNL     1      20.787   7.453  50.395  1.00  0.00    -0.417 N 
HETATM   23  H1  UNL     1      21.167   8.398  50.279  1.00  0.00     0.150 HD
HETATM   24  H2  UNL     1      20.154   7.148  49.656  1.00  0.00     0.150 HD
ENDBRANCH   1  22
BRANCH  11  25
HETATM   25  C20 UNL     1      25.142   3.116  51.428  1.00  0.00     0.075 C 
BRANCH  25  26
HETATM   26  C21 UNL     1      25.860   2.007  52.069  1.00  0.00    -0.055 A 
HETATM   27  C22 UNL     1      25.978   2.203  53.462  1.00  0.00     0.010 A 
HETATM   28  C23 UNL     1      26.590   1.314  54.321  1.00  0.00     0.037 A 
HETATM   29  C24 UNL     1      27.118   0.173  53.797  1.00  0.00     0.065 A 
HETATM   30  C25 UNL     1      27.015  -0.040  52.441  1.00  0.00     0.037 A 
HETATM   31  C26 UNL     1      26.406   0.842  51.582  1.00  0.00     0.010 A 
BRANCH  29  32
HETATM   32  O1  UNL     1      27.745  -0.740  54.642  1.00  0.00    -0.361 OA
HETATM   33  H24 UNL     1      28.784  -0.742  54.642  1.00  0.00     0.217 HD
ENDBRANCH  29  32
ENDBRANCH  25  26
ENDBRANCH  11  25
TORSDOF 8
ENDMDL
MODEL 4
REMARK VINA RESULT:      -8.4      2.540      5.239
REMARK  8 active torsions:
REMARK  status: ('A' for Active; 'I' for Inactive)
REMARK    1  A    between atoms: N1_1  and  C1_2 
REMARK    2  A    between atoms: N2_5  and  C4_6 
REMARK    3  A    between atoms: C4_6  and  C5_7 
REMARK    4  A    between atoms: C5_7  and  C6_8 
REMARK    5  A    between atoms: C6_8  and  C7_9 
REMARK    6  A    between atoms: C19_21  and  C20_22 
REMARK    7  A    between atoms: C20_22  and  C21_23 
REMARK    8  A    between atoms: C24_26  and  O1_27 
ROOT
HETATM    1  C1  UNL     1      22.736   2.969  48.165  1.00  0.00     0.162 A 
HETATM    2  C2  UNL     1      22.523   2.190  49.412  1.00  0.00     0.005 A 
HETATM    3  C3  UNL     1      22.415   3.711  49.439  1.00  0.00     0.050 A 
HETATM    4  N2  UNL     1      22.095   4.448  50.707  1.00  0.00    -0.328 N 
HETATM    5  C13 UNL     1      22.036   3.680  52.017  1.00  0.00     0.145 C 
HETATM    6  C14 UNL     1      20.825   3.326  52.678  1.00  0.00     0.056 C 
HETATM    7  C15 UNL     1      20.311   1.978  52.109  1.00  0.00     0.005 C 
HETATM    8  C16 UNL     1      20.873   0.987  51.277  1.00  0.00     0.012 C 
HETATM    9  C17 UNL     1      22.297   1.388  50.735  1.00  0.00    -0.027 C 
HETATM   10  C18 UNL     1      23.366   1.031  51.575  1.00  0.00     0.017 C 
HETATM   11  C19 UNL     1      23.931   1.948  52.656  1.00  0.00     0.158 C 
HETATM   12  O2  UNL     1      23.272   3.223  52.711  1.00  0.00    -0.326 OA
ENDROOT
BRANCH   4  13
HETATM   13  C4  UNL     1      21.886   5.854  50.387  1.00  0.00     0.131 C 
BRANCH  13  14
HETATM   14  C5  UNL     1      23.098   6.619  49.990  1.00  0.00     0.025 C 
BRANCH  14  15
HETATM   15  C6  UNL     1      24.303   6.512  50.846  1.00  0.00     0.040 C 
BRANCH  15  16
HETATM   16  C7  UNL     1      25.476   6.056  50.012  1.00  0.00    -0.058 A 
HETATM   17  C8  UNL     1      25.732   4.682  50.016  1.00  0.00     0.007 A 
HETATM   18  C9  UNL     1      26.787   4.158  49.298  1.00  0.00     0.001 A 
HETATM   19  C10 UNL     1      27.630   4.946  48.549  1.00  0.00     0.000 A 
HETATM   20  C11 UNL     1      27.373   6.301  48.547  1.00  0.00     0.001 A 
HETATM   21  C12 UNL     1      26.327   6.847  49.254  1.00  0.00     0.007 A 
ENDBRANCH  15  16
ENDBRANCH  14  15
ENDBRANCH  13  14
ENDBRANCH   4  13
BRANCH   1  22
HETATM   22  N1  UNL     1      21.838   2.881  47.080  1.00  0.00    -0.417 N 
HETATM   23  H1  UNL     1      21.966   3.518  46.287  1.00  0.00     0.150 HD
HETATM   24  H2  UNL     1      21.583   1.926  46.829  1.00  0.00     0.150 HD
ENDBRANCH   1  22
BRANCH  11  25
HETATM   25  C20 UNL     1      25.344   2.189  52.186  1.00  0.00     0.075 C 
BRANCH  25  26
HETATM   26  C21 UNL     1      26.281   1.127  52.571  1.00  0.00    -0.055 A 
HETATM   27  C22 UNL     1      27.325   1.626  53.379  1.00  0.00     0.010 A 
HETATM   28  C23 UNL     1      28.341   0.851  53.901  1.00  0.00     0.037 A 
HETATM   29  C24 UNL     1      28.342  -0.481  53.620  1.00  0.00     0.065 A 
HETATM   30  C25 UNL     1      27.333  -0.991  52.834  1.00  0.00     0.037 A 
HETATM   31  C26 UNL     1      26.320  -0.223  52.313  1.00  0.00     0.010 A 
BRANCH  29  32
HETATM   32  O1  UNL     1      29.357  -1.286  54.132  1.00  0.00    -0.361 OA
HETATM   33  H24 UNL     1      30.224  -1.365  53.563  1.00  0.00     0.217 HD
ENDBRANCH  29  32
ENDBRANCH  25  26
ENDBRANCH  11  25
TORSDOF 8
ENDMDL
MODEL 5
REMARK VINA RESULT:      -8.4      3.027      5.674
REMARK  8 active torsions:
REMARK  status: ('A' for Active; 'I' for Inactive)
REMARK    1  A    between atoms: N1_1  and  C1_2 
REMARK    2  A    between atoms: N2_5  and  C4_6 
REMARK    3  A    between atoms: C4_6  and  C5_7 
REMARK    4  A    between atoms: C5_7  and  C6_8 
REMARK    5  A    between atoms: C6_8  and  C7_9 
REMARK    6  A    between atoms: C19_21  and  C20_22 
REMARK    7  A    between atoms: C20_22  and  C21_23 
REMARK    8  A    between atoms: C24_26  and  O1_27 
ROOT
HETATM    1  C1  UNL     1      22.398   2.637  47.898  1.00  0.00     0.162 A 
HETATM    2  C2  UNL     1      22.374   2.334  49.353  1.00  0.00     0.005 A 
HETATM    3  C3  UNL     1      22.600   3.766  48.879  1.00  0.00     0.050 A 
HETATM    4  N2  UNL     1      22.801   4.888  49.856  1.00  0.00    -0.328 N 
HETATM    5  C13 UNL     1      22.939   4.568  51.336  1.00  0.00     0.145 C 
HETATM    6  C14 UNL     1      21.909   4.776  52.296  1.00  0.00     0.056 C 
HETATM    7  C15 UNL     1      20.987   3.529  52.329  1.00  0.00     0.005 C 
HETATM    8  C16 UNL     1      21.080   2.227  51.794  1.00  0.00     0.012 C 
HETATM    9  C17 UNL     1      22.353   2.034  50.887  1.00  0.00    -0.027 C 
HETATM   10  C18 UNL     1      23.510   1.636  51.578  1.00  0.00     0.017 C 
HETATM   11  C19 UNL     1      24.528   2.617  52.153  1.00  0.00     0.158 C 
HETATM   12  O2  UNL     1      24.193   3.989  51.894  1.00  0.00    -0.326 OA
ENDROOT
BRANCH   4  13
HETATM   13  C4  UNL     1      22.813   6.146  49.122  1.00  0.00     0.131 C 
BRANCH  13  14
HETATM   14  C5  UNL     1      23.948   6.340  48.181  1.00  0.00     0.025 C 
BRANCH  14  15
HETATM   15  C6  UNL     1      25.047   7.247  48.590  1.00  0.00     0.040 C 
BRANCH  15  16
HETATM   16  C7  UNL     1      26.366   6.519  48.493  1.00  0.00    -0.058 A 
HETATM   17  C8  UNL     1      27.423   7.242  47.933  1.00  0.00     0.007 A 
HETATM   18  C9  UNL     1      28.669   6.669  47.785  1.00  0.00     0.001 A 
HETATM   19  C10 UNL     1      28.936   5.377  48.175  1.00  0.00     0.000 A 
HETATM   20  C11 UNL     1      27.890   4.669  48.729  1.00  0.00     0.001 A 
HETATM   21  C12 UNL     1      26.639   5.218  48.888  1.00  0.00     0.007 A 
ENDBRANCH  15  16
ENDBRANCH  14  15
ENDBRANCH  13  14
ENDBRANCH   4  13
BRANCH   1  22
HETATM   22  N1  UNL     1      21.241   2.510  47.101  1.00  0.00    -0.417 N 
HETATM   23  H1  UNL     1      21.340   2.574  46.083  1.00  0.00     0.150 HD
HETATM   24  H2  UNL     1      20.588   1.798  47.426  1.00  0.00     0.150 HD
ENDBRANCH   1  22
BRANCH  11  25
HETATM   25  C20 UNL     1      25.777   2.301  51.369  1.00  0.00     0.075 C 
BRANCH  25  26
HETATM   26  C21 UNL     1      26.842   1.694  52.177  1.00  0.00    -0.055 A 
HETATM   27  C22 UNL     1      26.781   0.284  52.141  1.00  0.00     0.010 A 
HETATM   28  C23 UNL     1      27.666  -0.548  52.794  1.00  0.00     0.037 A 
HETATM   29  C24 UNL     1      28.664   0.021  53.525  1.00  0.00     0.065 A 
HETATM   30  C25 UNL     1      28.745   1.395  53.575  1.00  0.00     0.037 A 
HETATM   31  C26 UNL     1      27.866   2.227  52.925  1.00  0.00     0.010 A 
BRANCH  29  32
HETATM   32  O1  UNL     1      29.570  -0.796  54.197  1.00  0.00    -0.361 OA
HETATM   33  H24 UNL     1      29.751  -1.733  53.783  1.00  0.00     0.217 HD
ENDBRANCH  29  32
ENDBRANCH  25  26
ENDBRANCH  11  25
TORSDOF 8
ENDMDL
MODEL 6
REMARK VINA RESULT:      -8.1      2.316      5.971
REMARK  8 active torsions:
REMARK  status: ('A' for Active; 'I' for Inactive)
REMARK    1  A    between atoms: N1_1  and  C1_2 
REMARK    2  A    between atoms: N2_5  and  C4_6 
REMARK    3  A    between atoms: C4_6  and  C5_7 
REMARK    4  A    between atoms: C5_7  and  C6_8 
REMARK    5  A    between atoms: C6_8  and  C7_9 
REMARK    6  A    between atoms: C19_21  and  C20_22 
REMARK    7  A    between atoms: C20_22  and  C21_23 
REMARK    8  A    between atoms: C24_26  and  O1_27 
ROOT
HETATM    1  C1  UNL     1      22.792   2.143  48.427  1.00  0.00     0.162 A 
HETATM    2  C2  UNL     1      22.236   2.267  49.799  1.00  0.00     0.005 A 
HETATM    3  C3  UNL     1      23.582   2.902  49.465  1.00  0.00     0.050 A 
HETATM    4  N2  UNL     1      24.366   3.656  50.499  1.00  0.00    -0.328 N 
HETATM    5  C13 UNL     1      23.889   3.652  51.942  1.00  0.00     0.145 C 
HETATM    6  C14 UNL     1      23.236   4.751  52.569  1.00  0.00     0.056 C 
HETATM    7  C15 UNL     1      21.713   4.665  52.287  1.00  0.00     0.005 C 
HETATM    8  C16 UNL     1      20.871   3.667  51.754  1.00  0.00     0.012 C 
HETATM    9  C17 UNL     1      21.668   2.406  51.249  1.00  0.00    -0.027 C 
HETATM   10  C18 UNL     1      21.901   1.427  52.231  1.00  0.00     0.017 C 
HETATM   11  C19 UNL     1      23.146   1.398  53.113  1.00  0.00     0.158 C 
HETATM   12  O2  UNL     1      24.067   2.460  52.819  1.00  0.00    -0.326 OA
ENDROOT
BRANCH   4  13
HETATM   13  C4  UNL     1      25.505   4.289  49.848  1.00  0.00     0.131 C 
BRANCH  13  14
HETATM   14  C5  UNL     1      25.188   5.419  48.934  1.00  0.00     0.025 C 
BRANCH  14  15
HETATM   15  C6  UNL     1      24.748   6.700  49.535  1.00  0.00     0.040 C 
BRANCH  15  16
HETATM   16  C7  UNL     1      23.241   6.786  49.495  1.00  0.00    -0.058 A 
HETATM   17  C8  UNL     1      22.657   7.689  50.386  1.00  0.00     0.007 A 
HETATM   18  C9  UNL     1      21.287   7.839  50.443  1.00  0.00     0.001 A 
HETATM   19  C10 UNL     1      20.434   7.121  49.636  1.00  0.00     0.000 A 
HETATM   20  C11 UNL     1      21.016   6.232  48.756  1.00  0.00     0.001 A 
HETATM   21  C12 UNL     1      22.380   6.066  48.681  1.00  0.00     0.007 A 
ENDBRANCH  15  16
ENDBRANCH  14  15
ENDBRANCH  13  14
ENDBRANCH   4  13
BRANCH   1  22
HETATM   22  N1  UNL     1      22.174   2.769  47.323  1.00  0.00    -0.417 N 
HETATM   23  H1  UNL     1      22.437   2.467  46.380  1.00  0.00     0.150 HD
HETATM   24  H2  UNL     1      21.180   2.956  47.455  1.00  0.00     0.150 HD
ENDBRANCH   1  22
BRANCH  11  25
HETATM   25  C20 UNL     1      23.808   0.103  52.715  1.00  0.00     0.075 C 
BRANCH  25  26
HETATM   26  C21 UNL     1      25.246   0.063  53.006  1.00  0.00    -0.055 A 
HETATM   27  C22 UNL     1      25.492  -0.009  54.393  1.00  0.00     0.010 A 
HETATM   28  C23 UNL     1      26.750  -0.075  54.956  1.00  0.00     0.037 A 
HETATM   29  C24 UNL     1      27.828  -0.070  54.124  1.00  0.00     0.065 A 
HETATM   30  C25 UNL     1      27.613  -0.001  52.765  1.00  0.00     0.037 A 
HETATM   31  C26 UNL     1      26.362   0.065  52.201  1.00  0.00     0.010 A 
BRANCH  29  32
HETATM   32  O1  UNL     1      29.110  -0.134  54.666  1.00  0.00    -0.361 OA
HETATM   33  H24 UNL     1      29.428   0.690  55.215  1.00  0.00     0.217 HD
ENDBRANCH  29  32
ENDBRANCH  25  26
ENDBRANCH  11  25
TORSDOF 8
ENDMDL
MODEL 7
REMARK VINA RESULT:      -8.0      3.983      7.726
REMARK  8 active torsions:
REMARK  status: ('A' for Active; 'I' for Inactive)
REMARK    1  A    between atoms: N1_1  and  C1_2 
REMARK    2  A    between atoms: N2_5  and  C4_6 
REMARK    3  A    between atoms: C4_6  and  C5_7 
REMARK    4  A    between atoms: C5_7  and  C6_8 
REMARK    5  A    between atoms: C6_8  and  C7_9 
REMARK    6  A    between atoms: C19_21  and  C20_22 
REMARK    7  A    between atoms: C20_22  and  C21_23 
REMARK    8  A    between atoms: C24_26  and  O1_27 
ROOT
HETATM    1  C1  UNL     1      22.498   2.716  47.966  1.00  0.00     0.162 A 
HETATM    2  C2  UNL     1      23.521   2.934  49.022  1.00  0.00     0.005 A 
HETATM    3  C3  UNL     1      22.172   3.640  49.114  1.00  0.00     0.050 A 
HETATM    4  N2  UNL     1      21.849   4.559  50.256  1.00  0.00    -0.328 N 
HETATM    5  C13 UNL     1      22.939   4.916  51.253  1.00  0.00     0.145 C 
HETATM    6  C14 UNL     1      23.031   4.368  52.563  1.00  0.00     0.056 C 
HETATM    7  C15 UNL     1      23.818   3.033  52.502  1.00  0.00     0.005 C 
HETATM    8  C16 UNL     1      24.598   2.401  51.512  1.00  0.00     0.012 C 
HETATM    9  C17 UNL     1      24.584   3.177  50.142  1.00  0.00    -0.027 C 
HETATM   10  C18 UNL     1      25.569   4.173  50.022  1.00  0.00     0.017 C 
HETATM   11  C19 UNL     1      25.348   5.629  50.423  1.00  0.00     0.158 C 
HETATM   12  O2  UNL     1      24.021   5.881  50.912  1.00  0.00    -0.326 OA
ENDROOT
BRANCH   4  13
HETATM   13  C4  UNL     1      20.445   4.937  50.164  1.00  0.00     0.131 C 
BRANCH  13  14
HETATM   14  C5  UNL     1      19.461   3.831  50.308  1.00  0.00     0.025 C 
BRANCH  14  15
HETATM   15  C6  UNL     1      19.212   3.291  51.666  1.00  0.00     0.040 C 
BRANCH  15  16
HETATM   16  C7  UNL     1      20.065   2.065  51.886  1.00  0.00    -0.058 A 
HETATM   17  C8  UNL     1      20.388   1.776  53.214  1.00  0.00     0.007 A 
HETATM   18  C9  UNL     1      21.173   0.686  53.528  1.00  0.00     0.001 A 
HETATM   19  C10 UNL     1      21.672  -0.163  52.568  1.00  0.00     0.000 A 
HETATM   20  C11 UNL     1      21.349   0.125  51.258  1.00  0.00     0.001 A 
HETATM   21  C12 UNL     1      20.567   1.206  50.920  1.00  0.00     0.007 A 
ENDBRANCH  15  16
ENDBRANCH  14  15
ENDBRANCH  13  14
ENDBRANCH   4  13
BRANCH   1  22
HETATM   22  N1  UNL     1      21.879   1.460  47.790  1.00  0.00    -0.417 N 
HETATM   23  H1  UNL     1      21.234   1.129  48.515  1.00  0.00     0.150 HD
HETATM   24  H2  UNL     1      21.584   1.273  46.832  1.00  0.00     0.150 HD
ENDBRANCH   1  22
BRANCH  11  25
HETATM   25  C20 UNL     1      25.493   6.362  49.113  1.00  0.00     0.075 C 
BRANCH  25  26
HETATM   26  C21 UNL     1      26.646   7.270  49.071  1.00  0.00    -0.055 A 
HETATM   27  C22 UNL     1      26.517   8.315  50.011  1.00  0.00     0.010 A 
HETATM   28  C23 UNL     1      27.458   9.305  50.204  1.00  0.00     0.037 A 
HETATM   29  C24 UNL     1      28.584   9.280  49.440  1.00  0.00     0.065 A 
HETATM   30  C25 UNL     1      28.733   8.270  48.515  1.00  0.00     0.037 A 
HETATM   31  C26 UNL     1      27.799   7.282  48.321  1.00  0.00     0.010 A 
BRANCH  29  32
HETATM   32  O1  UNL     1      29.549  10.270  49.613  1.00  0.00    -0.361 OA
HETATM   33  H24 UNL     1      29.972  10.667  48.750  1.00  0.00     0.217 HD
ENDBRANCH  29  32
ENDBRANCH  25  26
ENDBRANCH  11  25
TORSDOF 8
ENDMDL
MODEL 8
REMARK VINA RESULT:      -7.9      2.916      4.410
REMARK  8 active torsions:
REMARK  status: ('A' for Active; 'I' for Inactive)
REMARK    1  A    between atoms: N1_1  and  C1_2 
REMARK    2  A    between atoms: N2_5  and  C4_6 
REMARK    3  A    between atoms: C4_6  and  C5_7 
REMARK    4  A    between atoms: C5_7  and  C6_8 
REMARK    5  A    between atoms: C6_8  and  C7_9 
REMARK    6  A    between atoms: C19_21  and  C20_22 
REMARK    7  A    between atoms: C20_22  and  C21_23 
REMARK    8  A    between atoms: C24_26  and  O1_27 
ROOT
HETATM    1  C1  UNL     1      22.220   2.119  48.061  1.00  0.00     0.162 A 
HETATM    2  C2  UNL     1      21.421   2.958  48.992  1.00  0.00     0.005 A 
HETATM    3  C3  UNL     1      22.830   2.524  49.381  1.00  0.00     0.050 A 
HETATM    4  N2  UNL     1      23.436   2.927  50.693  1.00  0.00    -0.328 N 
HETATM    5  C13 UNL     1      22.575   3.646  51.719  1.00  0.00     0.145 C 
HETATM    6  C14 UNL     1      22.654   5.042  51.988  1.00  0.00     0.056 C 
HETATM    7  C15 UNL     1      21.736   5.803  50.996  1.00  0.00     0.005 C 
HETATM    8  C16 UNL     1      20.738   5.405  50.083  1.00  0.00     0.012 C 
HETATM    9  C17 UNL     1      20.595   3.839  49.984  1.00  0.00    -0.027 C 
HETATM   10  C18 UNL     1      19.711   3.271  50.918  1.00  0.00     0.017 C 
HETATM   11  C19 UNL     1      20.145   2.772  52.293  1.00  0.00     0.158 C 
HETATM   12  O2  UNL     1      21.554   2.920  52.526  1.00  0.00    -0.326 OA
ENDROOT
BRANCH   4  13
HETATM   13  C4  UNL     1      24.835   2.519  50.704  1.00  0.00     0.131 C 
BRANCH  13  14
HETATM   14  C5  UNL     1      25.740   3.271  49.796  1.00  0.00     0.025 C 
BRANCH  14  15
HETATM   15  C6  UNL     1      25.391   4.673  49.465  1.00  0.00     0.040 C 
BRANCH  15  16
HETATM   16  C7  UNL     1      26.591   5.365  48.865  1.00  0.00    -0.058 A 
HETATM   17  C8  UNL     1      26.394   6.687  48.457  1.00  0.00     0.007 A 
HETATM   18  C9  UNL     1      27.420   7.408  47.884  1.00  0.00     0.001 A 
HETATM   19  C10 UNL     1      28.674   6.877  47.686  1.00  0.00     0.000 A 
HETATM   20  C11 UNL     1      28.864   5.572  48.092  1.00  0.00     0.001 A 
HETATM   21  C12 UNL     1      27.856   4.832  48.667  1.00  0.00     0.007 A 
ENDBRANCH  15  16
ENDBRANCH  14  15
ENDBRANCH  13  14
ENDBRANCH   4  13
BRANCH   1  22
HETATM   22  N1  UNL     1      22.670   2.619  46.821  1.00  0.00    -0.417 N 
HETATM   23  H1  UNL     1      21.984   2.752  46.071  1.00  0.00     0.150 HD
HETATM   24  H2  UNL     1      23.370   3.356  46.899  1.00  0.00     0.150 HD
ENDBRANCH   1  22
BRANCH  11  25
HETATM   25  C20 UNL     1      19.852   1.294  52.220  1.00  0.00     0.075 C 
BRANCH  25  26
HETATM   26  C21 UNL     1      20.839   0.463  52.920  1.00  0.00    -0.055 A 
HETATM   27  C22 UNL     1      20.566   0.387  54.302  1.00  0.00     0.010 A 
HETATM   28  C23 UNL     1      21.319  -0.337  55.203  1.00  0.00     0.037 A 
HETATM   29  C24 UNL     1      22.396  -1.025  54.735  1.00  0.00     0.065 A 
HETATM   30  C25 UNL     1      22.683  -0.967  53.389  1.00  0.00     0.037 A 
HETATM   31  C26 UNL     1      21.936  -0.247  52.489  1.00  0.00     0.010 A 
BRANCH  29  32
HETATM   32  O1  UNL     1      23.174  -1.763  55.624  1.00  0.00    -0.361 OA
HETATM   33  H24 UNL     1      24.186  -1.524  55.671  1.00  0.00     0.217 HD
ENDBRANCH  29  32
ENDBRANCH  25  26
ENDBRANCH  11  25
TORSDOF 8
ENDMDL
MODEL 9
REMARK VINA RESULT:      -7.9      2.512      6.730
REMARK  8 active torsions:
REMARK  status: ('A' for Active; 'I' for Inactive)
REMARK    1  A    between atoms: N1_1  and  C1_2 
REMARK    2  A    between atoms: N2_5  and  C4_6 
REMARK    3  A    between atoms: C4_6  and  C5_7 
REMARK    4  A    between atoms: C5_7  and  C6_8 
REMARK    5  A    between atoms: C6_8  and  C7_9 
REMARK    6  A    between atoms: C19_21  and  C20_22 
REMARK    7  A    between atoms: C20_22  and  C21_23 
REMARK    8  A    between atoms: C24_26  and  O1_27 
ROOT
HETATM    1  C1  UNL     1      20.543   2.716  51.959  1.00  0.00     0.162 A 
HETATM    2  C2  UNL     1      21.850   3.395  52.154  1.00  0.00     0.005 A 
HETATM    3  C3  UNL     1      21.612   2.554  50.905  1.00  0.00     0.050 A 
HETATM    4  N2  UNL     1      22.675   2.393  49.858  1.00  0.00    -0.328 N 
HETATM    5  C13 UNL     1      24.066   2.947  50.120  1.00  0.00     0.145 C 
HETATM    6  C14 UNL     1      24.572   4.140  49.532  1.00  0.00     0.056 C 
HETATM    7  C15 UNL     1      24.155   5.354  50.403  1.00  0.00     0.005 C 
HETATM    8  C16 UNL     1      23.596   5.489  51.691  1.00  0.00     0.012 C 
HETATM    9  C17 UNL     1      23.232   4.102  52.343  1.00  0.00    -0.027 C 
HETATM   10  C18 UNL     1      24.280   3.497  53.059  1.00  0.00     0.017 C 
HETATM   11  C19 UNL     1      25.274   2.522  52.435  1.00  0.00     0.158 C 
HETATM   12  O2  UNL     1      25.014   2.267  51.046  1.00  0.00    -0.326 OA
ENDROOT
BRANCH   4  13
HETATM   13  C4  UNL     1      22.101   1.692  48.717  1.00  0.00     0.131 C 
BRANCH  13  14
HETATM   14  C5  UNL     1      21.142   2.470  47.889  1.00  0.00     0.025 C 
BRANCH  14  15
HETATM   15  C6  UNL     1      21.690   3.442  46.914  1.00  0.00     0.040 C 
BRANCH  15  16
HETATM   16  C7  UNL     1      21.638   4.831  47.502  1.00  0.00    -0.058 A 
HETATM   17  C8  UNL     1      22.489   5.774  46.920  1.00  0.00     0.007 A 
HETATM   18  C9  UNL     1      22.532   7.070  47.388  1.00  0.00     0.001 A 
HETATM   19  C10 UNL     1      21.751   7.501  48.435  1.00  0.00     0.000 A 
HETATM   20  C11 UNL     1      20.911   6.568  49.005  1.00  0.00     0.001 A 
HETATM   21  C12 UNL     1      20.850   5.269  48.556  1.00  0.00     0.007 A 
ENDBRANCH  15  16
ENDBRANCH  14  15
ENDBRANCH  13  14
ENDBRANCH   4  13
BRANCH   1  22
HETATM   22  N1  UNL     1      19.357   3.449  51.744  1.00  0.00    -0.417 N 
HETATM   23  H1  UNL     1      18.479   3.078  52.120  1.00  0.00     0.150 HD
HETATM   24  H2  UNL     1      19.472   4.459  51.832  1.00  0.00     0.150 HD
ENDBRANCH   1  22
BRANCH  11  25
HETATM   25  C20 UNL     1      25.004   1.243  53.188  1.00  0.00     0.075 C 
BRANCH  25  26
HETATM   26  C21 UNL     1      26.188   0.388  53.340  1.00  0.00    -0.055 A 
HETATM   27  C22 UNL     1      26.021  -0.850  52.683  1.00  0.00     0.010 A 
HETATM   28  C23 UNL     1      26.978  -1.843  52.644  1.00  0.00     0.037 A 
HETATM   29  C24 UNL     1      28.161  -1.621  53.281  1.00  0.00     0.065 A 
HETATM   30  C25 UNL     1      28.348  -0.420  53.929  1.00  0.00     0.037 A 
HETATM   31  C26 UNL     1      27.398   0.571  53.969  1.00  0.00     0.010 A 
BRANCH  29  32
HETATM   32  O1  UNL     1      29.143  -2.609  53.259  1.00  0.00    -0.361 OA
HETATM   33  H24 UNL     1      29.895  -2.505  52.548  1.00  0.00     0.217 HD
ENDBRANCH  29  32
ENDBRANCH  25  26
ENDBRANCH  11  25
TORSDOF 8
ENDMDL
