MODEL 1
REMARK VINA RESULT:      -9.4      0.000      0.000
REMARK  5 active torsions:
REMARK  status: ('A' for Active; 'I' for Inactive)
REMARK    1  A    between atoms: O1_2  and  C2_3 
REMARK    2  A    between atoms: C6_9  and  N3_10 
REMARK    3  A    between atoms: N3_10  and  C7_11 
REMARK    4  A    between atoms: C15_20  and  N4_21 
REMARK       I    between atoms: N4_21  and  C16_22 
REMARK    5  A    between atoms: C16_22  and  C17_24 
ROOT
HETATM    1  C2  UNL     1      23.243   0.329  53.037  1.00  0.00     0.097 A 
HETATM    2  C3  UNL     1      22.134   0.808  52.371  1.00  0.00     0.071 A 
HETATM    3  C4  UNL     1      22.166   2.058  51.792  1.00  0.00     0.075 A 
HETATM    4  N1  UNL     1      21.048   2.435  51.171  1.00  0.00    -0.241 NA
HETATM    5  C5  UNL     1      20.987   3.638  50.578  1.00  0.00     0.236 A 
HETATM    6  N2  UNL     1      22.074   4.412  50.645  1.00  0.00    -0.224 NA
HETATM    7  C6  UNL     1      23.216   4.125  51.234  1.00  0.00     0.142 A 
HETATM    8  C13 UNL     1      23.263   2.894  51.833  1.00  0.00     0.041 A 
HETATM    9  C14 UNL     1      24.332   2.370  52.506  1.00  0.00     0.050 A 
HETATM   10  C15 UNL     1      24.365   1.131  53.103  1.00  0.00     0.069 A 
ENDROOT
BRANCH  10  11
HETATM   11  N4  UNL     1      25.521   0.660  53.786  1.00  0.00    -0.323 N 
HETATM   12  C16 UNL     1      26.609  -0.009  53.197  1.00  0.00     0.247 C 
HETATM   13  O2  UNL     1      26.544  -0.200  51.961  1.00  0.00    -0.271 OA
HETATM   14  H12 UNL     1      25.365   0.921  54.786  1.00  0.00     0.169 HD
BRANCH  12  15
HETATM   15  C17 UNL     1      27.671  -0.378  54.176  1.00  0.00     0.203 C 
HETATM   16  C18 UNL     1      28.992  -0.673  53.493  1.00  0.00     0.215 C 
HETATM   17  O3  UNL     1      29.511   0.628  53.325  1.00  0.00    -0.301 OA
HETATM   18  C19 UNL     1      29.179   1.360  54.481  1.00  0.00     0.361 C 
HETATM   19  O4  UNL     1      29.702   2.362  55.033  1.00  0.00    -0.238 OA
HETATM   20  N5  UNL     1      28.004   0.740  55.035  1.00  0.00    -0.321 N 
HETATM   21  H16 UNL     1      27.411   0.958  55.889  1.00  0.00     0.165 HD
ENDBRANCH  12  15
ENDBRANCH  10  11
BRANCH   1  22
HETATM   22  O1  UNL     1      23.240  -0.927  53.628  1.00  0.00    -0.354 OA
HETATM   23  C1  UNL     1      22.594  -1.213  54.844  1.00  0.00     0.210 C 
ENDBRANCH   1  22
BRANCH   7  24
HETATM   24  N3  UNL     1      24.362   4.954  51.297  1.00  0.00    -0.340 N 
HETATM   25  H6  UNL     1      24.565   5.555  52.119  1.00  0.00     0.167 HD
BRANCH  24  26
HETATM   26  C7  UNL     1      25.390   5.130  50.344  1.00  0.00     0.035 A 
HETATM   27  C8  UNL     1      26.222   4.119  49.855  1.00  0.00     0.029 A 
HETATM   28  C9  UNL     1      27.210   4.327  48.931  1.00  0.00     0.004 A 
HETATM   29  C10 UNL     1      27.445   5.575  48.422  1.00  0.00     0.019 A 
HETATM   30  C11 UNL     1      26.651   6.604  48.873  1.00  0.00     0.013 A 
HETATM   31 BR1  UNL     1      27.021   8.323  48.131  1.00  0.00    -0.051 Br
HETATM   32  C12 UNL     1      25.669   6.353  49.801  1.00  0.00     0.048 A 
ENDBRANCH  24  26
ENDBRANCH   7  24
TORSDOF 5
ENDMDL
MODEL 2
REMARK VINA RESULT:      -9.1      1.037      1.364
REMARK  5 active torsions:
REMARK  status: ('A' for Active; 'I' for Inactive)
REMARK    1  A    between atoms: O1_2  and  C2_3 
REMARK    2  A    between atoms: C6_9  and  N3_10 
REMARK    3  A    between atoms: N3_10  and  C7_11 
REMARK    4  A    between atoms: C15_20  and  N4_21 
REMARK       I    between atoms: N4_21  and  C16_22 
REMARK    5  A    between atoms: C16_22  and  C17_24 
ROOT
HETATM    1  C2  UNL     1      23.337   0.195  53.191  1.00  0.00     0.097 A 
HETATM    2  C3  UNL     1      22.249   0.541  52.416  1.00  0.00     0.071 A 
HETATM    3  C4  UNL     1      22.408   1.406  51.356  1.00  0.00     0.075 A 
HETATM    4  N1  UNL     1      21.301   1.682  50.665  1.00  0.00    -0.241 NA
HETATM    5  C5  UNL     1      21.360   2.515  49.615  1.00  0.00     0.236 A 
HETATM    6  N2  UNL     1      22.552   3.038  49.310  1.00  0.00    -0.224 NA
HETATM    7  C6  UNL     1      23.693   2.824  49.932  1.00  0.00     0.142 A 
HETATM    8  C13 UNL     1      23.616   1.970  51.002  1.00  0.00     0.041 A 
HETATM    9  C14 UNL     1      24.659   1.594  51.802  1.00  0.00     0.050 A 
HETATM   10  C15 UNL     1      24.567   0.736  52.874  1.00  0.00     0.069 A 
ENDROOT
BRANCH  10  11
HETATM   11  N4  UNL     1      25.703   0.394  53.659  1.00  0.00    -0.323 N 
HETATM   12  C16 UNL     1      26.814  -0.350  53.221  1.00  0.00     0.247 C 
HETATM   13  O2  UNL     1      26.788  -0.741  52.031  1.00  0.00    -0.271 OA
HETATM   14  H12 UNL     1      25.515   0.815  54.597  1.00  0.00     0.169 HD
BRANCH  12  15
HETATM   15  C17 UNL     1      27.846  -0.543  54.279  1.00  0.00     0.203 C 
HETATM   16  C18 UNL     1      29.215  -0.820  53.690  1.00  0.00     0.215 C 
HETATM   17  O3  UNL     1      29.661   0.488  53.403  1.00  0.00    -0.301 OA
HETATM   18  C19 UNL     1      29.227   1.314  54.458  1.00  0.00     0.361 C 
HETATM   19  O4  UNL     1      29.660   2.401  54.920  1.00  0.00    -0.238 OA
HETATM   20  N5  UNL     1      28.066   0.679  55.025  1.00  0.00    -0.321 N 
HETATM   21  H16 UNL     1      27.419   0.946  55.824  1.00  0.00     0.165 HD
ENDBRANCH  12  15
ENDBRANCH  10  11
BRANCH   1  22
HETATM   22  O1  UNL     1      23.207  -0.675  54.265  1.00  0.00    -0.354 OA
HETATM   23  C1  UNL     1      22.023  -1.372  54.563  1.00  0.00     0.210 C 
ENDBRANCH   1  22
BRANCH   7  24
HETATM   24  N3  UNL     1      24.950   3.383  49.600  1.00  0.00    -0.340 N 
HETATM   25  H6  UNL     1      25.743   2.800  49.265  1.00  0.00     0.167 HD
BRANCH  24  26
HETATM   26  C7  UNL     1      25.368   4.731  49.646  1.00  0.00     0.035 A 
HETATM   27  C8  UNL     1      24.781   5.734  50.423  1.00  0.00     0.029 A 
HETATM   28  C9  UNL     1      25.212   7.033  50.440  1.00  0.00     0.004 A 
HETATM   29  C10 UNL     1      26.272   7.432  49.674  1.00  0.00     0.019 A 
HETATM   30  C11 UNL     1      26.884   6.481  48.891  1.00  0.00     0.013 A 
HETATM   31 BR1  UNL     1      28.357   7.092  47.843  1.00  0.00    -0.051 Br
HETATM   32  C12 UNL     1      26.421   5.187  48.902  1.00  0.00     0.048 A 
ENDBRANCH  24  26
ENDBRANCH   7  24
TORSDOF 5
ENDMDL
MODEL 3
REMARK VINA RESULT:      -8.9      1.642      2.240
REMARK  5 active torsions:
REMARK  status: ('A' for Active; 'I' for Inactive)
REMARK    1  A    between atoms: O1_2  and  C2_3 
REMARK    2  A    between atoms: C6_9  and  N3_10 
REMARK    3  A    between atoms: N3_10  and  C7_11 
REMARK    4  A    between atoms: C15_20  and  N4_21 
REMARK       I    between atoms: N4_21  and  C16_22 
REMARK    5  A    between atoms: C16_22  and  C17_24 
ROOT
HETATM    1  C2  UNL     1      24.216   0.835  53.202  1.00  0.00     0.097 A 
HETATM    2  C3  UNL     1      22.926   1.036  52.757  1.00  0.00     0.071 A 
HETATM    3  C4  UNL     1      22.507   2.304  52.417  1.00  0.00     0.075 A 
HETATM    4  N1  UNL     1      21.244   2.402  51.998  1.00  0.00    -0.241 NA
HETATM    5  C5  UNL     1      20.749   3.598  51.646  1.00  0.00     0.236 A 
HETATM    6  N2  UNL     1      21.564   4.652  51.736  1.00  0.00    -0.224 NA
HETATM    7  C6  UNL     1      22.818   4.652  52.138  1.00  0.00     0.142 A 
HETATM    8  C13 UNL     1      23.310   3.423  52.493  1.00  0.00     0.041 A 
HETATM    9  C14 UNL     1      24.576   3.166  52.940  1.00  0.00     0.050 A 
HETATM   10  C15 UNL     1      25.057   1.926  53.294  1.00  0.00     0.069 A 
ENDROOT
BRANCH  10  11
HETATM   11  N4  UNL     1      26.391   1.743  53.751  1.00  0.00    -0.323 N 
HETATM   12  C16 UNL     1      27.551   1.815  52.959  1.00  0.00     0.247 C 
HETATM   13  O2  UNL     1      27.380   2.064  51.743  1.00  0.00    -0.271 OA
HETATM   14  H12 UNL     1      26.298   1.550  54.775  1.00  0.00     0.169 HD
BRANCH  12  15
HETATM   15  C17 UNL     1      28.805   1.576  53.728  1.00  0.00     0.203 C 
HETATM   16  C18 UNL     1      28.526   0.986  55.096  1.00  0.00     0.215 C 
HETATM   17  O3  UNL     1      28.383  -0.382  54.783  1.00  0.00    -0.301 OA
HETATM   18  C19 UNL     1      29.338  -0.682  53.793  1.00  0.00     0.361 C 
HETATM   19  O4  UNL     1      29.915  -1.750  53.464  1.00  0.00    -0.238 OA
HETATM   20  N5  UNL     1      29.616   0.551  53.103  1.00  0.00    -0.321 N 
HETATM   21  H16 UNL     1      30.259   0.792  52.293  1.00  0.00     0.165 HD
ENDBRANCH  12  15
ENDBRANCH  10  11
BRANCH   1  22
HETATM   22  O1  UNL     1      24.666  -0.432  53.551  1.00  0.00    -0.354 OA
HETATM   23  C1  UNL     1      24.738  -0.895  54.877  1.00  0.00     0.210 C 
ENDBRANCH   1  22
BRANCH   7  24
HETATM   24  N3  UNL     1      23.673   5.776  52.229  1.00  0.00    -0.340 N 
HETATM   25  H6  UNL     1      23.994   6.154  53.141  1.00  0.00     0.167 HD
BRANCH  24  26
HETATM   26  C7  UNL     1      24.229   6.561  51.194  1.00  0.00     0.035 A 
HETATM   27  C8  UNL     1      23.776   7.825  50.805  1.00  0.00     0.029 A 
HETATM   28  C9  UNL     1      24.338   8.557  49.794  1.00  0.00     0.004 A 
HETATM   29  C10 UNL     1      25.406   8.075  49.088  1.00  0.00     0.019 A 
HETATM   30  C11 UNL     1      25.889   6.835  49.434  1.00  0.00     0.013 A 
HETATM   31 BR1  UNL     1      27.378   6.212  48.417  1.00  0.00    -0.051 Br
HETATM   32  C12 UNL     1      25.296   6.132  50.455  1.00  0.00     0.048 A 
ENDBRANCH  24  26
ENDBRANCH   7  24
TORSDOF 5
ENDMDL
MODEL 4
REMARK VINA RESULT:      -8.5      4.856      7.247
REMARK  5 active torsions:
REMARK  status: ('A' for Active; 'I' for Inactive)
REMARK    1  A    between atoms: O1_2  and  C2_3 
REMARK    2  A    between atoms: C6_9  and  N3_10 
REMARK    3  A    between atoms: N3_10  and  C7_11 
REMARK    4  A    between atoms: C15_20  and  N4_21 
REMARK       I    between atoms: N4_21  and  C16_22 
REMARK    5  A    between atoms: C16_22  and  C17_24 
ROOT
HETATM    1  C2  UNL     1      19.869  -0.419  52.765  1.00  0.00     0.097 A 
HETATM    2  C3  UNL     1      20.375  -1.035  53.891  1.00  0.00     0.071 A 
HETATM    3  C4  UNL     1      21.723  -0.964  54.166  1.00  0.00     0.075 A 
HETATM    4  N1  UNL     1      22.120  -1.589  55.275  1.00  0.00    -0.241 NA
HETATM    5  C5  UNL     1      23.416  -1.575  55.622  1.00  0.00     0.236 A 
HETATM    6  N2  UNL     1      24.260  -0.920  54.820  1.00  0.00    -0.224 NA
HETATM    7  C6  UNL     1      23.961  -0.278  53.710  1.00  0.00     0.142 A 
HETATM    8  C13 UNL     1      22.634  -0.302  53.369  1.00  0.00     0.041 A 
HETATM    9  C14 UNL     1      22.079   0.289  52.268  1.00  0.00     0.050 A 
HETATM   10  C15 UNL     1      20.744   0.256  51.938  1.00  0.00     0.069 A 
ENDROOT
BRANCH  10  11
HETATM   11  N4  UNL     1      20.246   0.899  50.770  1.00  0.00    -0.323 N 
HETATM   12  C16 UNL     1      19.835   2.241  50.679  1.00  0.00     0.247 C 
HETATM   13  O2  UNL     1      19.921   2.922  51.728  1.00  0.00    -0.271 OA
HETATM   14  H12 UNL     1      20.260   0.158  50.032  1.00  0.00     0.169 HD
BRANCH  12  15
HETATM   15  C17 UNL     1      19.360   2.620  49.318  1.00  0.00     0.203 C 
HETATM   16  C18 UNL     1      19.512   4.106  49.060  1.00  0.00     0.215 C 
HETATM   17  O3  UNL     1      20.868   4.182  48.678  1.00  0.00    -0.301 OA
HETATM   18  C19 UNL     1      21.142   3.046  47.892  1.00  0.00     0.361 C 
HETATM   19  O4  UNL     1      21.995   2.816  46.998  1.00  0.00    -0.238 OA
HETATM   20  N5  UNL     1      20.197   2.035  48.290  1.00  0.00    -0.321 N 
HETATM   21  H16 UNL     1      20.040   1.033  47.973  1.00  0.00     0.165 HD
ENDBRANCH  12  15
ENDBRANCH  10  11
BRANCH   1  22
HETATM   22  O1  UNL     1      18.515  -0.473  52.463  1.00  0.00    -0.354 OA
HETATM   23  C1  UNL     1      17.615  -1.362  53.077  1.00  0.00     0.210 C 
ENDBRANCH   1  22
BRANCH   7  24
HETATM   24  N3  UNL     1      24.865   0.413  52.868  1.00  0.00    -0.340 N 
HETATM   25  H6  UNL     1      24.586   0.770  51.933  1.00  0.00     0.167 HD
BRANCH  24  26
HETATM   26  C7  UNL     1      26.221   0.739  53.090  1.00  0.00     0.035 A 
HETATM   27  C8  UNL     1      26.733   2.035  53.208  1.00  0.00     0.029 A 
HETATM   28  C9  UNL     1      28.056   2.313  53.422  1.00  0.00     0.004 A 
HETATM   29  C10 UNL     1      28.977   1.308  53.534  1.00  0.00     0.019 A 
HETATM   30  C11 UNL     1      28.521   0.015  53.425  1.00  0.00     0.013 A 
HETATM   31 BR1  UNL     1      29.848  -1.347  53.589  1.00  0.00    -0.051 Br
HETATM   32  C12 UNL     1      27.185  -0.222  53.211  1.00  0.00     0.048 A 
ENDBRANCH  24  26
ENDBRANCH   7  24
TORSDOF 5
ENDMDL
MODEL 5
REMARK VINA RESULT:      -8.3      1.824      2.351
REMARK  5 active torsions:
REMARK  status: ('A' for Active; 'I' for Inactive)
REMARK    1  A    between atoms: O1_2  and  C2_3 
REMARK    2  A    between atoms: C6_9  and  N3_10 
REMARK    3  A    between atoms: N3_10  and  C7_11 
REMARK    4  A    between atoms: C15_20  and  N4_21 
REMARK       I    between atoms: N4_21  and  C16_22 
REMARK    5  A    between atoms: C16_22  and  C17_24 
ROOT
HETATM    1  C2  UNL     1      23.685   1.787  51.426  1.00  0.00     0.097 A 
HETATM    2  C3  UNL     1      22.851   2.076  50.366  1.00  0.00     0.071 A 
HETATM    3  C4  UNL     1      23.056   3.217  49.621  1.00  0.00     0.075 A 
HETATM    4  N1  UNL     1      22.200   3.414  48.617  1.00  0.00    -0.241 NA
HETATM    5  C5  UNL     1      22.323   4.499  47.838  1.00  0.00     0.236 A 
HETATM    6  N2  UNL     1      23.319   5.346  48.115  1.00  0.00    -0.224 NA
HETATM    7  C6  UNL     1      24.207   5.235  49.081  1.00  0.00     0.142 A 
HETATM    8  C13 UNL     1      24.069   4.121  49.867  1.00  0.00     0.041 A 
HETATM    9  C14 UNL     1      24.863   3.786  50.928  1.00  0.00     0.050 A 
HETATM   10  C15 UNL     1      24.713   2.664  51.710  1.00  0.00     0.069 A 
ENDROOT
BRANCH  10  11
HETATM   11  N4  UNL     1      25.585   2.387  52.799  1.00  0.00    -0.323 N 
HETATM   12  C16 UNL     1      26.779   1.647  52.730  1.00  0.00     0.247 C 
HETATM   13  O2  UNL     1      27.092   1.197  51.603  1.00  0.00    -0.271 OA
HETATM   14  H12 UNL     1      25.138   2.849  53.623  1.00  0.00     0.169 HD
BRANCH  12  15
HETATM   15  C17 UNL     1      27.475   1.529  54.043  1.00  0.00     0.203 C 
HETATM   16  C18 UNL     1      26.895   0.415  54.893  1.00  0.00     0.215 C 
HETATM   17  O3  UNL     1      27.564  -0.709  54.366  1.00  0.00    -0.301 OA
HETATM   18  C19 UNL     1      28.886  -0.313  54.088  1.00  0.00     0.361 C 
HETATM   19  O4  UNL     1      29.967  -0.951  54.011  1.00  0.00    -0.238 OA
HETATM   20  N5  UNL     1      28.851   1.110  53.871  1.00  0.00    -0.321 N 
HETATM   21  H16 UNL     1      29.604   1.819  53.631  1.00  0.00     0.165 HD
ENDBRANCH  12  15
ENDBRANCH  10  11
BRANCH   1  22
HETATM   22  O1  UNL     1      23.502   0.645  52.193  1.00  0.00    -0.354 OA
HETATM   23  C1  UNL     1      22.462   0.492  53.127  1.00  0.00     0.210 C 
ENDBRANCH   1  22
BRANCH   7  24
HETATM   24  N3  UNL     1      25.259   6.139  49.365  1.00  0.00    -0.340 N 
HETATM   25  H6  UNL     1      25.149   6.921  50.040  1.00  0.00     0.167 HD
BRANCH  24  26
HETATM   26  C7  UNL     1      26.571   6.175  48.842  1.00  0.00     0.035 A 
HETATM   27  C8  UNL     1      27.421   5.072  48.714  1.00  0.00     0.029 A 
HETATM   28  C9  UNL     1      28.689   5.145  48.204  1.00  0.00     0.004 A 
HETATM   29  C10 UNL     1      29.209   6.337  47.780  1.00  0.00     0.019 A 
HETATM   30  C11 UNL     1      28.410   7.451  47.885  1.00  0.00     0.013 A 
HETATM   31 BR1  UNL     1      29.184   9.087  47.280  1.00  0.00    -0.051 Br
HETATM   32  C12 UNL     1      27.142   7.336  48.403  1.00  0.00     0.048 A 
ENDBRANCH  24  26
ENDBRANCH   7  24
TORSDOF 5
ENDMDL
MODEL 6
REMARK VINA RESULT:      -8.3      3.116      5.791
REMARK  5 active torsions:
REMARK  status: ('A' for Active; 'I' for Inactive)
REMARK    1  A    between atoms: O1_2  and  C2_3 
REMARK    2  A    between atoms: C6_9  and  N3_10 
REMARK    3  A    between atoms: N3_10  and  C7_11 
REMARK    4  A    between atoms: C15_20  and  N4_21 
REMARK       I    between atoms: N4_21  and  C16_22 
REMARK    5  A    between atoms: C16_22  and  C17_24 
ROOT
HETATM    1  C2  UNL     1      25.575   3.667  50.108  1.00  0.00     0.097 A 
HETATM    2  C3  UNL     1      24.665   4.028  49.136  1.00  0.00     0.071 A 
HETATM    3  C4  UNL     1      23.314   3.949  49.396  1.00  0.00     0.075 A 
HETATM    4  N1  UNL     1      22.511   4.318  48.397  1.00  0.00    -0.241 NA
HETATM    5  C5  UNL     1      21.180   4.274  48.559  1.00  0.00     0.236 A 
HETATM    6  N2  UNL     1      20.718   3.851  49.740  1.00  0.00    -0.224 NA
HETATM    7  C6  UNL     1      21.431   3.468  50.778  1.00  0.00     0.142 A 
HETATM    8  C13 UNL     1      22.789   3.519  50.597  1.00  0.00     0.041 A 
HETATM    9  C14 UNL     1      23.734   3.174  51.522  1.00  0.00     0.050 A 
HETATM   10  C15 UNL     1      25.095   3.230  51.327  1.00  0.00     0.069 A 
ENDROOT
BRANCH  10  11
HETATM   11  N4  UNL     1      26.014   2.852  52.344  1.00  0.00    -0.323 N 
HETATM   12  C16 UNL     1      26.485   1.549  52.586  1.00  0.00     0.247 C 
HETATM   13  O2  UNL     1      26.049   0.650  51.830  1.00  0.00    -0.271 OA
HETATM   14  H12 UNL     1      26.239   3.742  52.844  1.00  0.00     0.169 HD
BRANCH  12  15
HETATM   15  C17 UNL     1      27.442   1.472  53.725  1.00  0.00     0.203 C 
HETATM   16  C18 UNL     1      27.049   0.401  54.723  1.00  0.00     0.215 C 
HETATM   17  O3  UNL     1      27.583  -0.754  54.113  1.00  0.00    -0.301 OA
HETATM   18  C19 UNL     1      28.819  -0.389  53.546  1.00  0.00     0.361 C 
HETATM   19  O4  UNL     1      29.854  -1.046  53.268  1.00  0.00    -0.238 OA
HETATM   20  N5  UNL     1      28.748   1.025  53.284  1.00  0.00    -0.321 N 
HETATM   21  H16 UNL     1      29.438   1.713  52.861  1.00  0.00     0.165 HD
ENDBRANCH  12  15
ENDBRANCH  10  11
BRANCH   1  22
HETATM   22  O1  UNL     1      26.942   3.737  49.874  1.00  0.00    -0.354 OA
HETATM   23  C1  UNL     1      27.519   4.529  48.866  1.00  0.00     0.210 C 
ENDBRANCH   1  22
BRANCH   7  24
HETATM   24  N3  UNL     1      20.930   3.022  52.025  1.00  0.00    -0.340 N 
HETATM   25  H6  UNL     1      20.868   3.648  52.851  1.00  0.00     0.167 HD
BRANCH  24  26
HETATM   26  C7  UNL     1      20.449   1.744  52.388  1.00  0.00     0.035 A 
HETATM   27  C8  UNL     1      19.231   1.193  51.980  1.00  0.00     0.029 A 
HETATM   28  C9  UNL     1      18.795  -0.050  52.354  1.00  0.00     0.004 A 
HETATM   29  C10 UNL     1      19.551  -0.842  53.175  1.00  0.00     0.019 A 
HETATM   30  C11 UNL     1      20.759  -0.342  53.603  1.00  0.00     0.013 A 
HETATM   31 BR1  UNL     1      21.771  -1.488  54.745  1.00  0.00    -0.051 Br
HETATM   32  C12 UNL     1      21.160   0.910  53.204  1.00  0.00     0.048 A 
ENDBRANCH  24  26
ENDBRANCH   7  24
TORSDOF 5
ENDMDL
MODEL 7
REMARK VINA RESULT:      -8.2      2.841      4.192
REMARK  5 active torsions:
REMARK  status: ('A' for Active; 'I' for Inactive)
REMARK    1  A    between atoms: O1_2  and  C2_3 
REMARK    2  A    between atoms: C6_9  and  N3_10 
REMARK    3  A    between atoms: N3_10  and  C7_11 
REMARK    4  A    between atoms: C15_20  and  N4_21 
REMARK       I    between atoms: N4_21  and  C16_22 
REMARK    5  A    between atoms: C16_22  and  C17_24 
ROOT
HETATM    1  C2  UNL     1      23.699   3.269  49.895  1.00  0.00     0.097 A 
HETATM    2  C3  UNL     1      23.176   4.187  49.008  1.00  0.00     0.071 A 
HETATM    3  C4  UNL     1      23.939   5.259  48.600  1.00  0.00     0.075 A 
HETATM    4  N1  UNL     1      23.350   6.094  47.742  1.00  0.00    -0.241 NA
HETATM    5  C5  UNL     1      24.017   7.167  47.290  1.00  0.00     0.236 A 
HETATM    6  N2  UNL     1      25.264   7.347  47.733  1.00  0.00    -0.224 NA
HETATM    7  C6  UNL     1      25.924   6.581  48.576  1.00  0.00     0.142 A 
HETATM    8  C13 UNL     1      25.230   5.489  49.028  1.00  0.00     0.041 A 
HETATM    9  C14 UNL     1      25.697   4.550  49.905  1.00  0.00     0.050 A 
HETATM   10  C15 UNL     1      24.988   3.458  50.352  1.00  0.00     0.069 A 
ENDROOT
BRANCH  10  11
HETATM   11  N4  UNL     1      25.548   2.525  51.267  1.00  0.00    -0.323 N 
HETATM   12  C16 UNL     1      25.268   2.451  52.644  1.00  0.00     0.247 C 
HETATM   13  O2  UNL     1      24.449   3.287  53.091  1.00  0.00    -0.271 OA
HETATM   14  H12 UNL     1      26.190   1.937  50.689  1.00  0.00     0.169 HD
BRANCH  12  15
HETATM   15  C17 UNL     1      26.014   1.363  53.338  1.00  0.00     0.203 C 
HETATM   16  C18 UNL     1      27.002   0.677  52.416  1.00  0.00     0.215 C 
HETATM   17  O3  UNL     1      28.100   1.560  52.482  1.00  0.00    -0.301 OA
HETATM   18  C19 UNL     1      28.193   2.007  53.815  1.00  0.00     0.361 C 
HETATM   19  O4  UNL     1      29.153   2.438  54.503  1.00  0.00    -0.238 OA
HETATM   20  N5  UNL     1      26.872   1.897  54.377  1.00  0.00    -0.321 N 
HETATM   21  H16 UNL     1      26.477   2.124  55.336  1.00  0.00     0.165 HD
ENDBRANCH  12  15
ENDBRANCH  10  11
BRANCH   1  22
HETATM   22  O1  UNL     1      22.953   2.179  50.324  1.00  0.00    -0.354 OA
HETATM   23  C1  UNL     1      21.559   2.082  50.173  1.00  0.00     0.210 C 
ENDBRANCH   1  22
BRANCH   7  24
HETATM   24  N3  UNL     1      27.247   6.782  49.039  1.00  0.00    -0.340 N 
HETATM   25  H6  UNL     1      27.472   6.866  50.049  1.00  0.00     0.167 HD
BRANCH  24  26
HETATM   26  C7  UNL     1      28.443   6.901  48.297  1.00  0.00     0.035 A 
HETATM   27  C8  UNL     1      28.782   7.982  47.477  1.00  0.00     0.029 A 
HETATM   28  C9  UNL     1      29.951   8.063  46.770  1.00  0.00     0.004 A 
HETATM   29  C10 UNL     1      30.879   7.059  46.829  1.00  0.00     0.019 A 
HETATM   30  C11 UNL     1      30.591   5.974  47.623  1.00  0.00     0.013 A 
HETATM   31 BR1  UNL     1      31.919   4.604  47.669  1.00  0.00    -0.051 Br
HETATM   32  C12 UNL     1      29.406   5.931  48.317  1.00  0.00     0.048 A 
ENDBRANCH  24  26
ENDBRANCH   7  24
TORSDOF 5
ENDMDL
MODEL 8
REMARK VINA RESULT:      -8.2      1.637      1.992
REMARK  5 active torsions:
REMARK  status: ('A' for Active; 'I' for Inactive)
REMARK    1  A    between atoms: O1_2  and  C2_3 
REMARK    2  A    between atoms: C6_9  and  N3_10 
REMARK    3  A    between atoms: N3_10  and  C7_11 
REMARK    4  A    between atoms: C15_20  and  N4_21 
REMARK       I    between atoms: N4_21  and  C16_22 
REMARK    5  A    between atoms: C16_22  and  C17_24 
ROOT
HETATM    1  C2  UNL     1      21.514   0.757  53.356  1.00  0.00     0.097 A 
HETATM    2  C3  UNL     1      20.472   1.577  52.975  1.00  0.00     0.071 A 
HETATM    3  C4  UNL     1      20.573   2.324  51.821  1.00  0.00     0.075 A 
HETATM    4  N1  UNL     1      19.518   3.087  51.533  1.00  0.00    -0.241 NA
HETATM    5  C5  UNL     1      19.526   3.849  50.429  1.00  0.00     0.236 A 
HETATM    6  N2  UNL     1      20.617   3.804  49.659  1.00  0.00    -0.224 NA
HETATM    7  C6  UNL     1      21.701   3.086  49.863  1.00  0.00     0.142 A 
HETATM    8  C13 UNL     1      21.677   2.312  50.994  1.00  0.00     0.041 A 
HETATM    9  C14 UNL     1      22.678   1.483  51.419  1.00  0.00     0.050 A 
HETATM   10  C15 UNL     1      22.640   0.712  52.558  1.00  0.00     0.069 A 
ENDROOT
BRANCH  10  11
HETATM   11  N4  UNL     1      23.727  -0.126  52.932  1.00  0.00    -0.323 N 
HETATM   12  C16 UNL     1      24.949   0.304  53.480  1.00  0.00     0.247 C 
HETATM   13  O2  UNL     1      25.078   1.539  53.651  1.00  0.00    -0.271 OA
HETATM   14  H12 UNL     1      23.406  -1.095  52.706  1.00  0.00     0.169 HD
BRANCH  12  15
HETATM   15  C17 UNL     1      25.891  -0.814  53.767  1.00  0.00     0.203 C 
HETATM   16  C18 UNL     1      26.825  -1.080  52.602  1.00  0.00     0.215 C 
HETATM   17  O3  UNL     1      27.819  -0.102  52.817  1.00  0.00    -0.301 OA
HETATM   18  C19 UNL     1      28.029  -0.024  54.208  1.00  0.00     0.361 C 
HETATM   19  O4  UNL     1      29.015   0.336  54.900  1.00  0.00    -0.238 OA
HETATM   20  N5  UNL     1      26.809  -0.466  54.832  1.00  0.00    -0.321 N 
HETATM   21  H16 UNL     1      26.517  -0.564  55.849  1.00  0.00     0.165 HD
ENDBRANCH  12  15
ENDBRANCH  10  11
BRANCH   1  22
HETATM   22  O1  UNL     1      21.440  -0.008  54.512  1.00  0.00    -0.354 OA
HETATM   23  C1  UNL     1      21.082  -1.368  54.525  1.00  0.00     0.210 C 
ENDBRANCH   1  22
BRANCH   7  24
HETATM   24  N3  UNL     1      22.852   3.045  49.039  1.00  0.00    -0.340 N 
HETATM   25  H6  UNL     1      22.960   2.350  48.274  1.00  0.00     0.167 HD
BRANCH  24  26
HETATM   26  C7  UNL     1      24.002   3.864  49.072  1.00  0.00     0.035 A 
HETATM   27  C8  UNL     1      25.279   3.450  49.462  1.00  0.00     0.029 A 
HETATM   28  C9  UNL     1      26.372   4.274  49.483  1.00  0.00     0.004 A 
HETATM   29  C10 UNL     1      26.270   5.587  49.113  1.00  0.00     0.019 A 
HETATM   30  C11 UNL     1      25.033   6.042  48.721  1.00  0.00     0.013 A 
HETATM   31 BR1  UNL     1      24.947   7.880  48.216  1.00  0.00    -0.051 Br
HETATM   32  C12 UNL     1      23.961   5.182  48.713  1.00  0.00     0.048 A 
ENDBRANCH  24  26
ENDBRANCH   7  24
TORSDOF 5
ENDMDL
MODEL 9
REMARK VINA RESULT:      -8.1      2.795      6.029
REMARK  5 active torsions:
REMARK  status: ('A' for Active; 'I' for Inactive)
REMARK    1  A    between atoms: O1_2  and  C2_3 
REMARK    2  A    between atoms: C6_9  and  N3_10 
REMARK    3  A    between atoms: N3_10  and  C7_11 
REMARK    4  A    between atoms: C15_20  and  N4_21 
REMARK       I    between atoms: N4_21  and  C16_22 
REMARK    5  A    between atoms: C16_22  and  C17_24 
ROOT
HETATM    1  C2  UNL     1      23.225   0.509  53.106  1.00  0.00     0.097 A 
HETATM    2  C3  UNL     1      24.472   0.611  53.686  1.00  0.00     0.071 A 
HETATM    3  C4  UNL     1      25.486   1.271  53.026  1.00  0.00     0.075 A 
HETATM    4  N1  UNL     1      26.656   1.319  53.664  1.00  0.00    -0.241 NA
HETATM    5  C5  UNL     1      27.700   1.941  53.097  1.00  0.00     0.236 A 
HETATM    6  N2  UNL     1      27.510   2.492  51.895  1.00  0.00    -0.224 NA
HETATM    7  C6  UNL     1      26.396   2.494  51.192  1.00  0.00     0.142 A 
HETATM    8  C13 UNL     1      25.338   1.855  51.785  1.00  0.00     0.041 A 
HETATM    9  C14 UNL     1      24.084   1.723  51.257  1.00  0.00     0.050 A 
HETATM   10  C15 UNL     1      23.031   1.079  51.863  1.00  0.00     0.069 A 
ENDROOT
BRANCH  10  11
HETATM   11  N4  UNL     1      21.753   0.985  51.244  1.00  0.00    -0.323 N 
HETATM   12  C16 UNL     1      20.696   1.901  51.394  1.00  0.00     0.247 C 
HETATM   13  O2  UNL     1      20.912   2.883  52.142  1.00  0.00    -0.271 OA
HETATM   14  H12 UNL     1      21.795   0.108  50.679  1.00  0.00     0.169 HD
BRANCH  12  15
HETATM   15  C17 UNL     1      19.481   1.528  50.617  1.00  0.00     0.203 C 
HETATM   16  C18 UNL     1      18.423   2.613  50.665  1.00  0.00     0.215 C 
HETATM   17  O3  UNL     1      18.879   3.488  49.656  1.00  0.00    -0.301 OA
HETATM   18  C19 UNL     1      19.376   2.688  48.608  1.00  0.00     0.361 C 
HETATM   19  O4  UNL     1      19.508   2.889  47.374  1.00  0.00    -0.238 OA
HETATM   20  N5  UNL     1      19.773   1.437  49.200  1.00  0.00    -0.321 N 
HETATM   21  H16 UNL     1      20.200   0.553  48.794  1.00  0.00     0.165 HD
ENDBRANCH  12  15
ENDBRANCH  10  11
BRANCH   1  22
HETATM   22  O1  UNL     1      22.185  -0.150  53.748  1.00  0.00    -0.354 OA
HETATM   23  C1  UNL     1      22.377  -1.189  54.676  1.00  0.00     0.210 C 
ENDBRANCH   1  22
BRANCH   7  24
HETATM   24  N3  UNL     1      26.206   3.082  49.919  1.00  0.00    -0.340 N 
HETATM   25  H6  UNL     1      25.787   2.558  49.125  1.00  0.00     0.167 HD
BRANCH  24  26
HETATM   26  C7  UNL     1      26.513   4.391  49.485  1.00  0.00     0.035 A 
HETATM   27  C8  UNL     1      27.611   4.744  48.695  1.00  0.00     0.029 A 
HETATM   28  C9  UNL     1      27.880   6.025  48.295  1.00  0.00     0.004 A 
HETATM   29  C10 UNL     1      27.062   7.060  48.658  1.00  0.00     0.019 A 
HETATM   30  C11 UNL     1      25.967   6.763  49.435  1.00  0.00     0.013 A 
HETATM   31 BR1  UNL     1      24.862   8.243  49.912  1.00  0.00    -0.051 Br
HETATM   32  C12 UNL     1      25.734   5.463  49.816  1.00  0.00     0.048 A 
ENDBRANCH  24  26
ENDBRANCH   7  24
TORSDOF 5
ENDMDL
