MODEL 1
REMARK VINA RESULT:      -8.0      0.000      0.000
REMARK  7 active torsions:
REMARK  status: ('A' for Active; 'I' for Inactive)
REMARK    1  A    between atoms: C1_2  and  N1_3 
REMARK    2  A    between atoms: C1_2  and  N3_11 
REMARK    3  A    between atoms: N1_3  and  C2_4 
REMARK    4  A    between atoms: C2_4  and  C3_5 
REMARK    5  A    between atoms: N3_11  and  C7_12 
REMARK    6  A    between atoms: C12_19  and  N6_20 
REMARK    7  A    between atoms: N6_20  and  C13_21 
ROOT
HETATM    1  C7  UNL     1      24.178   5.065  50.303  1.00  0.00     0.145 C 
HETATM    2  C8  UNL     1      24.059   3.737  49.489  1.00  0.00     0.044 C 
HETATM    3  C9  UNL     1      24.303   2.606  50.471  1.00  0.00     0.106 C 
HETATM    4  C10 UNL     1      23.100   2.469  51.435  1.00  0.00     0.365 A 
HETATM    5  N4  UNL     1      23.499   3.658  52.425  1.00  0.00    -0.062 NA
HETATM    6  C11 UNL     1      23.465   4.678  51.569  1.00  0.00     0.309 A 
HETATM    7  N5  UNL     1      24.285   3.571  51.923  1.00  0.00     0.085 N 
HETATM    8  C12 UNL     1      25.344   3.248  51.412  1.00  0.00     0.215 C 
ENDROOT
BRANCH   1   9
HETATM    9  N3  UNL     1      25.472   5.559  50.457  1.00  0.00    -0.359 N 
HETATM   10  H12 UNL     1      26.025   5.013  51.151  1.00  0.00     0.162 HD
BRANCH   9  11
HETATM   11  C1  UNL     1      26.105   6.667  49.843  1.00  0.00     0.168 C 
HETATM   12  S1  UNL     1      25.398   8.145  49.776  1.00  0.00    -0.041 SA
BRANCH  11  13
HETATM   13  N1  UNL     1      27.412   6.524  49.249  1.00  0.00    -0.365 N 
HETATM   14  H1  UNL     1      27.837   5.546  49.267  1.00  0.00     0.161 HD
BRANCH  13  15
HETATM   15  C2  UNL     1      28.130   7.600  48.661  1.00  0.00     0.149 C 
BRANCH  15  16
HETATM   16  C3  UNL     1      29.583   7.311  48.349  1.00  0.00     0.118 C 
HETATM   17  C4  UNL     1      29.757   5.828  48.285  1.00  0.00     0.194 C 
HETATM   18  O1  UNL     1      31.016   5.386  48.629  1.00  0.00    -0.387 OA
HETATM   19  C5  UNL     1      31.522   5.947  49.783  1.00  0.00     0.186 C 
HETATM   20  C6  UNL     1      31.702   7.426  49.493  1.00  0.00     0.140 C 
HETATM   21  N2  UNL     1      30.394   7.983  49.303  1.00  0.00    -0.411 N 
HETATM   22  H11 UNL     1      29.943   8.380  50.125  1.00  0.00     0.153 HD
ENDBRANCH  15  16
ENDBRANCH  13  15
ENDBRANCH  11  13
ENDBRANCH   9  11
ENDBRANCH   1   9
BRANCH   8  23
HETATM   23  N6  UNL     1      26.698   3.115  51.198  1.00  0.00    -0.338 N 
HETATM   24  H19 UNL     1      27.258   3.740  50.603  1.00  0.00     0.167 HD
BRANCH  23  25
HETATM   25  C13 UNL     1      27.064   1.985  51.947  1.00  0.00     0.034 A 
HETATM   26  C14 UNL     1      27.880   2.386  52.981  1.00  0.00     0.029 A 
HETATM   27  C15 UNL     1      28.380   1.459  53.870  1.00  0.00     0.004 A 
HETATM   28  C16 UNL     1      28.118   0.105  53.806  1.00  0.00     0.019 A 
HETATM   29  C17 UNL     1      27.300  -0.277  52.765  1.00  0.00     0.013 A 
HETATM   30 BR1  UNL     1      26.806  -2.074  52.479  1.00  0.00    -0.051 Br
HETATM   31  C18 UNL     1      26.811   0.661  51.891  1.00  0.00     0.048 A 
ENDBRANCH  23  25
ENDBRANCH   8  23
TORSDOF 7
ENDMDL
MODEL 2
REMARK VINA RESULT:      -8.0      3.750      5.557
REMARK  7 active torsions:
REMARK  status: ('A' for Active; 'I' for Inactive)
REMARK    1  A    between atoms: C1_2  and  N1_3 
REMARK    2  A    between atoms: C1_2  and  N3_11 
REMARK    3  A    between atoms: N1_3  and  C2_4 
REMARK    4  A    between atoms: C2_4  and  C3_5 
REMARK    5  A    between atoms: N3_11  and  C7_12 
REMARK    6  A    between atoms: C12_19  and  N6_20 
REMARK    7  A    between atoms: N6_20  and  C13_21 
ROOT
HETATM    1  C7  UNL     1      23.487   4.428  50.141  1.00  0.00     0.145 C 
HETATM    2  C8  UNL     1      22.294   3.773  49.375  1.00  0.00     0.044 C 
HETATM    3  C9  UNL     1      21.426   3.100  50.422  1.00  0.00     0.106 C 
HETATM    4  C10 UNL     1      20.685   4.167  51.264  1.00  0.00     0.365 A 
HETATM    5  N4  UNL     1      21.897   4.531  52.240  1.00  0.00    -0.062 NA
HETATM    6  C11 UNL     1      22.773   4.981  51.342  1.00  0.00     0.309 A 
HETATM    7  N5  UNL     1      22.226   3.759  51.823  1.00  0.00     0.085 N 
HETATM    8  C12 UNL     1      22.491   2.633  51.436  1.00  0.00     0.215 C 
ENDROOT
BRANCH   1   9
HETATM    9  N3  UNL     1      24.564   3.584  50.404  1.00  0.00    -0.359 N 
HETATM   10  H12 UNL     1      24.262   2.657  50.772  1.00  0.00     0.162 HD
BRANCH   9  11
HETATM   11  C1  UNL     1      25.956   3.811  50.267  1.00  0.00     0.168 C 
HETATM   12  S1  UNL     1      26.567   4.787  49.100  1.00  0.00    -0.041 SA
BRANCH  11  13
HETATM   13  N1  UNL     1      26.890   3.178  51.166  1.00  0.00    -0.365 N 
HETATM   14  H1  UNL     1      27.786   3.716  51.375  1.00  0.00     0.161 HD
BRANCH  13  15
HETATM   15  C2  UNL     1      26.668   1.907  51.763  1.00  0.00     0.149 C 
BRANCH  15  16
HETATM   16  C3  UNL     1      26.939   1.838  53.250  1.00  0.00     0.118 C 
HETATM   17  C4  UNL     1      28.323   2.346  53.494  1.00  0.00     0.194 C 
HETATM   18  O1  UNL     1      28.943   1.804  54.599  1.00  0.00    -0.387 OA
HETATM   19  C5  UNL     1      28.838   0.432  54.697  1.00  0.00     0.186 C 
HETATM   20  C6  UNL     1      27.365   0.132  54.900  1.00  0.00     0.140 C 
HETATM   21  N2  UNL     1      26.684   0.512  53.696  1.00  0.00    -0.411 N 
HETATM   22  H11 UNL     1      26.555  -0.216  52.996  1.00  0.00     0.153 HD
ENDBRANCH  15  16
ENDBRANCH  13  15
ENDBRANCH  11  13
ENDBRANCH   9  11
ENDBRANCH   1   9
BRANCH   8  23
HETATM   23  N6  UNL     1      23.063   1.383  51.366  1.00  0.00    -0.338 N 
HETATM   24  H19 UNL     1      23.868   1.143  50.771  1.00  0.00     0.167 HD
BRANCH  23  25
HETATM   25  C13 UNL     1      22.305   0.597  52.249  1.00  0.00     0.034 A 
HETATM   26  C14 UNL     1      23.128   0.146  53.256  1.00  0.00     0.029 A 
HETATM   27  C15 UNL     1      22.623  -0.653  54.259  1.00  0.00     0.004 A 
HETATM   28  C16 UNL     1      21.304  -1.052  54.341  1.00  0.00     0.019 A 
HETATM   29  C17 UNL     1      20.496  -0.590  53.326  1.00  0.00     0.013 A 
HETATM   30 BR1  UNL     1      18.659  -1.007  53.229  1.00  0.00    -0.051 Br
HETATM   31  C18 UNL     1      21.017   0.204  52.336  1.00  0.00     0.048 A 
ENDBRANCH  23  25
ENDBRANCH   8  23
TORSDOF 7
ENDMDL
MODEL 3
REMARK VINA RESULT:      -7.8      4.380      6.685
REMARK  7 active torsions:
REMARK  status: ('A' for Active; 'I' for Inactive)
REMARK    1  A    between atoms: C1_2  and  N1_3 
REMARK    2  A    between atoms: C1_2  and  N3_11 
REMARK    3  A    between atoms: N1_3  and  C2_4 
REMARK    4  A    between atoms: C2_4  and  C3_5 
REMARK    5  A    between atoms: N3_11  and  C7_12 
REMARK    6  A    between atoms: C12_19  and  N6_20 
REMARK    7  A    between atoms: N6_20  and  C13_21 
ROOT
HETATM    1  C7  UNL     1      21.366   1.249  52.206  1.00  0.00     0.145 C 
HETATM    2  C8  UNL     1      20.623   2.571  52.577  1.00  0.00     0.044 C 
HETATM    3  C9  UNL     1      21.076   3.617  51.574  1.00  0.00     0.106 C 
HETATM    4  C10 UNL     1      20.469   3.318  50.182  1.00  0.00     0.365 A 
HETATM    5  N4  UNL     1      21.510   2.187  49.747  1.00  0.00    -0.062 NA
HETATM    6  C11 UNL     1      21.274   1.292  50.706  1.00  0.00     0.309 A 
HETATM    7  N5  UNL     1      21.932   2.537  50.506  1.00  0.00     0.085 N 
HETATM    8  C12 UNL     1      22.540   3.189  51.339  1.00  0.00     0.215 C 
ENDROOT
BRANCH   1   9
HETATM    9  N3  UNL     1      22.648   1.114  52.736  1.00  0.00    -0.359 N 
HETATM   10  H12 UNL     1      23.254   1.934  52.523  1.00  0.00     0.162 HD
BRANCH   9  11
HETATM   11  C1  UNL     1      23.223   0.050  53.474  1.00  0.00     0.168 C 
HETATM   12  S1  UNL     1      22.326  -0.913  54.452  1.00  0.00    -0.041 SA
BRANCH  11  13
HETATM   13  N1  UNL     1      24.637  -0.219  53.384  1.00  0.00    -0.365 N 
HETATM   14  H1  UNL     1      25.094  -0.046  52.437  1.00  0.00     0.161 HD
BRANCH  13  15
HETATM   15  C2  UNL     1      25.418  -0.693  54.474  1.00  0.00     0.149 C 
BRANCH  15  16
HETATM   16  C3  UNL     1      26.528   0.233  54.921  1.00  0.00     0.118 C 
HETATM   17  C4  UNL     1      26.362   1.536  54.207  1.00  0.00     0.194 C 
HETATM   18  O1  UNL     1      27.536   2.225  53.998  1.00  0.00    -0.387 OA
HETATM   19  C5  UNL     1      28.568   1.457  53.501  1.00  0.00     0.186 C 
HETATM   20  C6  UNL     1      28.906   0.447  54.582  1.00  0.00     0.140 C 
HETATM   21  N2  UNL     1      27.774  -0.422  54.720  1.00  0.00    -0.411 N 
HETATM   22  H11 UNL     1      27.785  -1.277  54.166  1.00  0.00     0.153 HD
ENDBRANCH  15  16
ENDBRANCH  13  15
ENDBRANCH  11  13
ENDBRANCH   9  11
ENDBRANCH   1   9
BRANCH   8  23
HETATM   23  N6  UNL     1      23.579   3.708  52.080  1.00  0.00    -0.338 N 
HETATM   24  H19 UNL     1      23.555   3.843  53.100  1.00  0.00     0.167 HD
BRANCH  23  25
HETATM   25  C13 UNL     1      24.582   3.983  51.136  1.00  0.00     0.034 A 
HETATM   26  C14 UNL     1      25.355   2.856  50.975  1.00  0.00     0.029 A 
HETATM   27  C15 UNL     1      26.417   2.864  50.096  1.00  0.00     0.004 A 
HETATM   28  C16 UNL     1      26.782   3.954  49.333  1.00  0.00     0.019 A 
HETATM   29  C17 UNL     1      25.996   5.072  49.507  1.00  0.00     0.013 A 
HETATM   30 BR1  UNL     1      26.306   6.680  48.571  1.00  0.00    -0.051 Br
HETATM   31  C18 UNL     1      24.943   5.045  50.387  1.00  0.00     0.048 A 
ENDBRANCH  23  25
ENDBRANCH   8  23
TORSDOF 7
ENDMDL
MODEL 4
REMARK VINA RESULT:      -7.8      1.752      2.132
REMARK  7 active torsions:
REMARK  status: ('A' for Active; 'I' for Inactive)
REMARK    1  A    between atoms: C1_2  and  N1_3 
REMARK    2  A    between atoms: C1_2  and  N3_11 
REMARK    3  A    between atoms: N1_3  and  C2_4 
REMARK    4  A    between atoms: C2_4  and  C3_5 
REMARK    5  A    between atoms: N3_11  and  C7_12 
REMARK    6  A    between atoms: C12_19  and  N6_20 
REMARK    7  A    between atoms: N6_20  and  C13_21 
ROOT
HETATM    1  C7  UNL     1      23.739   4.811  50.734  1.00  0.00     0.145 C 
HETATM    2  C8  UNL     1      23.699   3.503  49.882  1.00  0.00     0.044 C 
HETATM    3  C9  UNL     1      24.124   2.375  50.804  1.00  0.00     0.106 C 
HETATM    4  C10 UNL     1      23.011   2.086  51.840  1.00  0.00     0.365 A 
HETATM    5  N4  UNL     1      23.354   3.280  52.844  1.00  0.00    -0.062 NA
HETATM    6  C11 UNL     1      23.158   4.316  52.029  1.00  0.00     0.309 A 
HETATM    7  N5  UNL     1      24.109   3.290  52.288  1.00  0.00     0.085 N 
HETATM    8  C12 UNL     1      25.157   3.094  51.697  1.00  0.00     0.215 C 
ENDROOT
BRANCH   1   9
HETATM    9  N3  UNL     1      24.983   5.432  50.820  1.00  0.00    -0.359 N 
HETATM   10  H12 UNL     1      25.564   5.052  51.598  1.00  0.00     0.162 HD
BRANCH   9  11
HETATM   11  C1  UNL     1      25.537   6.480  50.044  1.00  0.00     0.168 C 
HETATM   12  S1  UNL     1      25.368   6.536  48.414  1.00  0.00    -0.041 SA
BRANCH  11  13
HETATM   13  N1  UNL     1      26.276   7.544  50.676  1.00  0.00    -0.365 N 
HETATM   14  H1  UNL     1      26.804   7.291  51.567  1.00  0.00     0.161 HD
BRANCH  13  15
HETATM   15  C2  UNL     1      26.326   8.873  50.174  1.00  0.00     0.149 C 
BRANCH  15  16
HETATM   16  C3  UNL     1      27.717   9.439  49.987  1.00  0.00     0.118 C 
HETATM   17  C4  UNL     1      27.636  10.545  48.985  1.00  0.00     0.194 C 
HETATM   18  O1  UNL     1      28.789  10.738  48.254  1.00  0.00    -0.387 OA
HETATM   19  C5  UNL     1      29.344   9.582  47.748  1.00  0.00     0.186 C 
HETATM   20  C6  UNL     1      29.784   8.762  48.947  1.00  0.00     0.140 C 
HETATM   21  N2  UNL     1      28.599   8.375  49.656  1.00  0.00    -0.411 N 
HETATM   22  H11 UNL     1      28.196   7.473  49.410  1.00  0.00     0.153 HD
ENDBRANCH  15  16
ENDBRANCH  13  15
ENDBRANCH  11  13
ENDBRANCH   9  11
ENDBRANCH   1   9
BRANCH   8  23
HETATM   23  N6  UNL     1      26.500   3.108  51.390  1.00  0.00    -0.338 N 
HETATM   24  H19 UNL     1      26.955   3.822  50.805  1.00  0.00     0.167 HD
BRANCH  23  25
HETATM   25  C13 UNL     1      27.021   1.975  52.035  1.00  0.00     0.034 A 
HETATM   26  C14 UNL     1      28.011   2.378  52.902  1.00  0.00     0.029 A 
HETATM   27  C15 UNL     1      28.688   1.448  53.662  1.00  0.00     0.004 A 
HETATM   28  C16 UNL     1      28.443   0.090  53.624  1.00  0.00     0.019 A 
HETATM   29  C17 UNL     1      27.448  -0.294  52.751  1.00  0.00     0.013 A 
HETATM   30 BR1  UNL     1      26.939  -2.096  52.530  1.00  0.00    -0.051 Br
HETATM   31  C18 UNL     1      26.785   0.647  52.003  1.00  0.00     0.048 A 
ENDBRANCH  23  25
ENDBRANCH   8  23
TORSDOF 7
ENDMDL
MODEL 5
REMARK VINA RESULT:      -7.5      4.675      7.828
REMARK  7 active torsions:
REMARK  status: ('A' for Active; 'I' for Inactive)
REMARK    1  A    between atoms: C1_2  and  N1_3 
REMARK    2  A    between atoms: C1_2  and  N3_11 
REMARK    3  A    between atoms: N1_3  and  C2_4 
REMARK    4  A    between atoms: C2_4  and  C3_5 
REMARK    5  A    between atoms: N3_11  and  C7_12 
REMARK    6  A    between atoms: C12_19  and  N6_20 
REMARK    7  A    between atoms: N6_20  and  C13_21 
ROOT
HETATM    1  C7  UNL     1      25.505  -0.446  53.654  1.00  0.00     0.145 C 
HETATM    2  C8  UNL     1      26.546  -0.599  52.500  1.00  0.00     0.044 C 
HETATM    3  C9  UNL     1      26.986   0.804  52.127  1.00  0.00     0.106 C 
HETATM    4  C10 UNL     1      27.874   1.398  53.247  1.00  0.00     0.365 A 
HETATM    5  N4  UNL     1      26.693   1.834  54.231  1.00  0.00    -0.062 NA
HETATM    6  C11 UNL     1      26.153   0.639  54.467  1.00  0.00     0.309 A 
HETATM    7  N5  UNL     1      26.214   1.633  53.451  1.00  0.00     0.085 N 
HETATM    8  C12 UNL     1      25.682   1.596  52.355  1.00  0.00     0.215 C 
ENDROOT
BRANCH   1   9
HETATM    9  N3  UNL     1      24.193  -0.207  53.250  1.00  0.00    -0.359 N 
HETATM   10  H12 UNL     1      24.143   0.383  52.393  1.00  0.00     0.162 HD
BRANCH   9  11
HETATM   11  C1  UNL     1      22.969  -0.620  53.831  1.00  0.00     0.168 C 
HETATM   12  S1  UNL     1      22.911  -1.402  55.271  1.00  0.00    -0.041 SA
BRANCH  11  13
HETATM   13  N1  UNL     1      21.719  -0.360  53.161  1.00  0.00    -0.365 N 
HETATM   14  H1  UNL     1      21.340  -1.142  52.543  1.00  0.00     0.161 HD
BRANCH  13  15
HETATM   15  C2  UNL     1      20.998   0.858  53.287  1.00  0.00     0.149 C 
BRANCH  15  16
HETATM   16  C3  UNL     1      21.332   1.914  52.256  1.00  0.00     0.118 C 
HETATM   17  C4  UNL     1      20.372   3.047  52.424  1.00  0.00     0.194 C 
HETATM   18  O1  UNL     1      20.113   3.752  51.269  1.00  0.00    -0.387 OA
HETATM   19  C5  UNL     1      19.842   2.965  50.169  1.00  0.00     0.186 C 
HETATM   20  C6  UNL     1      21.117   2.198  49.871  1.00  0.00     0.140 C 
HETATM   21  N2  UNL     1      21.343   1.306  50.971  1.00  0.00    -0.411 N 
HETATM   22  H11 UNL     1      20.965   0.365  50.880  1.00  0.00     0.153 HD
ENDBRANCH  15  16
ENDBRANCH  13  15
ENDBRANCH  11  13
ENDBRANCH   9  11
ENDBRANCH   1   9
BRANCH   8  23
HETATM   23  N6  UNL     1      24.771   1.806  51.343  1.00  0.00    -0.338 N 
HETATM   24  H19 UNL     1      24.012   1.156  51.098  1.00  0.00     0.167 HD
BRANCH  23  25
HETATM   25  C13 UNL     1      25.143   3.040  50.785  1.00  0.00     0.034 A 
HETATM   26  C14 UNL     1      24.199   3.982  51.130  1.00  0.00     0.029 A 
HETATM   27  C15 UNL     1      24.332   5.286  50.703  1.00  0.00     0.004 A 
HETATM   28  C16 UNL     1      25.378   5.744  49.928  1.00  0.00     0.019 A 
HETATM   29  C17 UNL     1      26.312   4.787  49.593  1.00  0.00     0.013 A 
HETATM   30 BR1  UNL     1      27.826   5.181  48.540  1.00  0.00    -0.051 Br
HETATM   31  C18 UNL     1      26.162   3.495  50.027  1.00  0.00     0.048 A 
ENDBRANCH  23  25
ENDBRANCH   8  23
TORSDOF 7
ENDMDL
MODEL 6
REMARK VINA RESULT:      -7.5      2.077      2.537
REMARK  7 active torsions:
REMARK  status: ('A' for Active; 'I' for Inactive)
REMARK    1  A    between atoms: C1_2  and  N1_3 
REMARK    2  A    between atoms: C1_2  and  N3_11 
REMARK    3  A    between atoms: N1_3  and  C2_4 
REMARK    4  A    between atoms: C2_4  and  C3_5 
REMARK    5  A    between atoms: N3_11  and  C7_12 
REMARK    6  A    between atoms: C12_19  and  N6_20 
REMARK    7  A    between atoms: N6_20  and  C13_21 
ROOT
HETATM    1  C7  UNL     1      24.676   4.863  49.308  1.00  0.00     0.145 C 
HETATM    2  C8  UNL     1      25.118   3.366  49.321  1.00  0.00     0.044 C 
HETATM    3  C9  UNL     1      24.082   2.617  50.138  1.00  0.00     0.106 C 
HETATM    4  C10 UNL     1      22.751   2.524  49.353  1.00  0.00     0.365 A 
HETATM    5  N4  UNL     1      22.218   3.993  49.686  1.00  0.00    -0.062 NA
HETATM    6  C11 UNL     1      23.191   4.711  49.128  1.00  0.00     0.309 A 
HETATM    7  N5  UNL     1      22.936   3.922  50.284  1.00  0.00     0.085 N 
HETATM    8  C12 UNL     1      23.710   3.679  51.194  1.00  0.00     0.215 C 
ENDROOT
BRANCH   1   9
HETATM    9  N3  UNL     1      25.085   5.618  50.406  1.00  0.00    -0.359 N 
HETATM   10  H12 UNL     1      25.331   5.024  51.226  1.00  0.00     0.162 HD
BRANCH   9  11
HETATM   11  C1  UNL     1      25.187   7.022  50.562  1.00  0.00     0.168 C 
HETATM   12  S1  UNL     1      23.862   7.982  50.673  1.00  0.00    -0.041 SA
BRANCH  11  13
HETATM   13  N1  UNL     1      26.480   7.657  50.627  1.00  0.00    -0.365 N 
HETATM   14  H1  UNL     1      27.287   7.055  50.976  1.00  0.00     0.161 HD
BRANCH  13  15
HETATM   15  C2  UNL     1      26.711   9.010  50.259  1.00  0.00     0.149 C 
BRANCH  15  16
HETATM   16  C3  UNL     1      27.843   9.226  49.277  1.00  0.00     0.118 C 
HETATM   17  C4  UNL     1      27.861   8.072  48.328  1.00  0.00     0.194 C 
HETATM   18  O1  UNL     1      29.104   7.776  47.813  1.00  0.00    -0.387 OA
HETATM   19  C5  UNL     1      30.114   7.729  48.751  1.00  0.00     0.186 C 
HETATM   20  C6  UNL     1      30.252   9.138  49.298  1.00  0.00     0.140 C 
HETATM   21  N2  UNL     1      29.043   9.438  50.008  1.00  0.00    -0.411 N 
HETATM   22  H11 UNL     1      29.041   9.240  51.007  1.00  0.00     0.153 HD
ENDBRANCH  15  16
ENDBRANCH  13  15
ENDBRANCH  11  13
ENDBRANCH   9  11
ENDBRANCH   1   9
BRANCH   8  23
HETATM   23  N6  UNL     1      24.353   3.753  52.410  1.00  0.00    -0.338 N 
HETATM   24  H19 UNL     1      24.725   4.621  52.819  1.00  0.00     0.167 HD
BRANCH  23  25
HETATM   25  C13 UNL     1      24.364   2.432  52.884  1.00  0.00     0.034 A 
HETATM   26  C14 UNL     1      25.627   2.142  53.349  1.00  0.00     0.029 A 
HETATM   27  C15 UNL     1      25.904   0.897  53.872  1.00  0.00     0.004 A 
HETATM   28  C16 UNL     1      24.981  -0.124  53.973  1.00  0.00     0.019 A 
HETATM   29  C17 UNL     1      23.723   0.186  53.503  1.00  0.00     0.013 A 
HETATM   30 BR1  UNL     1      22.300  -1.052  53.539  1.00  0.00    -0.051 Br
HETATM   31  C18 UNL     1      23.466   1.430  52.986  1.00  0.00     0.048 A 
ENDBRANCH  23  25
ENDBRANCH   8  23
TORSDOF 7
ENDMDL
MODEL 7
REMARK VINA RESULT:      -7.4      2.694      4.676
REMARK  7 active torsions:
REMARK  status: ('A' for Active; 'I' for Inactive)
REMARK    1  A    between atoms: C1_2  and  N1_3 
REMARK    2  A    between atoms: C1_2  and  N3_11 
REMARK    3  A    between atoms: N1_3  and  C2_4 
REMARK    4  A    between atoms: C2_4  and  C3_5 
REMARK    5  A    between atoms: N3_11  and  C7_12 
REMARK    6  A    between atoms: C12_19  and  N6_20 
REMARK    7  A    between atoms: N6_20  and  C13_21 
ROOT
HETATM    1  C7  UNL     1      27.041   2.350  52.031  1.00  0.00     0.145 C 
HETATM    2  C8  UNL     1      27.195   2.202  53.578  1.00  0.00     0.044 C 
HETATM    3  C9  UNL     1      26.247   1.094  54.001  1.00  0.00     0.106 C 
HETATM    4  C10 UNL     1      26.781  -0.276  53.519  1.00  0.00     0.365 A 
HETATM    5  N4  UNL     1      26.273  -0.170  52.008  1.00  0.00    -0.062 NA
HETATM    6  C11 UNL     1      26.957   0.907  51.622  1.00  0.00     0.309 A 
HETATM    7  N5  UNL     1      25.821   0.550  52.401  1.00  0.00     0.085 N 
HETATM    8  C12 UNL     1      25.083   1.304  53.011  1.00  0.00     0.215 C 
ENDROOT
BRANCH   1   9
HETATM    9  N3  UNL     1      25.994   3.168  51.609  1.00  0.00    -0.359 N 
HETATM   10  H12 UNL     1      25.243   3.253  52.327  1.00  0.00     0.162 HD
BRANCH   9  11
HETATM   11  C1  UNL     1      25.808   3.852  50.384  1.00  0.00     0.168 C 
HETATM   12  S1  UNL     1      24.655   3.406  49.306  1.00  0.00    -0.041 SA
BRANCH  11  13
HETATM   13  N1  UNL     1      26.641   4.980  50.043  1.00  0.00    -0.365 N 
HETATM   14  H1  UNL     1      27.136   5.465  50.852  1.00  0.00     0.161 HD
BRANCH  13  15
HETATM   15  C2  UNL     1      26.818   5.453  48.714  1.00  0.00     0.149 C 
BRANCH  15  16
HETATM   16  C3  UNL     1      26.801   6.958  48.559  1.00  0.00     0.118 C 
HETATM   17  C4  UNL     1      27.907   7.341  47.630  1.00  0.00     0.194 C 
HETATM   18  O1  UNL     1      28.427   8.598  47.851  1.00  0.00    -0.387 OA
HETATM   19  C5  UNL     1      28.701   8.879  49.173  1.00  0.00     0.186 C 
HETATM   20  C6  UNL     1      27.364   8.887  49.891  1.00  0.00     0.140 C 
HETATM   21  N2  UNL     1      26.852   7.548  49.851  1.00  0.00    -0.411 N 
HETATM   22  H11 UNL     1      27.075   6.951  50.645  1.00  0.00     0.153 HD
ENDBRANCH  15  16
ENDBRANCH  13  15
ENDBRANCH  11  13
ENDBRANCH   9  11
ENDBRANCH   1   9
BRANCH   8  23
HETATM   23  N6  UNL     1      24.001   2.101  53.317  1.00  0.00    -0.338 N 
HETATM   24  H19 UNL     1      24.041   2.923  53.935  1.00  0.00     0.167 HD
BRANCH  23  25
HETATM   25  C13 UNL     1      22.928   1.523  52.620  1.00  0.00     0.034 A 
HETATM   26  C14 UNL     1      22.323   0.594  53.436  1.00  0.00     0.029 A 
HETATM   27  C15 UNL     1      21.234  -0.121  52.984  1.00  0.00     0.004 A 
HETATM   28  C16 UNL     1      20.678   0.027  51.729  1.00  0.00     0.019 A 
HETATM   29  C17 UNL     1      21.297   0.961  50.928  1.00  0.00     0.013 A 
HETATM   30 BR1  UNL     1      20.712   1.333  49.174  1.00  0.00    -0.051 Br
HETATM   31  C18 UNL     1      22.379   1.663  51.395  1.00  0.00     0.048 A 
ENDBRANCH  23  25
ENDBRANCH   8  23
TORSDOF 7
ENDMDL
MODEL 8
REMARK VINA RESULT:      -7.4      3.713      5.674
REMARK  7 active torsions:
REMARK  status: ('A' for Active; 'I' for Inactive)
REMARK    1  A    between atoms: C1_2  and  N1_3 
REMARK    2  A    between atoms: C1_2  and  N3_11 
REMARK    3  A    between atoms: N1_3  and  C2_4 
REMARK    4  A    between atoms: C2_4  and  C3_5 
REMARK    5  A    between atoms: N3_11  and  C7_12 
REMARK    6  A    between atoms: C12_19  and  N6_20 
REMARK    7  A    between atoms: N6_20  and  C13_21 
ROOT
HETATM    1  C7  UNL     1      28.838   9.199  49.148  1.00  0.00     0.145 C 
HETATM    2  C8  UNL     1      28.096   9.248  47.775  1.00  0.00     0.044 C 
HETATM    3  C9  UNL     1      26.767   8.542  47.977  1.00  0.00     0.106 C 
HETATM    4  C10 UNL     1      25.830   9.412  48.849  1.00  0.00     0.365 A 
HETATM    5  N4  UNL     1      26.458   9.027  50.267  1.00  0.00    -0.062 NA
HETATM    6  C11 UNL     1      27.698   9.480  50.088  1.00  0.00     0.309 A 
HETATM    7  N5  UNL     1      26.864   8.391  49.711  1.00  0.00     0.085 N 
HETATM    8  C12 UNL     1      27.162   7.451  48.994  1.00  0.00     0.215 C 
ENDROOT
BRANCH   1   9
HETATM    9  N3  UNL     1      29.563   8.036  49.397  1.00  0.00    -0.359 N 
HETATM   10  H12 UNL     1      29.008   7.327  49.921  1.00  0.00     0.162 HD
BRANCH   9  11
HETATM   11  C1  UNL     1      30.900   7.706  49.068  1.00  0.00     0.168 C 
HETATM   12  S1  UNL     1      31.901   8.772  48.325  1.00  0.00    -0.041 SA
BRANCH  11  13
HETATM   13  N1  UNL     1      31.429   6.401  49.383  1.00  0.00    -0.365 N 
HETATM   14  H1  UNL     1      30.722   5.665  49.691  1.00  0.00     0.161 HD
BRANCH  13  15
HETATM   15  C2  UNL     1      32.809   6.072  49.302  1.00  0.00     0.149 C 
BRANCH  15  16
HETATM   16  C3  UNL     1      33.201   5.229  48.108  1.00  0.00     0.118 C 
HETATM   17  C4  UNL     1      32.000   4.453  47.673  1.00  0.00     0.194 C 
HETATM   18  O1  UNL     1      32.287   3.248  47.070  1.00  0.00    -0.387 OA
HETATM   19  C5  UNL     1      33.219   2.483  47.738  1.00  0.00     0.186 C 
HETATM   20  C6  UNL     1      34.523   3.257  47.684  1.00  0.00     0.140 C 
HETATM   21  N2  UNL     1      34.340   4.452  48.456  1.00  0.00    -0.411 N 
HETATM   22  H11 UNL     1      34.612   4.408  49.436  1.00  0.00     0.153 HD
ENDBRANCH  15  16
ENDBRANCH  13  15
ENDBRANCH  11  13
ENDBRANCH   9  11
ENDBRANCH   1   9
BRANCH   8  23
HETATM   23  N6  UNL     1      27.564   6.195  48.596  1.00  0.00    -0.338 N 
HETATM   24  H19 UNL     1      28.475   5.985  48.167  1.00  0.00     0.167 HD
BRANCH  23  25
HETATM   25  C13 UNL     1      26.476   5.362  48.903  1.00  0.00     0.034 A 
HETATM   26  C14 UNL     1      26.958   4.129  49.280  1.00  0.00     0.029 A 
HETATM   27  C15 UNL     1      26.086   3.122  49.634  1.00  0.00     0.004 A 
HETATM   28  C16 UNL     1      24.713   3.255  49.645  1.00  0.00     0.019 A 
HETATM   29  C17 UNL     1      24.249   4.497  49.266  1.00  0.00     0.013 A 
HETATM   30 BR1  UNL     1      22.410   4.911  49.204  1.00  0.00    -0.051 Br
HETATM   31  C18 UNL     1      25.133   5.486  48.916  1.00  0.00     0.048 A 
ENDBRANCH  23  25
ENDBRANCH   8  23
TORSDOF 7
ENDMDL
MODEL 9
REMARK VINA RESULT:      -7.2      3.984      6.994
REMARK  7 active torsions:
REMARK  status: ('A' for Active; 'I' for Inactive)
REMARK    1  A    between atoms: C1_2  and  N1_3 
REMARK    2  A    between atoms: C1_2  and  N3_11 
REMARK    3  A    between atoms: N1_3  and  C2_4 
REMARK    4  A    between atoms: C2_4  and  C3_5 
REMARK    5  A    between atoms: N3_11  and  C7_12 
REMARK    6  A    between atoms: C12_19  and  N6_20 
REMARK    7  A    between atoms: N6_20  and  C13_21 
ROOT
HETATM    1  C7  UNL     1      22.762   2.828  51.155  1.00  0.00     0.145 C 
HETATM    2  C8  UNL     1      21.811   3.428  52.239  1.00  0.00     0.044 C 
HETATM    3  C9  UNL     1      21.497   4.846  51.800  1.00  0.00     0.106 C 
HETATM    4  C10 UNL     1      20.562   4.828  50.567  1.00  0.00     0.365 A 
HETATM    5  N4  UNL     1      21.686   4.542  49.467  1.00  0.00    -0.062 NA
HETATM    6  C11 UNL     1      22.124   3.362  49.902  1.00  0.00     0.309 A 
HETATM    7  N5  UNL     1      22.213   4.747  50.214  1.00  0.00     0.085 N 
HETATM    8  C12 UNL     1      22.829   5.254  51.136  1.00  0.00     0.215 C 
ENDROOT
BRANCH   1   9
HETATM    9  N3  UNL     1      24.115   3.114  51.321  1.00  0.00    -0.359 N 
HETATM   10  H12 UNL     1      24.399   3.990  50.832  1.00  0.00     0.162 HD
BRANCH   9  11
HETATM   11  C1  UNL     1      25.121   2.398  52.015  1.00  0.00     0.168 C 
HETATM   12  S1  UNL     1      26.682   2.388  51.514  1.00  0.00    -0.041 SA
BRANCH  11  13
HETATM   13  N1  UNL     1      24.795   1.645  53.200  1.00  0.00    -0.365 N 
HETATM   14  H1  UNL     1      24.776   2.187  54.117  1.00  0.00     0.161 HD
BRANCH  13  15
HETATM   15  C2  UNL     1      24.508   0.252  53.193  1.00  0.00     0.149 C 
BRANCH  15  16
HETATM   16  C3  UNL     1      25.616  -0.636  53.714  1.00  0.00     0.118 C 
HETATM   17  C4  UNL     1      26.317   0.094  54.814  1.00  0.00     0.194 C 
HETATM   18  O1  UNL     1      27.645  -0.242  54.965  1.00  0.00    -0.387 OA
HETATM   19  C5  UNL     1      28.362  -0.278  53.788  1.00  0.00     0.186 C 
HETATM   20  C6  UNL     1      27.773  -1.409  52.965  1.00  0.00     0.140 C 
HETATM   21  N2  UNL     1      26.434  -1.031  52.621  1.00  0.00    -0.411 N 
HETATM   22  H11 UNL     1      26.309  -0.554  51.729  1.00  0.00     0.153 HD
ENDBRANCH  15  16
ENDBRANCH  13  15
ENDBRANCH  11  13
ENDBRANCH   9  11
ENDBRANCH   1   9
BRANCH   8  23
HETATM   23  N6  UNL     1      23.831   5.885  51.840  1.00  0.00    -0.338 N 
HETATM   24  H19 UNL     1      23.947   5.831  52.861  1.00  0.00     0.167 HD
BRANCH  23  25
HETATM   25  C13 UNL     1      24.574   6.566  50.863  1.00  0.00     0.034 A 
HETATM   26  C14 UNL     1      24.035   7.822  50.697  1.00  0.00     0.029 A 
HETATM   27  C15 UNL     1      24.586   8.698  49.786  1.00  0.00     0.004 A 
HETATM   28  C16 UNL     1      25.680   8.407  48.996  1.00  0.00     0.019 A 
HETATM   29  C17 UNL     1      26.206   7.146  49.177  1.00  0.00     0.013 A 
HETATM   30 BR1  UNL     1      27.700   6.527  48.208  1.00  0.00    -0.051 Br
HETATM   31  C18 UNL     1      25.643   6.288  50.088  1.00  0.00     0.048 A 
ENDBRANCH  23  25
ENDBRANCH   8  23
TORSDOF 7
ENDMDL
