MODEL 1
REMARK VINA RESULT:      -7.4      0.000      0.000
REMARK  6 active torsions:
REMARK  status: ('A' for Active; 'I' for Inactive)
REMARK    1  A    between atoms: C1_2  and  C2_3 
REMARK    2  A    between atoms: C2_3  and  C3_4 
REMARK    3  A    between atoms: C4_5  and  N1_6 
REMARK    4  A    between atoms: N1_6  and  C5_7 
REMARK    5  A    between atoms: N2_11  and  C9_12 
REMARK    6  A    between atoms: C9_12  and  C10_13 
ROOT
HETATM    1  C5  UNL     1      23.854   2.996  51.119  1.00  0.00     0.163 A 
HETATM    2  C6  UNL     1      24.703   2.581  52.041  1.00  0.00     0.059 A 
HETATM    3  C7  UNL     1      24.489   2.128  53.304  1.00  0.00     0.036 A 
HETATM    4  C8  UNL     1      25.677   1.814  53.883  1.00  0.00     0.094 A 
HETATM    5  N2  UNL     1      26.667   2.066  52.990  1.00  0.00    -0.337 N 
HETATM    6  C16 UNL     1      26.070   2.531  51.875  1.00  0.00     0.140 A 
HETATM    7  N3  UNL     1      26.765   2.857  50.848  1.00  0.00    -0.248 NA
HETATM    8  C17 UNL     1      26.540   3.367  49.532  1.00  0.00     0.324 A 
HETATM    9  N4  UNL     1      25.176   3.615  49.166  1.00  0.00    -0.169 NA
HETATM   10  N5  UNL     1      24.127   3.456  49.827  1.00  0.00    -0.134 NA
ENDROOT
BRANCH   1  11
HETATM   11  N1  UNL     1      22.479   2.959  51.520  1.00  0.00    -0.349 N 
HETATM   12  H7  UNL     1      22.096   3.368  52.412  1.00  0.00     0.167 HD
BRANCH  11  13
HETATM   13  C4  UNL     1      21.495   2.337  50.702  1.00  0.00     0.086 C 
HETATM   14  C3  UNL     1      21.117   1.083  50.823  1.00  0.00    -0.009 C 
BRANCH  14  15
HETATM   15  C2  UNL     1      21.714   0.227  51.850  1.00  0.00     0.039 C 
BRANCH  15  16
HETATM   16  C1  UNL     1      20.771   0.224  53.053  1.00  0.00     0.089 C 
HETATM   17 BR1  UNL     1      21.541  -0.812  54.502  1.00  0.00    -0.096 Br
ENDBRANCH  15  16
ENDBRANCH  14  15
ENDBRANCH  11  13
ENDBRANCH   1  11
BRANCH   5  18
HETATM   18  C9  UNL     1      28.065   1.834  53.302  1.00  0.00     0.168 C 
BRANCH  18  19
HETATM   19  C10 UNL     1      28.400   0.366  53.265  1.00  0.00    -0.040 A 
HETATM   20  C11 UNL     1      29.678   0.065  53.723  1.00  0.00     0.009 A 
HETATM   21  C12 UNL     1      30.109  -1.246  53.741  1.00  0.00     0.001 A 
HETATM   22  C13 UNL     1      29.222  -2.202  53.290  1.00  0.00     0.000 A 
HETATM   23  C14 UNL     1      27.949  -1.929  52.830  1.00  0.00     0.001 A 
HETATM   24  C15 UNL     1      27.518  -0.598  52.816  1.00  0.00     0.009 A 
ENDBRANCH  18  19
ENDBRANCH   5  18
TORSDOF 6
ENDMDL
MODEL 2
REMARK VINA RESULT:      -7.4      2.862      4.011
REMARK  6 active torsions:
REMARK  status: ('A' for Active; 'I' for Inactive)
REMARK    1  A    between atoms: C1_2  and  C2_3 
REMARK    2  A    between atoms: C2_3  and  C3_4 
REMARK    3  A    between atoms: C4_5  and  N1_6 
REMARK    4  A    between atoms: N1_6  and  C5_7 
REMARK    5  A    between atoms: N2_11  and  C9_12 
REMARK    6  A    between atoms: C9_12  and  C10_13 
ROOT
HETATM    1  C5  UNL     1      21.752  -0.191  52.710  1.00  0.00     0.163 A 
HETATM    2  C6  UNL     1      22.975   0.306  52.713  1.00  0.00     0.059 A 
HETATM    3  C7  UNL     1      23.593   1.149  51.845  1.00  0.00     0.036 A 
HETATM    4  C8  UNL     1      24.865   1.383  52.262  1.00  0.00     0.094 A 
HETATM    5  N2  UNL     1      25.071   0.686  53.408  1.00  0.00    -0.337 N 
HETATM    6  C16 UNL     1      23.923   0.035  53.677  1.00  0.00     0.140 A 
HETATM    7  N3  UNL     1      23.821  -0.712  54.713  1.00  0.00    -0.248 NA
HETATM    8  C17 UNL     1      22.834  -1.538  55.334  1.00  0.00     0.324 A 
HETATM    9  N4  UNL     1      21.559  -1.612  54.681  1.00  0.00    -0.169 NA
HETATM   10  N5  UNL     1      21.162  -1.060  53.632  1.00  0.00    -0.134 NA
ENDROOT
BRANCH   1  11
HETATM   11  N1  UNL     1      20.944   0.233  51.605  1.00  0.00    -0.349 N 
HETATM   12  H7  UNL     1      21.016  -0.139  50.623  1.00  0.00     0.167 HD
BRANCH  11  13
HETATM   13  C4  UNL     1      19.943   1.231  51.771  1.00  0.00     0.086 C 
HETATM   14  C3  UNL     1      18.651   1.005  51.683  1.00  0.00    -0.009 C 
BRANCH  14  15
HETATM   15  C2  UNL     1      18.154  -0.343  51.397  1.00  0.00     0.039 C 
BRANCH  15  16
HETATM   16  C1  UNL     1      17.501  -0.873  52.674  1.00  0.00     0.089 C 
HETATM   17 BR1  UNL     1      15.804  -1.715  52.256  1.00  0.00    -0.096 Br
ENDBRANCH  15  16
ENDBRANCH  14  15
ENDBRANCH  11  13
ENDBRANCH   1  11
BRANCH   5  18
HETATM   18  C9  UNL     1      26.340   0.722  54.113  1.00  0.00     0.168 C 
BRANCH  18  19
HETATM   19  C10 UNL     1      27.245  -0.398  53.672  1.00  0.00    -0.040 A 
HETATM   20  C11 UNL     1      28.581  -0.213  54.012  1.00  0.00     0.009 A 
HETATM   21  C12 UNL     1      29.515  -1.168  53.665  1.00  0.00     0.001 A 
HETATM   22  C13 UNL     1      29.054  -2.275  52.983  1.00  0.00     0.000 A 
HETATM   23  C14 UNL     1      27.734  -2.482  52.634  1.00  0.00     0.001 A 
HETATM   24  C15 UNL     1      26.792  -1.510  52.991  1.00  0.00     0.009 A 
ENDBRANCH  18  19
ENDBRANCH   5  18
TORSDOF 6
ENDMDL
MODEL 3
REMARK VINA RESULT:      -7.4      2.734      4.281
REMARK  6 active torsions:
REMARK  status: ('A' for Active; 'I' for Inactive)
REMARK    1  A    between atoms: C1_2  and  C2_3 
REMARK    2  A    between atoms: C2_3  and  C3_4 
REMARK    3  A    between atoms: C4_5  and  N1_6 
REMARK    4  A    between atoms: N1_6  and  C5_7 
REMARK    5  A    between atoms: N2_11  and  C9_12 
REMARK    6  A    between atoms: C9_12  and  C10_13 
ROOT
HETATM    1  C5  UNL     1      23.910   2.711  50.377  1.00  0.00     0.163 A 
HETATM    2  C6  UNL     1      24.981   2.431  51.095  1.00  0.00     0.059 A 
HETATM    3  C7  UNL     1      26.294   2.705  50.874  1.00  0.00     0.036 A 
HETATM    4  C8  UNL     1      27.041   2.215  51.898  1.00  0.00     0.094 A 
HETATM    5  N2  UNL     1      26.206   1.620  52.787  1.00  0.00    -0.337 N 
HETATM    6  C16 UNL     1      24.959   1.753  52.295  1.00  0.00     0.140 A 
HETATM    7  N3  UNL     1      23.951   1.281  52.930  1.00  0.00    -0.248 NA
HETATM    8  C17 UNL     1      22.532   1.210  52.768  1.00  0.00     0.324 A 
HETATM    9  N4  UNL     1      21.992   1.814  51.585  1.00  0.00    -0.169 NA
HETATM   10  N5  UNL     1      22.573   2.405  50.650  1.00  0.00    -0.134 NA
ENDROOT
BRANCH   1  11
HETATM   11  N1  UNL     1      24.179   3.424  49.164  1.00  0.00    -0.349 N 
HETATM   12  H7  UNL     1      24.890   3.141  48.439  1.00  0.00     0.167 HD
BRANCH  11  13
HETATM   13  C4  UNL     1      23.472   4.616  48.843  1.00  0.00     0.086 C 
HETATM   14  C3  UNL     1      23.914   5.829  49.095  1.00  0.00    -0.009 C 
BRANCH  14  15
HETATM   15  C2  UNL     1      25.213   6.023  49.744  1.00  0.00     0.039 C 
BRANCH  15  16
HETATM   16  C1  UNL     1      26.200   6.486  48.672  1.00  0.00     0.089 C 
HETATM   17 BR1  UNL     1      27.713   5.275  48.589  1.00  0.00    -0.096 Br
ENDBRANCH  15  16
ENDBRANCH  14  15
ENDBRANCH  11  13
ENDBRANCH   1  11
BRANCH   5  18
HETATM   18  C9  UNL     1      26.694   0.993  54.002  1.00  0.00     0.168 C 
BRANCH  18  19
HETATM   19  C10 UNL     1      27.595  -0.175  53.693  1.00  0.00    -0.040 A 
HETATM   20  C11 UNL     1      26.948  -1.241  53.078  1.00  0.00     0.009 A 
HETATM   21  C12 UNL     1      27.661  -2.374  52.742  1.00  0.00     0.001 A 
HETATM   22  C13 UNL     1      29.007  -2.379  53.046  1.00  0.00     0.000 A 
HETATM   23  C14 UNL     1      29.672  -1.334  53.656  1.00  0.00     0.001 A 
HETATM   24  C15 UNL     1      28.943  -0.188  53.993  1.00  0.00     0.009 A 
ENDBRANCH  18  19
ENDBRANCH   5  18
TORSDOF 6
ENDMDL
MODEL 4
REMARK VINA RESULT:      -7.3      2.865      4.034
REMARK  6 active torsions:
REMARK  status: ('A' for Active; 'I' for Inactive)
REMARK    1  A    between atoms: C1_2  and  C2_3 
REMARK    2  A    between atoms: C2_3  and  C3_4 
REMARK    3  A    between atoms: C4_5  and  N1_6 
REMARK    4  A    between atoms: N1_6  and  C5_7 
REMARK    5  A    between atoms: N2_11  and  C9_12 
REMARK    6  A    between atoms: C9_12  and  C10_13 
ROOT
HETATM    1  C5  UNL     1      22.150   1.003  51.652  1.00  0.00     0.163 A 
HETATM    2  C6  UNL     1      23.393   1.221  52.036  1.00  0.00     0.059 A 
HETATM    3  C7  UNL     1      24.360   2.016  51.505  1.00  0.00     0.036 A 
HETATM    4  C8  UNL     1      25.493   1.917  52.249  1.00  0.00     0.094 A 
HETATM    5  N2  UNL     1      25.258   1.052  53.268  1.00  0.00    -0.337 N 
HETATM    6  C16 UNL     1      23.985   0.634  53.134  1.00  0.00     0.140 A 
HETATM    7  N3  UNL     1      23.478  -0.200  53.966  1.00  0.00    -0.248 NA
HETATM    8  C17 UNL     1      22.232  -0.867  54.176  1.00  0.00     0.324 A 
HETATM    9  N4  UNL     1      21.188  -0.582  53.235  1.00  0.00    -0.169 NA
HETATM   10  N5  UNL     1      21.191   0.170  52.237  1.00  0.00    -0.134 NA
ENDROOT
BRANCH   1  11
HETATM   11  N1  UNL     1      21.756   1.726  50.480  1.00  0.00    -0.349 N 
HETATM   12  H7  UNL     1      21.681   2.775  50.411  1.00  0.00     0.167 HD
BRANCH  11  13
HETATM   13  C4  UNL     1      21.424   1.044  49.277  1.00  0.00     0.086 C 
HETATM   14  C3  UNL     1      21.858   1.392  48.085  1.00  0.00    -0.009 C 
BRANCH  14  15
HETATM   15  C2  UNL     1      22.744   2.549  47.929  1.00  0.00     0.039 C 
BRANCH  15  16
HETATM   16  C1  UNL     1      21.951   3.643  47.214  1.00  0.00     0.089 C 
HETATM   17 BR1  UNL     1      22.659   5.389  47.674  1.00  0.00    -0.096 Br
ENDBRANCH  15  16
ENDBRANCH  14  15
ENDBRANCH  11  13
ENDBRANCH   1  11
BRANCH   5  18
HETATM   18  C9  UNL     1      26.275   0.726  54.251  1.00  0.00     0.168 C 
BRANCH  18  19
HETATM   19  C10 UNL     1      27.186  -0.368  53.756  1.00  0.00    -0.040 A 
HETATM   20  C11 UNL     1      28.523  -0.187  54.095  1.00  0.00     0.009 A 
HETATM   21  C12 UNL     1      29.461  -1.119  53.701  1.00  0.00     0.001 A 
HETATM   22  C13 UNL     1      29.003  -2.200  52.976  1.00  0.00     0.000 A 
HETATM   23  C14 UNL     1      27.682  -2.402  52.627  1.00  0.00     0.001 A 
HETATM   24  C15 UNL     1      26.736  -1.453  53.031  1.00  0.00     0.009 A 
ENDBRANCH  18  19
ENDBRANCH   5  18
TORSDOF 6
ENDMDL
MODEL 5
REMARK VINA RESULT:      -7.2      2.674      4.369
REMARK  6 active torsions:
REMARK  status: ('A' for Active; 'I' for Inactive)
REMARK    1  A    between atoms: C1_2  and  C2_3 
REMARK    2  A    between atoms: C2_3  and  C3_4 
REMARK    3  A    between atoms: C4_5  and  N1_6 
REMARK    4  A    between atoms: N1_6  and  C5_7 
REMARK    5  A    between atoms: N2_11  and  C9_12 
REMARK    6  A    between atoms: C9_12  and  C10_13 
ROOT
HETATM    1  C5  UNL     1      22.120   2.216  52.161  1.00  0.00     0.163 A 
HETATM    2  C6  UNL     1      23.291   1.612  52.231  1.00  0.00     0.059 A 
HETATM    3  C7  UNL     1      24.470   1.886  51.613  1.00  0.00     0.036 A 
HETATM    4  C8  UNL     1      25.408   0.980  51.997  1.00  0.00     0.094 A 
HETATM    5  N2  UNL     1      24.832   0.114  52.868  1.00  0.00    -0.337 N 
HETATM    6  C16 UNL     1      23.549   0.501  53.006  1.00  0.00     0.140 A 
HETATM    7  N3  UNL     1      22.751  -0.140  53.777  1.00  0.00    -0.248 NA
HETATM    8  C17 UNL     1      21.384  -0.067  54.189  1.00  0.00     0.324 A 
HETATM    9  N4  UNL     1      20.603   0.997  53.629  1.00  0.00    -0.169 NA
HETATM   10  N5  UNL     1      20.931   1.892  52.820  1.00  0.00    -0.134 NA
ENDROOT
BRANCH   1  11
HETATM   11  N1  UNL     1      22.092   3.352  51.288  1.00  0.00    -0.349 N 
HETATM   12  H7  UNL     1      21.826   3.327  50.268  1.00  0.00     0.167 HD
BRANCH  11  13
HETATM   13  C4  UNL     1      22.437   4.648  51.762  1.00  0.00     0.086 C 
HETATM   14  C3  UNL     1      23.295   5.449  51.169  1.00  0.00    -0.009 C 
BRANCH  14  15
HETATM   15  C2  UNL     1      23.967   5.030  49.936  1.00  0.00     0.039 C 
BRANCH  15  16
HETATM   16  C1  UNL     1      25.417   5.507  50.018  1.00  0.00     0.089 C 
HETATM   17 BR1  UNL     1      26.615   4.111  49.400  1.00  0.00    -0.096 Br
ENDBRANCH  15  16
ENDBRANCH  14  15
ENDBRANCH  11  13
ENDBRANCH   1  11
BRANCH   5  18
HETATM   18  C9  UNL     1      25.572  -0.982  53.467  1.00  0.00     0.168 C 
BRANCH  18  19
HETATM   19  C10 UNL     1      27.008  -0.604  53.716  1.00  0.00    -0.040 A 
HETATM   20  C11 UNL     1      27.929  -1.417  53.062  1.00  0.00     0.009 A 
HETATM   21  C12 UNL     1      29.279  -1.176  53.208  1.00  0.00     0.001 A 
HETATM   22  C13 UNL     1      29.643  -0.117  54.014  1.00  0.00     0.000 A 
HETATM   23  C14 UNL     1      28.750   0.704  54.673  1.00  0.00     0.001 A 
HETATM   24  C15 UNL     1      27.381   0.455  54.521  1.00  0.00     0.009 A 
ENDBRANCH  18  19
ENDBRANCH   5  18
TORSDOF 6
ENDMDL
MODEL 6
REMARK VINA RESULT:      -7.1      2.314      3.820
REMARK  6 active torsions:
REMARK  status: ('A' for Active; 'I' for Inactive)
REMARK    1  A    between atoms: C1_2  and  C2_3 
REMARK    2  A    between atoms: C2_3  and  C3_4 
REMARK    3  A    between atoms: C4_5  and  N1_6 
REMARK    4  A    between atoms: N1_6  and  C5_7 
REMARK    5  A    between atoms: N2_11  and  C9_12 
REMARK    6  A    between atoms: C9_12  and  C10_13 
ROOT
HETATM    1  C5  UNL     1      22.175   3.288  51.910  1.00  0.00     0.163 A 
HETATM    2  C6  UNL     1      23.204   2.498  52.150  1.00  0.00     0.059 A 
HETATM    3  C7  UNL     1      24.512   2.613  51.800  1.00  0.00     0.036 A 
HETATM    4  C8  UNL     1      25.207   1.545  52.273  1.00  0.00     0.094 A 
HETATM    5  N2  UNL     1      24.343   0.734  52.934  1.00  0.00    -0.337 N 
HETATM    6  C16 UNL     1      23.131   1.316  52.856  1.00  0.00     0.140 A 
HETATM    7  N3  UNL     1      22.106   0.769  53.397  1.00  0.00    -0.248 NA
HETATM    8  C17 UNL     1      20.710   1.038  53.541  1.00  0.00     0.324 A 
HETATM    9  N4  UNL     1      20.226   2.247  52.940  1.00  0.00    -0.169 NA
HETATM   10  N5  UNL     1      20.841   3.123  52.295  1.00  0.00    -0.134 NA
ENDROOT
BRANCH   1  11
HETATM   11  N1  UNL     1      22.494   4.464  51.155  1.00  0.00    -0.349 N 
HETATM   12  H7  UNL     1      23.296   5.116  51.359  1.00  0.00     0.167 HD
BRANCH  11  13
HETATM   13  C4  UNL     1      21.712   4.844  50.030  1.00  0.00     0.086 C 
HETATM   14  C3  UNL     1      21.908   4.399  48.807  1.00  0.00    -0.009 C 
BRANCH  14  15
HETATM   15  C2  UNL     1      22.987   3.447  48.532  1.00  0.00     0.039 C 
BRANCH  15  16
HETATM   16  C1  UNL     1      22.380   2.273  47.764  1.00  0.00     0.089 C 
HETATM   17 BR1  UNL     1      21.393   1.123  48.975  1.00  0.00    -0.096 Br
ENDBRANCH  15  16
ENDBRANCH  14  15
ENDBRANCH  11  13
ENDBRANCH   1  11
BRANCH   5  18
HETATM   18  C9  UNL     1      24.774  -0.502  53.562  1.00  0.00     0.168 C 
BRANCH  18  19
HETATM   19  C10 UNL     1      26.274  -0.565  53.678  1.00  0.00    -0.040 A 
HETATM   20  C11 UNL     1      26.794   0.198  54.719  1.00  0.00     0.009 A 
HETATM   21  C12 UNL     1      28.157   0.227  54.933  1.00  0.00     0.001 A 
HETATM   22  C13 UNL     1      28.941  -0.521  54.079  1.00  0.00     0.000 A 
HETATM   23  C14 UNL     1      28.450  -1.287  53.040  1.00  0.00     0.001 A 
HETATM   24  C15 UNL     1      27.066  -1.312  52.829  1.00  0.00     0.009 A 
ENDBRANCH  18  19
ENDBRANCH   5  18
TORSDOF 6
ENDMDL
MODEL 7
REMARK VINA RESULT:      -7.0      3.625      5.444
REMARK  6 active torsions:
REMARK  status: ('A' for Active; 'I' for Inactive)
REMARK    1  A    between atoms: C1_2  and  C2_3 
REMARK    2  A    between atoms: C2_3  and  C3_4 
REMARK    3  A    between atoms: C4_5  and  N1_6 
REMARK    4  A    between atoms: N1_6  and  C5_7 
REMARK    5  A    between atoms: N2_11  and  C9_12 
REMARK    6  A    between atoms: C9_12  and  C10_13 
ROOT
HETATM    1  C5  UNL     1      24.948   4.958  50.069  1.00  0.00     0.163 A 
HETATM    2  C6  UNL     1      25.448   3.830  50.537  1.00  0.00     0.059 A 
HETATM    3  C7  UNL     1      26.454   3.044  50.069  1.00  0.00     0.036 A 
HETATM    4  C8  UNL     1      26.616   1.973  50.890  1.00  0.00     0.094 A 
HETATM    5  N2  UNL     1      25.709   2.066  51.894  1.00  0.00    -0.337 N 
HETATM    6  C16 UNL     1      25.004   3.192  51.675  1.00  0.00     0.140 A 
HETATM    7  N3  UNL     1      24.065   3.543  52.474  1.00  0.00    -0.248 NA
HETATM    8  C17 UNL     1      23.120   4.609  52.601  1.00  0.00     0.324 A 
HETATM    9  N4  UNL     1      23.162   5.624  51.589  1.00  0.00    -0.169 NA
HETATM   10  N5  UNL     1      23.906   5.730  50.591  1.00  0.00    -0.134 NA
ENDROOT
BRANCH   1  11
HETATM   11  N1  UNL     1      25.572   5.431  48.870  1.00  0.00    -0.349 N 
HETATM   12  H7  UNL     1      25.550   4.937  47.939  1.00  0.00     0.167 HD
BRANCH  11  13
HETATM   13  C4  UNL     1      26.296   6.655  48.856  1.00  0.00     0.086 C 
HETATM   14  C3  UNL     1      27.577   6.754  48.571  1.00  0.00    -0.009 C 
BRANCH  14  15
HETATM   15  C2  UNL     1      28.354   5.558  48.237  1.00  0.00     0.039 C 
BRANCH  15  16
HETATM   16  C1  UNL     1      29.832   5.903  48.425  1.00  0.00     0.089 C 
HETATM   17 BR1  UNL     1      30.400   7.166  47.067  1.00  0.00    -0.096 Br
ENDBRANCH  15  16
ENDBRANCH  14  15
ENDBRANCH  11  13
ENDBRANCH   1  11
BRANCH   5  18
HETATM   18  C9  UNL     1      25.620   1.069  52.947  1.00  0.00     0.168 C 
BRANCH  18  19
HETATM   19  C10 UNL     1      26.965   0.460  53.241  1.00  0.00    -0.040 A 
HETATM   20  C11 UNL     1      27.833   1.307  53.922  1.00  0.00     0.009 A 
HETATM   21  C12 UNL     1      29.099   0.870  54.252  1.00  0.00     0.001 A 
HETATM   22  C13 UNL     1      29.436  -0.415  53.876  1.00  0.00     0.000 A 
HETATM   23  C14 UNL     1      28.593  -1.275  53.200  1.00  0.00     0.001 A 
HETATM   24  C15 UNL     1      27.310  -0.825  52.869  1.00  0.00     0.009 A 
ENDBRANCH  18  19
ENDBRANCH   5  18
TORSDOF 6
ENDMDL
MODEL 8
REMARK VINA RESULT:      -6.8      3.880      6.164
REMARK  6 active torsions:
REMARK  status: ('A' for Active; 'I' for Inactive)
REMARK    1  A    between atoms: C1_2  and  C2_3 
REMARK    2  A    between atoms: C2_3  and  C3_4 
REMARK    3  A    between atoms: C4_5  and  N1_6 
REMARK    4  A    between atoms: N1_6  and  C5_7 
REMARK    5  A    between atoms: N2_11  and  C9_12 
REMARK    6  A    between atoms: C9_12  and  C10_13 
ROOT
HETATM    1  C5  UNL     1      25.604   6.139  49.359  1.00  0.00     0.163 A 
HETATM    2  C6  UNL     1      25.834   4.884  49.695  1.00  0.00     0.059 A 
HETATM    3  C7  UNL     1      26.747   3.992  49.226  1.00  0.00     0.036 A 
HETATM    4  C8  UNL     1      26.606   2.809  49.879  1.00  0.00     0.094 A 
HETATM    5  N2  UNL     1      25.595   2.935  50.775  1.00  0.00    -0.337 N 
HETATM    6  C16 UNL     1      25.130   4.194  50.659  1.00  0.00     0.140 A 
HETATM    7  N3  UNL     1      24.161   4.605  51.390  1.00  0.00    -0.248 NA
HETATM    8  C17 UNL     1      23.405   5.803  51.576  1.00  0.00     0.324 A 
HETATM    9  N4  UNL     1      23.762   6.920  50.751  1.00  0.00    -0.169 NA
HETATM   10  N5  UNL     1      24.647   7.017  49.874  1.00  0.00    -0.134 NA
ENDROOT
BRANCH   1  11
HETATM   11  N1  UNL     1      26.464   6.643  48.329  1.00  0.00    -0.349 N 
HETATM   12  H7  UNL     1      26.447   6.337  47.321  1.00  0.00     0.167 HD
BRANCH  11  13
HETATM   13  C4  UNL     1      27.442   7.636  48.614  1.00  0.00     0.086 C 
HETATM   14  C3  UNL     1      28.732   7.485  48.406  1.00  0.00    -0.009 C 
BRANCH  14  15
HETATM   15  C2  UNL     1      29.249   6.234  47.846  1.00  0.00     0.039 C 
BRANCH  15  16
HETATM   16  C1  UNL     1      30.733   6.445  47.542  1.00  0.00     0.089 C 
HETATM   17 BR1  UNL     1      31.659   4.740  47.528  1.00  0.00    -0.096 Br
ENDBRANCH  15  16
ENDBRANCH  14  15
ENDBRANCH  11  13
ENDBRANCH   1  11
BRANCH   5  18
HETATM   18  C9  UNL     1      25.188   1.840  51.638  1.00  0.00     0.168 C 
BRANCH  18  19
HETATM   19  C10 UNL     1      26.366   1.252  52.369  1.00  0.00    -0.040 A 
HETATM   20  C11 UNL     1      26.499  -0.124  52.214  1.00  0.00     0.009 A 
HETATM   21  C12 UNL     1      27.539  -0.786  52.834  1.00  0.00     0.001 A 
HETATM   22  C13 UNL     1      28.405  -0.023  53.591  1.00  0.00     0.000 A 
HETATM   23  C14 UNL     1      28.295   1.344  53.760  1.00  0.00     0.001 A 
HETATM   24  C15 UNL     1      27.238   2.009  53.127  1.00  0.00     0.009 A 
ENDBRANCH  18  19
ENDBRANCH   5  18
TORSDOF 6
ENDMDL
MODEL 9
REMARK VINA RESULT:      -6.8      3.502      6.950
REMARK  6 active torsions:
REMARK  status: ('A' for Active; 'I' for Inactive)
REMARK    1  A    between atoms: C1_2  and  C2_3 
REMARK    2  A    between atoms: C2_3  and  C3_4 
REMARK    3  A    between atoms: C4_5  and  N1_6 
REMARK    4  A    between atoms: N1_6  and  C5_7 
REMARK    5  A    between atoms: N2_11  and  C9_12 
REMARK    6  A    between atoms: C9_12  and  C10_13 
ROOT
HETATM    1  C5  UNL     1      24.805   2.936  51.674  1.00  0.00     0.163 A 
HETATM    2  C6  UNL     1      25.417   3.604  50.715  1.00  0.00     0.059 A 
HETATM    3  C7  UNL     1      26.565   3.335  50.039  1.00  0.00     0.036 A 
HETATM    4  C8  UNL     1      26.804   4.319  49.133  1.00  0.00     0.094 A 
HETATM    5  N2  UNL     1      25.805   5.232  49.224  1.00  0.00    -0.337 N 
HETATM    6  C16 UNL     1      24.967   4.795  50.185  1.00  0.00     0.140 A 
HETATM    7  N3  UNL     1      23.918   5.463  50.494  1.00  0.00    -0.248 NA
HETATM    8  C17 UNL     1      22.823   5.359  51.406  1.00  0.00     0.324 A 
HETATM    9  N4  UNL     1      22.809   4.208  52.261  1.00  0.00    -0.169 NA
HETATM   10  N5  UNL     1      23.619   3.260  52.341  1.00  0.00    -0.134 NA
ENDROOT
BRANCH   1  11
HETATM   11  N1  UNL     1      25.461   1.724  52.064  1.00  0.00    -0.349 N 
HETATM   12  H7  UNL     1      25.836   0.997  51.401  1.00  0.00     0.167 HD
BRANCH  11  13
HETATM   13  C4  UNL     1      25.658   1.408  53.437  1.00  0.00     0.086 C 
HETATM   14  C3  UNL     1      26.837   1.273  54.004  1.00  0.00    -0.009 C 
BRANCH  14  15
HETATM   15  C2  UNL     1      28.060   1.450  53.217  1.00  0.00     0.039 C 
BRANCH  15  16
HETATM   16  C1  UNL     1      29.235   0.995  54.084  1.00  0.00     0.089 C 
HETATM   17 BR1  UNL     1      29.768  -0.805  53.594  1.00  0.00    -0.096 Br
ENDBRANCH  15  16
ENDBRANCH  14  15
ENDBRANCH  11  13
ENDBRANCH   1  11
BRANCH   5  18
HETATM   18  C9  UNL     1      25.764   6.417  48.385  1.00  0.00     0.168 C 
BRANCH  18  19
HETATM   19  C10 UNL     1      26.825   7.408  48.784  1.00  0.00    -0.040 A 
HETATM   20  C11 UNL     1      26.451   8.247  49.829  1.00  0.00     0.009 A 
HETATM   21  C12 UNL     1      27.333   9.202  50.291  1.00  0.00     0.001 A 
HETATM   22  C13 UNL     1      28.564   9.269  49.670  1.00  0.00     0.000 A 
HETATM   23  C14 UNL     1      28.959   8.448  48.632  1.00  0.00     0.001 A 
HETATM   24  C15 UNL     1      28.059   7.481  48.170  1.00  0.00     0.009 A 
ENDBRANCH  18  19
ENDBRANCH   5  18
TORSDOF 6
ENDMDL
