MODEL 1
REMARK VINA RESULT:      -7.3      0.000      0.000
REMARK  6 active torsions:
REMARK  status: ('A' for Active; 'I' for Inactive)
REMARK    1  A    between atoms: C7_7  and  N1_8 
REMARK    2  A    between atoms: N1_8  and  C8_9 
REMARK    3  A    between atoms: N1_8  and  C16_18 
REMARK    4  A    between atoms: C8_9  and  C9_10 
REMARK    5  A    between atoms: C15_16  and  O1_17 
REMARK    6  A    between atoms: C16_18  and  C17_20 
ROOT
HETATM    1  N1  UNL     1      24.066   3.182  51.902  1.00  0.00    -0.331 N 
ENDROOT
BRANCH   1   2
HETATM    2  C7  UNL     1      24.837   3.912  50.960  1.00  0.00     0.041 A 
HETATM    3  C2  UNL     1      24.792   5.233  50.575  1.00  0.00    -0.035 A 
HETATM    4  C1  UNL     1      23.738   6.013  51.274  1.00  0.00     0.050 C 
HETATM    5  C3  UNL     1      25.667   5.708  49.626  1.00  0.00     0.009 A 
HETATM    6  C4  UNL     1      26.611   4.895  49.031  1.00  0.00     0.001 A 
HETATM    7  C5  UNL     1      26.688   3.543  49.395  1.00  0.00     0.002 A 
HETATM    8  C6  UNL     1      25.797   3.096  50.350  1.00  0.00     0.030 A 
ENDBRANCH   1   2
BRANCH   1   9
HETATM    9  C8  UNL     1      24.539   2.862  53.234  1.00  0.00     0.171 C 
BRANCH   9  10
HETATM   10  C9  UNL     1      25.360   1.633  53.255  1.00  0.00    -0.006 A 
HETATM   11  C10 UNL     1      24.857   0.386  52.919  1.00  0.00     0.012 A 
HETATM   12  C11 UNL     1      25.602  -0.771  52.931  1.00  0.00     0.001 A 
HETATM   13  C12 UNL     1      26.940  -0.724  53.297  1.00  0.00     0.009 A 
HETATM   14  C13 UNL     1      27.489   0.515  53.644  1.00  0.00    -0.028 A 
HETATM   15  C14 UNL     1      28.925   0.529  54.031  1.00  0.00     0.051 C 
HETATM   16  C15 UNL     1      26.689   1.643  53.613  1.00  0.00     0.079 A 
BRANCH  16  17
HETATM   17  O1  UNL     1      27.306   2.845  53.972  1.00  0.00    -0.360 OA
HETATM   18  H16 UNL     1      27.880   3.383  53.313  1.00  0.00     0.217 HD
ENDBRANCH  16  17
ENDBRANCH   9  10
ENDBRANCH   1   9
BRANCH   1  19
HETATM   19  C16 UNL     1      22.778   2.772  51.462  1.00  0.00     0.141 C 
HETATM   20  S1  UNL     1      22.498   1.962  50.102  1.00  0.00    -0.057 SA
BRANCH  19  21
HETATM   21  C17 UNL     1      21.632   3.103  52.297  1.00  0.00     0.300 C 
HETATM   22  O2  UNL     1      20.427   3.397  52.609  1.00  0.00    -0.299 OA
ENDBRANCH  19  21
ENDBRANCH   1  19
TORSDOF 6
ENDMDL
MODEL 2
REMARK VINA RESULT:      -7.2      0.720      1.611
REMARK  6 active torsions:
REMARK  status: ('A' for Active; 'I' for Inactive)
REMARK    1  A    between atoms: C7_7  and  N1_8 
REMARK    2  A    between atoms: N1_8  and  C8_9 
REMARK    3  A    between atoms: N1_8  and  C16_18 
REMARK    4  A    between atoms: C8_9  and  C9_10 
REMARK    5  A    between atoms: C15_16  and  O1_17 
REMARK    6  A    between atoms: C16_18  and  C17_20 
ROOT
HETATM    1  N1  UNL     1      24.120   3.482  51.724  1.00  0.00    -0.331 N 
ENDROOT
BRANCH   1   2
HETATM    2  C7  UNL     1      25.013   4.035  50.768  1.00  0.00     0.041 A 
HETATM    3  C2  UNL     1      26.101   3.494  50.120  1.00  0.00    -0.035 A 
HETATM    4  C1  UNL     1      26.378   2.088  50.509  1.00  0.00     0.050 C 
HETATM    5  C3  UNL     1      26.813   4.249  49.216  1.00  0.00     0.009 A 
HETATM    6  C4  UNL     1      26.473   5.555  48.926  1.00  0.00     0.001 A 
HETATM    7  C5  UNL     1      25.372   6.141  49.567  1.00  0.00     0.002 A 
HETATM    8  C6  UNL     1      24.677   5.360  50.467  1.00  0.00     0.030 A 
ENDBRANCH   1   2
BRANCH   1   9
HETATM    9  C8  UNL     1      24.467   3.303  53.119  1.00  0.00     0.171 C 
BRANCH   9  10
HETATM   10  C9  UNL     1      24.948   1.935  53.405  1.00  0.00    -0.006 A 
HETATM   11  C10 UNL     1      24.162   0.808  53.223  1.00  0.00     0.012 A 
HETATM   12  C11 UNL     1      24.587  -0.474  53.482  1.00  0.00     0.001 A 
HETATM   13  C12 UNL     1      25.874  -0.689  53.955  1.00  0.00     0.009 A 
HETATM   14  C13 UNL     1      26.701   0.421  54.154  1.00  0.00    -0.028 A 
HETATM   15  C14 UNL     1      28.073   0.154  54.662  1.00  0.00     0.051 C 
HETATM   16  C15 UNL     1      26.216   1.685  53.876  1.00  0.00     0.079 A 
BRANCH  16  17
HETATM   17  O1  UNL     1      27.099   2.746  54.098  1.00  0.00    -0.360 OA
HETATM   18  H16 UNL     1      27.520   3.279  53.327  1.00  0.00     0.217 HD
ENDBRANCH  16  17
ENDBRANCH   9  10
ENDBRANCH   1   9
BRANCH   1  19
HETATM   19  C16 UNL     1      22.842   3.105  51.230  1.00  0.00     0.141 C 
HETATM   20  S1  UNL     1      22.604   2.215  49.912  1.00  0.00    -0.057 SA
BRANCH  19  21
HETATM   21  C17 UNL     1      21.666   3.550  51.964  1.00  0.00     0.300 C 
HETATM   22  O2  UNL     1      20.516   3.498  52.521  1.00  0.00    -0.299 OA
ENDBRANCH  19  21
ENDBRANCH   1  19
TORSDOF 6
ENDMDL
MODEL 3
REMARK VINA RESULT:      -6.9      1.469      1.652
REMARK  6 active torsions:
REMARK  status: ('A' for Active; 'I' for Inactive)
REMARK    1  A    between atoms: C7_7  and  N1_8 
REMARK    2  A    between atoms: N1_8  and  C8_9 
REMARK    3  A    between atoms: N1_8  and  C16_18 
REMARK    4  A    between atoms: C8_9  and  C9_10 
REMARK    5  A    between atoms: C15_16  and  O1_17 
REMARK    6  A    between atoms: C16_18  and  C17_20 
ROOT
HETATM    1  N1  UNL     1      23.857   3.874  51.509  1.00  0.00    -0.331 N 
ENDROOT
BRANCH   1   2
HETATM    2  C7  UNL     1      24.864   4.349  50.628  1.00  0.00     0.041 A 
HETATM    3  C2  UNL     1      25.128   5.612  50.144  1.00  0.00    -0.035 A 
HETATM    4  C1  UNL     1      24.176   6.641  50.636  1.00  0.00     0.050 C 
HETATM    5  C3  UNL     1      26.187   5.818  49.290  1.00  0.00     0.009 A 
HETATM    6  C4  UNL     1      27.014   4.787  48.890  1.00  0.00     0.001 A 
HETATM    7  C5  UNL     1      26.776   3.487  49.360  1.00  0.00     0.002 A 
HETATM    8  C6  UNL     1      25.708   3.312  50.215  1.00  0.00     0.030 A 
ENDBRANCH   1   2
BRANCH   1   9
HETATM    9  C8  UNL     1      24.090   3.624  52.917  1.00  0.00     0.171 C 
BRANCH   9  10
HETATM   10  C9  UNL     1      24.434   2.212  53.185  1.00  0.00    -0.006 A 
HETATM   11  C10 UNL     1      23.538   1.171  52.997  1.00  0.00     0.012 A 
HETATM   12  C11 UNL     1      23.835  -0.150  53.240  1.00  0.00     0.001 A 
HETATM   13  C12 UNL     1      25.097  -0.498  53.701  1.00  0.00     0.009 A 
HETATM   14  C13 UNL     1      26.033   0.522  53.904  1.00  0.00    -0.028 A 
HETATM   15  C14 UNL     1      27.375   0.114  54.399  1.00  0.00     0.051 C 
HETATM   16  C15 UNL     1      25.674   1.831  53.643  1.00  0.00     0.079 A 
BRANCH  16  17
HETATM   17  O1  UNL     1      26.660   2.796  53.868  1.00  0.00    -0.360 OA
HETATM   18  H16 UNL     1      27.498   2.871  53.279  1.00  0.00     0.217 HD
ENDBRANCH  16  17
ENDBRANCH   9  10
ENDBRANCH   1   9
BRANCH   1  19
HETATM   19  C16 UNL     1      22.581   3.650  50.925  1.00  0.00     0.141 C 
HETATM   20  S1  UNL     1      21.217   4.336  51.431  1.00  0.00    -0.057 SA
BRANCH  19  21
HETATM   21  C17 UNL     1      22.497   2.742  49.790  1.00  0.00     0.300 C 
HETATM   22  O2  UNL     1      22.375   1.643  49.146  1.00  0.00    -0.299 OA
ENDBRANCH  19  21
ENDBRANCH   1  19
TORSDOF 6
ENDMDL
MODEL 4
REMARK VINA RESULT:      -6.9      2.411      5.488
REMARK  6 active torsions:
REMARK  status: ('A' for Active; 'I' for Inactive)
REMARK    1  A    between atoms: C7_7  and  N1_8 
REMARK    2  A    between atoms: N1_8  and  C8_9 
REMARK    3  A    between atoms: N1_8  and  C16_18 
REMARK    4  A    between atoms: C8_9  and  C9_10 
REMARK    5  A    between atoms: C15_16  and  O1_17 
REMARK    6  A    between atoms: C16_18  and  C17_20 
ROOT
HETATM    1  N1  UNL     1      22.986   2.608  51.254  1.00  0.00    -0.331 N 
ENDROOT
BRANCH   1   2
HETATM    2  C7  UNL     1      23.267   1.471  52.056  1.00  0.00     0.041 A 
HETATM    3  C2  UNL     1      22.545   0.322  52.292  1.00  0.00    -0.035 A 
HETATM    4  C1  UNL     1      21.242   0.290  51.579  1.00  0.00     0.050 C 
HETATM    5  C3  UNL     1      23.048  -0.653  53.123  1.00  0.00     0.009 A 
HETATM    6  C4  UNL     1      24.274  -0.523  53.743  1.00  0.00     0.001 A 
HETATM    7  C5  UNL     1      25.039   0.633  53.528  1.00  0.00     0.002 A 
HETATM    8  C6  UNL     1      24.509   1.592  52.690  1.00  0.00     0.030 A 
ENDBRANCH   1   2
BRANCH   1   9
HETATM    9  C8  UNL     1      23.264   2.662  49.833  1.00  0.00     0.171 C 
BRANCH   9  10
HETATM   10  C9  UNL     1      24.408   3.544  49.520  1.00  0.00    -0.006 A 
HETATM   11  C10 UNL     1      25.727   3.156  49.693  1.00  0.00     0.012 A 
HETATM   12  C11 UNL     1      26.807   3.959  49.409  1.00  0.00     0.001 A 
HETATM   13  C12 UNL     1      26.601   5.241  48.919  1.00  0.00     0.009 A 
HETATM   14  C13 UNL     1      25.285   5.674  48.730  1.00  0.00    -0.028 A 
HETATM   15  C14 UNL     1      25.101   7.053  48.203  1.00  0.00     0.051 C 
HETATM   16  C15 UNL     1      24.241   4.820  49.034  1.00  0.00     0.079 A 
BRANCH  16  17
HETATM   17  O1  UNL     1      22.953   5.322  48.819  1.00  0.00    -0.360 OA
HETATM   18  H16 UNL     1      22.438   5.836  49.542  1.00  0.00     0.217 HD
ENDBRANCH  16  17
ENDBRANCH   9  10
ENDBRANCH   1   9
BRANCH   1  19
HETATM   19  C16 UNL     1      22.405   3.714  51.931  1.00  0.00     0.141 C 
HETATM   20  S1  UNL     1      23.245   4.896  52.628  1.00  0.00    -0.057 SA
BRANCH  19  21
HETATM   21  C17 UNL     1      20.953   3.789  52.000  1.00  0.00     0.300 C 
HETATM   22  O2  UNL     1      19.760   3.523  52.378  1.00  0.00    -0.299 OA
ENDBRANCH  19  21
ENDBRANCH   1  19
TORSDOF 6
ENDMDL
MODEL 5
REMARK VINA RESULT:      -6.9      2.208      4.042
REMARK  6 active torsions:
REMARK  status: ('A' for Active; 'I' for Inactive)
REMARK    1  A    between atoms: C7_7  and  N1_8 
REMARK    2  A    between atoms: N1_8  and  C8_9 
REMARK    3  A    between atoms: N1_8  and  C16_18 
REMARK    4  A    between atoms: C8_9  and  C9_10 
REMARK    5  A    between atoms: C15_16  and  O1_17 
REMARK    6  A    between atoms: C16_18  and  C17_20 
ROOT
HETATM    1  N1  UNL     1      24.601   2.180  51.358  1.00  0.00    -0.331 N 
ENDROOT
BRANCH   1   2
HETATM    2  C7  UNL     1      23.487   1.376  51.714  1.00  0.00     0.041 A 
HETATM    3  C2  UNL     1      22.339   1.053  51.024  1.00  0.00    -0.035 A 
HETATM    4  C1  UNL     1      22.271   1.672  49.675  1.00  0.00     0.050 C 
HETATM    5  C3  UNL     1      21.394   0.234  51.598  1.00  0.00     0.009 A 
HETATM    6  C4  UNL     1      21.553  -0.289  52.866  1.00  0.00     0.001 A 
HETATM    7  C5  UNL     1      22.708   0.018  53.601  1.00  0.00     0.002 A 
HETATM    8  C6  UNL     1      23.637   0.841  52.999  1.00  0.00     0.030 A 
ENDBRANCH   1   2
BRANCH   1   9
HETATM    9  C8  UNL     1      25.823   1.637  50.800  1.00  0.00     0.171 C 
BRANCH   9  10
HETATM   10  C9  UNL     1      26.638   0.936  51.813  1.00  0.00    -0.006 A 
HETATM   11  C10 UNL     1      26.538  -0.426  52.049  1.00  0.00     0.012 A 
HETATM   12  C11 UNL     1      27.286  -1.100  52.986  1.00  0.00     0.001 A 
HETATM   13  C12 UNL     1      28.206  -0.407  53.760  1.00  0.00     0.009 A 
HETATM   14  C13 UNL     1      28.339   0.971  53.556  1.00  0.00    -0.028 A 
HETATM   15  C14 UNL     1      29.333   1.682  54.403  1.00  0.00     0.051 C 
HETATM   16  C15 UNL     1      27.558   1.592  52.599  1.00  0.00     0.079 A 
BRANCH  16  17
HETATM   17  O1  UNL     1      27.746   2.969  52.450  1.00  0.00    -0.360 OA
HETATM   18  H16 UNL     1      28.077   3.384  51.571  1.00  0.00     0.217 HD
ENDBRANCH  16  17
ENDBRANCH   9  10
ENDBRANCH   1   9
BRANCH   1  19
HETATM   19  C16 UNL     1      24.453   3.575  51.583  1.00  0.00     0.141 C 
HETATM   20  S1  UNL     1      23.673   4.216  52.836  1.00  0.00    -0.057 SA
BRANCH  19  21
HETATM   21  C17 UNL     1      25.047   4.491  50.620  1.00  0.00     0.300 C 
HETATM   22  O2  UNL     1      25.891   4.958  49.780  1.00  0.00    -0.299 OA
ENDBRANCH  19  21
ENDBRANCH   1  19
TORSDOF 6
ENDMDL
MODEL 6
REMARK VINA RESULT:      -6.7      2.051      3.596
REMARK  6 active torsions:
REMARK  status: ('A' for Active; 'I' for Inactive)
REMARK    1  A    between atoms: C7_7  and  N1_8 
REMARK    2  A    between atoms: N1_8  and  C8_9 
REMARK    3  A    between atoms: N1_8  and  C16_18 
REMARK    4  A    between atoms: C8_9  and  C9_10 
REMARK    5  A    between atoms: C15_16  and  O1_17 
REMARK    6  A    between atoms: C16_18  and  C17_20 
ROOT
HETATM    1  N1  UNL     1      23.729   3.299  51.363  1.00  0.00    -0.331 N 
ENDROOT
BRANCH   1   2
HETATM    2  C7  UNL     1      22.490   2.833  50.850  1.00  0.00     0.041 A 
HETATM    3  C2  UNL     1      21.211   3.332  50.964  1.00  0.00    -0.035 A 
HETATM    4  C1  UNL     1      21.135   4.572  51.779  1.00  0.00     0.050 C 
HETATM    5  C3  UNL     1      20.160   2.685  50.357  1.00  0.00     0.009 A 
HETATM    6  C4  UNL     1      20.338   1.531  49.621  1.00  0.00     0.001 A 
HETATM    7  C5  UNL     1      21.625   0.991  49.483  1.00  0.00     0.002 A 
HETATM    8  C6  UNL     1      22.660   1.662  50.102  1.00  0.00     0.030 A 
ENDBRANCH   1   2
BRANCH   1   9
HETATM    9  C8  UNL     1      24.065   3.266  52.772  1.00  0.00     0.171 C 
BRANCH   9  10
HETATM   10  C9  UNL     1      24.507   1.925  53.210  1.00  0.00    -0.006 A 
HETATM   11  C10 UNL     1      23.698   0.803  53.130  1.00  0.00     0.012 A 
HETATM   12  C11 UNL     1      24.087  -0.455  53.531  1.00  0.00     0.001 A 
HETATM   13  C12 UNL     1      25.360  -0.647  54.051  1.00  0.00     0.009 A 
HETATM   14  C13 UNL     1      26.209   0.460  54.149  1.00  0.00    -0.028 A 
HETATM   15  C14 UNL     1      27.565   0.217  54.711  1.00  0.00     0.051 C 
HETATM   16  C15 UNL     1      25.760   1.698  53.730  1.00  0.00     0.079 A 
BRANCH  16  17
HETATM   17  O1  UNL     1      26.664   2.756  53.858  1.00  0.00    -0.360 OA
HETATM   18  H16 UNL     1      27.079   3.016  54.761  1.00  0.00     0.217 HD
ENDBRANCH  16  17
ENDBRANCH   9  10
ENDBRANCH   1   9
BRANCH   1  19
HETATM   19  C16 UNL     1      24.641   3.813  50.403  1.00  0.00     0.141 C 
HETATM   20  S1  UNL     1      24.267   4.915  49.292  1.00  0.00    -0.057 SA
BRANCH  19  21
HETATM   21  C17 UNL     1      26.009   3.314  50.422  1.00  0.00     0.300 C 
HETATM   22  O2  UNL     1      27.143   2.956  50.893  1.00  0.00    -0.299 OA
ENDBRANCH  19  21
ENDBRANCH   1  19
TORSDOF 6
ENDMDL
MODEL 7
REMARK VINA RESULT:      -6.6      1.772      3.209
REMARK  6 active torsions:
REMARK  status: ('A' for Active; 'I' for Inactive)
REMARK    1  A    between atoms: C7_7  and  N1_8 
REMARK    2  A    between atoms: N1_8  and  C8_9 
REMARK    3  A    between atoms: N1_8  and  C16_18 
REMARK    4  A    between atoms: C8_9  and  C9_10 
REMARK    5  A    between atoms: C15_16  and  O1_17 
REMARK    6  A    between atoms: C16_18  and  C17_20 
ROOT
HETATM    1  N1  UNL     1      24.255   3.082  51.801  1.00  0.00    -0.331 N 
ENDROOT
BRANCH   1   2
HETATM    2  C7  UNL     1      22.947   2.789  51.333  1.00  0.00     0.041 A 
HETATM    3  C2  UNL     1      21.741   3.421  51.544  1.00  0.00    -0.035 A 
HETATM    4  C1  UNL     1      21.849   4.612  52.426  1.00  0.00     0.050 C 
HETATM    5  C3  UNL     1      20.594   2.933  50.962  1.00  0.00     0.009 A 
HETATM    6  C4  UNL     1      20.602   1.812  50.157  1.00  0.00     0.001 A 
HETATM    7  C5  UNL     1      21.810   1.139  49.920  1.00  0.00     0.002 A 
HETATM    8  C6  UNL     1      22.944   1.652  50.516  1.00  0.00     0.030 A 
ENDBRANCH   1   2
BRANCH   1   9
HETATM    9  C8  UNL     1      24.704   2.768  53.143  1.00  0.00     0.171 C 
BRANCH   9  10
HETATM   10  C9  UNL     1      25.569   1.571  53.178  1.00  0.00    -0.006 A 
HETATM   11  C10 UNL     1      25.126   0.311  52.807  1.00  0.00     0.012 A 
HETATM   12  C11 UNL     1      25.914  -0.817  52.831  1.00  0.00     0.001 A 
HETATM   13  C12 UNL     1      27.235  -0.725  53.246  1.00  0.00     0.009 A 
HETATM   14  C13 UNL     1      27.723   0.529  53.629  1.00  0.00    -0.028 A 
HETATM   15  C14 UNL     1      29.143   0.591  54.068  1.00  0.00     0.051 C 
HETATM   16  C15 UNL     1      26.883   1.626  53.584  1.00  0.00     0.079 A 
BRANCH  16  17
HETATM   17  O1  UNL     1      27.440   2.845  53.980  1.00  0.00    -0.360 OA
HETATM   18  H16 UNL     1      27.951   3.451  53.328  1.00  0.00     0.217 HD
ENDBRANCH  16  17
ENDBRANCH   9  10
ENDBRANCH   1   9
BRANCH   1  19
HETATM   19  C16 UNL     1      25.119   3.713  50.866  1.00  0.00     0.141 C 
HETATM   20  S1  UNL     1      26.369   2.993  50.155  1.00  0.00    -0.057 SA
BRANCH  19  21
HETATM   21  C17 UNL     1      24.857   5.103  50.523  1.00  0.00     0.300 C 
HETATM   22  O2  UNL     1      24.344   6.273  50.587  1.00  0.00    -0.299 OA
ENDBRANCH  19  21
ENDBRANCH   1  19
TORSDOF 6
ENDMDL
MODEL 8
REMARK VINA RESULT:      -6.6      7.368     10.456
REMARK  6 active torsions:
REMARK  status: ('A' for Active; 'I' for Inactive)
REMARK    1  A    between atoms: C7_7  and  N1_8 
REMARK    2  A    between atoms: N1_8  and  C8_9 
REMARK    3  A    between atoms: N1_8  and  C16_18 
REMARK    4  A    between atoms: C8_9  and  C9_10 
REMARK    5  A    between atoms: C15_16  and  O1_17 
REMARK    6  A    between atoms: C16_18  and  C17_20 
ROOT
HETATM    1  N1  UNL     1      32.926   6.858  47.346  1.00  0.00    -0.331 N 
ENDROOT
BRANCH   1   2
HETATM    2  C7  UNL     1      33.304   5.489  47.337  1.00  0.00     0.041 A 
HETATM    3  C2  UNL     1      34.335   4.825  47.964  1.00  0.00    -0.035 A 
HETATM    4  C1  UNL     1      35.197   5.717  48.782  1.00  0.00     0.050 C 
HETATM    5  C3  UNL     1      34.487   3.468  47.796  1.00  0.00     0.009 A 
HETATM    6  C4  UNL     1      33.629   2.729  47.007  1.00  0.00     0.001 A 
HETATM    7  C5  UNL     1      32.568   3.369  46.351  1.00  0.00     0.002 A 
HETATM    8  C6  UNL     1      32.440   4.730  46.539  1.00  0.00     0.030 A 
ENDBRANCH   1   2
BRANCH   1   9
HETATM    9  C8  UNL     1      32.058   7.432  48.354  1.00  0.00     0.171 C 
BRANCH   9  10
HETATM   10  C9  UNL     1      30.633   7.364  47.969  1.00  0.00    -0.006 A 
HETATM   11  C10 UNL     1      30.041   8.276  47.109  1.00  0.00     0.012 A 
HETATM   12  C11 UNL     1      28.717   8.233  46.737  1.00  0.00     0.001 A 
HETATM   13  C12 UNL     1      27.896   7.231  47.233  1.00  0.00     0.009 A 
HETATM   14  C13 UNL     1      28.452   6.289  48.104  1.00  0.00    -0.028 A 
HETATM   15  C14 UNL     1      27.543   5.229  48.617  1.00  0.00     0.051 C 
HETATM   16  C15 UNL     1      29.790   6.385  48.442  1.00  0.00     0.079 A 
BRANCH  16  17
HETATM   17  O1  UNL     1      30.276   5.409  49.316  1.00  0.00    -0.360 OA
HETATM   18  H16 UNL     1      31.038   5.597  49.977  1.00  0.00     0.217 HD
ENDBRANCH  16  17
ENDBRANCH   9  10
ENDBRANCH   1   9
BRANCH   1  19
HETATM   19  C16 UNL     1      33.454   7.651  46.292  1.00  0.00     0.141 C 
HETATM   20  S1  UNL     1      32.947   7.591  44.767  1.00  0.00    -0.057 SA
BRANCH  19  21
HETATM   21  C17 UNL     1      34.524   8.586  46.609  1.00  0.00     0.300 C 
HETATM   22  O2  UNL     1      35.584   9.047  47.157  1.00  0.00    -0.299 OA
ENDBRANCH  19  21
ENDBRANCH   1  19
TORSDOF 6
ENDMDL
MODEL 9
REMARK VINA RESULT:      -6.5      1.952      3.403
REMARK  6 active torsions:
REMARK  status: ('A' for Active; 'I' for Inactive)
REMARK    1  A    between atoms: C7_7  and  N1_8 
REMARK    2  A    between atoms: N1_8  and  C8_9 
REMARK    3  A    between atoms: N1_8  and  C16_18 
REMARK    4  A    between atoms: C8_9  and  C9_10 
REMARK    5  A    between atoms: C15_16  and  O1_17 
REMARK    6  A    between atoms: C16_18  and  C17_20 
ROOT
HETATM    1  N1  UNL     1      23.926   4.425  51.547  1.00  0.00    -0.331 N 
ENDROOT
BRANCH   1   2
HETATM    2  C7  UNL     1      23.180   5.571  51.165  1.00  0.00     0.041 A 
HETATM    3  C2  UNL     1      21.823   5.778  51.051  1.00  0.00    -0.035 A 
HETATM    4  C1  UNL     1      21.016   4.575  51.382  1.00  0.00     0.050 C 
HETATM    5  C3  UNL     1      21.341   7.005  50.660  1.00  0.00     0.009 A 
HETATM    6  C4  UNL     1      22.180   8.062  50.371  1.00  0.00     0.001 A 
HETATM    7  C5  UNL     1      23.569   7.891  50.474  1.00  0.00     0.002 A 
HETATM    8  C6  UNL     1      24.023   6.649  50.869  1.00  0.00     0.030 A 
ENDBRANCH   1   2
BRANCH   1   9
HETATM    9  C8  UNL     1      24.081   4.004  52.924  1.00  0.00     0.171 C 
BRANCH   9  10
HETATM   10  C9  UNL     1      24.104   2.533  53.060  1.00  0.00    -0.006 A 
HETATM   11  C10 UNL     1      23.020   1.730  52.740  1.00  0.00     0.012 A 
HETATM   12  C11 UNL     1      23.018   0.359  52.858  1.00  0.00     0.001 A 
HETATM   13  C12 UNL     1      24.152  -0.292  53.322  1.00  0.00     0.009 A 
HETATM   14  C13 UNL     1      25.269   0.480  53.658  1.00  0.00    -0.028 A 
HETATM   15  C14 UNL     1      26.467  -0.251  54.152  1.00  0.00     0.051 C 
HETATM   16  C15 UNL     1      25.210   1.854  53.518  1.00  0.00     0.079 A 
BRANCH  16  17
HETATM   17  O1  UNL     1      26.364   2.559  53.871  1.00  0.00    -0.360 OA
HETATM   18  H16 UNL     1      27.279   2.355  53.454  1.00  0.00     0.217 HD
ENDBRANCH  16  17
ENDBRANCH   9  10
ENDBRANCH   1   9
BRANCH   1  19
HETATM   19  C16 UNL     1      24.528   3.698  50.485  1.00  0.00     0.141 C 
HETATM   20  S1  UNL     1      23.719   3.053  49.253  1.00  0.00    -0.057 SA
BRANCH  19  21
HETATM   21  C17 UNL     1      25.973   3.524  50.506  1.00  0.00     0.300 C 
HETATM   22  O2  UNL     1      27.117   3.081  50.868  1.00  0.00    -0.299 OA
ENDBRANCH  19  21
ENDBRANCH   1  19
TORSDOF 6
ENDMDL
