MODEL 1
REMARK VINA RESULT:      -6.9      0.000      0.000
REMARK  5 active torsions:
REMARK  status: ('A' for Active; 'I' for Inactive)
REMARK    1  A    between atoms: C2_2  and  N1_3 
REMARK    2  A    between atoms: N2_6  and  C5_7 
REMARK    3  A    between atoms: C5_7  and  C6_8 
REMARK    4  A    between atoms: C6_8  and  O1_9 
REMARK    5  A    between atoms: O1_9  and  C7_10 
ROOT
HETATM    1  C7  UNL     1      26.467   0.575  53.204  1.00  0.00     0.192 C 
HETATM    2  C8  UNL     1      27.114   1.866  52.804  1.00  0.00     0.099 C 
HETATM    3  C9  UNL     1      28.391   2.182  53.491  1.00  0.00    -0.003 C 
HETATM    4  C10 UNL     1      29.296   1.236  53.810  1.00  0.00     0.108 C 
HETATM    5  N3  UNL     1      28.613  -0.003  54.131  1.00  0.00    -0.275 N 
HETATM    6  C11 UNL     1      27.191   0.176  54.507  1.00  0.00     0.219 C 
HETATM    7  N4  UNL     1      29.337  -1.229  54.031  1.00  0.00    -0.166 NA
HETATM    8  C12 UNL     1      28.948  -2.325  53.348  1.00  0.00     0.257 C 
HETATM    9  N5  UNL     1      27.662  -2.621  52.688  1.00  0.00    -0.229 NA
HETATM   10  C13 UNL     1      26.958  -1.722  52.007  1.00  0.00     0.256 C 
HETATM   11  O2  UNL     1      26.472  -0.417  52.232  1.00  0.00    -0.305 OA
ENDROOT
BRANCH   1  12
HETATM   12  O1  UNL     1      25.167   0.733  53.627  1.00  0.00    -0.351 OA
BRANCH  12  13
HETATM   13  C6  UNL     1      24.149   0.690  52.745  1.00  0.00     0.191 C 
BRANCH  13  14
HETATM   14  C5  UNL     1      23.406   2.018  52.928  1.00  0.00     0.143 C 
BRANCH  14  15
HETATM   15  N2  UNL     1      23.621   2.976  51.924  1.00  0.00    -0.407 N 
HETATM   16  C4  UNL     1      23.522   4.357  52.256  1.00  0.00     0.136 C 
HETATM   17  C3  UNL     1      23.871   5.201  51.044  1.00  0.00     0.136 C 
HETATM   18  N1  UNL     1      24.422   4.505  49.948  1.00  0.00    -0.410 N 
HETATM   19  C15 UNL     1      23.906   3.232  49.606  1.00  0.00     0.136 C 
HETATM   20  C14 UNL     1      22.976   2.664  50.657  1.00  0.00     0.136 C 
BRANCH  18  21
HETATM   21  C2  UNL     1      25.831   4.691  49.780  1.00  0.00     0.112 C 
HETATM   22  C1  UNL     1      26.530   3.376  49.537  1.00  0.00     0.026 C 
ENDBRANCH  18  21
ENDBRANCH  14  15
ENDBRANCH  13  14
ENDBRANCH  12  13
ENDBRANCH   1  12
TORSDOF 5
ENDMDL
MODEL 2
REMARK VINA RESULT:      -6.9      1.680      2.297
REMARK  5 active torsions:
REMARK  status: ('A' for Active; 'I' for Inactive)
REMARK    1  A    between atoms: C2_2  and  N1_3 
REMARK    2  A    between atoms: N2_6  and  C5_7 
REMARK    3  A    between atoms: C5_7  and  C6_8 
REMARK    4  A    between atoms: C6_8  and  O1_9 
REMARK    5  A    between atoms: O1_9  and  C7_10 
ROOT
HETATM    1  C7  UNL     1      26.000   0.172  53.383  1.00  0.00     0.192 C 
HETATM    2  C8  UNL     1      26.156   1.506  52.720  1.00  0.00     0.099 C 
HETATM    3  C9  UNL     1      27.347   2.290  53.129  1.00  0.00    -0.003 C 
HETATM    4  C10 UNL     1      28.535   1.715  53.401  1.00  0.00     0.108 C 
HETATM    5  N3  UNL     1      28.318   0.406  53.988  1.00  0.00    -0.275 N 
HETATM    6  C11 UNL     1      26.972   0.229  54.580  1.00  0.00     0.219 C 
HETATM    7  N4  UNL     1      29.370  -0.558  53.918  1.00  0.00    -0.166 NA
HETATM    8  C12 UNL     1      29.258  -1.820  53.455  1.00  0.00     0.257 C 
HETATM    9  N5  UNL     1      28.054  -2.582  53.071  1.00  0.00    -0.229 NA
HETATM   10  C13 UNL     1      27.024  -2.056  52.415  1.00  0.00     0.256 C 
HETATM   11  O2  UNL     1      26.189  -0.928  52.557  1.00  0.00    -0.305 OA
ENDROOT
BRANCH   1  12
HETATM   12  O1  UNL     1      24.780   0.018  54.003  1.00  0.00    -0.351 OA
BRANCH  12  13
HETATM   13  C6  UNL     1      23.773  -0.626  53.383  1.00  0.00     0.191 C 
BRANCH  13  14
HETATM   14  C5  UNL     1      22.499   0.104  53.824  1.00  0.00     0.143 C 
BRANCH  14  15
HETATM   15  N2  UNL     1      22.080   1.151  52.987  1.00  0.00    -0.407 N 
HETATM   16  C4  UNL     1      20.719   1.567  53.033  1.00  0.00     0.136 C 
HETATM   17  C3  UNL     1      20.517   2.755  52.111  1.00  0.00     0.136 C 
HETATM   18  N1  UNL     1      21.692   3.338  51.591  1.00  0.00    -0.410 N 
HETATM   19  C15 UNL     1      22.760   2.501  51.189  1.00  0.00     0.136 C 
HETATM   20  C14 UNL     1      22.586   1.062  51.626  1.00  0.00     0.136 C 
BRANCH  18  21
HETATM   21  C2  UNL     1      22.049   4.585  52.197  1.00  0.00     0.112 C 
HETATM   22  C1  UNL     1      23.472   4.561  52.696  1.00  0.00     0.026 C 
ENDBRANCH  18  21
ENDBRANCH  14  15
ENDBRANCH  13  14
ENDBRANCH  12  13
ENDBRANCH   1  12
TORSDOF 5
ENDMDL
MODEL 3
REMARK VINA RESULT:      -6.7      2.932      4.228
REMARK  5 active torsions:
REMARK  status: ('A' for Active; 'I' for Inactive)
REMARK    1  A    between atoms: C2_2  and  N1_3 
REMARK    2  A    between atoms: N2_6  and  C5_7 
REMARK    3  A    between atoms: C5_7  and  C6_8 
REMARK    4  A    between atoms: C6_8  and  O1_9 
REMARK    5  A    between atoms: O1_9  and  C7_10 
ROOT
HETATM    1  C7  UNL     1      25.991  -0.420  53.150  1.00  0.00     0.192 C 
HETATM    2  C8  UNL     1      25.841   0.773  52.257  1.00  0.00     0.099 C 
HETATM    3  C9  UNL     1      26.766   1.900  52.532  1.00  0.00    -0.003 C 
HETATM    4  C10 UNL     1      28.044   1.711  52.919  1.00  0.00     0.108 C 
HETATM    5  N3  UNL     1      28.134   0.512  53.731  1.00  0.00    -0.275 N 
HETATM    6  C11 UNL     1      26.844   0.094  54.329  1.00  0.00     0.219 C 
HETATM    7  N4  UNL     1      29.399  -0.140  53.850  1.00  0.00    -0.166 NA
HETATM    8  C12 UNL     1      29.640  -1.448  53.623  1.00  0.00     0.257 C 
HETATM    9  N5  UNL     1      28.695  -2.553  53.368  1.00  0.00    -0.229 NA
HETATM   10  C13 UNL     1      27.606  -2.435  52.615  1.00  0.00     0.256 C 
HETATM   11  O2  UNL     1      26.504  -1.557  52.540  1.00  0.00    -0.305 OA
ENDROOT
BRANCH   1  12
HETATM   12  O1  UNL     1      24.817  -0.779  53.772  1.00  0.00    -0.351 OA
BRANCH  12  13
HETATM   13  C6  UNL     1      23.726   0.006  53.681  1.00  0.00     0.191 C 
BRANCH  13  14
HETATM   14  C5  UNL     1      22.614  -0.913  53.162  1.00  0.00     0.143 C 
BRANCH  14  15
HETATM   15  N2  UNL     1      21.377  -0.293  52.923  1.00  0.00    -0.407 N 
HETATM   16  C4  UNL     1      21.346   1.110  52.681  1.00  0.00     0.136 C 
HETATM   17  C3  UNL     1      19.925   1.543  52.370  1.00  0.00     0.136 C 
HETATM   18  N1  UNL     1      18.996   0.502  52.160  1.00  0.00    -0.410 N 
HETATM   19  C15 UNL     1      19.057  -0.654  52.975  1.00  0.00     0.136 C 
HETATM   20  C14 UNL     1      20.314  -0.724  53.817  1.00  0.00     0.136 C 
BRANCH  18  21
HETATM   21  C2  UNL     1      18.636   0.301  50.790  1.00  0.00     0.112 C 
HETATM   22  C1  UNL     1      17.143   0.401  50.597  1.00  0.00     0.026 C 
ENDBRANCH  18  21
ENDBRANCH  14  15
ENDBRANCH  13  14
ENDBRANCH  12  13
ENDBRANCH   1  12
TORSDOF 5
ENDMDL
MODEL 4
REMARK VINA RESULT:      -6.7      1.722      3.468
REMARK  5 active torsions:
REMARK  status: ('A' for Active; 'I' for Inactive)
REMARK    1  A    between atoms: C2_2  and  N1_3 
REMARK    2  A    between atoms: N2_6  and  C5_7 
REMARK    3  A    between atoms: C5_7  and  C6_8 
REMARK    4  A    between atoms: C6_8  and  O1_9 
REMARK    5  A    between atoms: O1_9  and  C7_10 
ROOT
HETATM    1  C7  UNL     1      26.334   1.573  52.204  1.00  0.00     0.192 C 
HETATM    2  C8  UNL     1      24.946   1.525  52.765  1.00  0.00     0.099 C 
HETATM    3  C9  UNL     1      24.526   0.217  53.326  1.00  0.00    -0.003 C 
HETATM    4  C10 UNL     1      25.373  -0.591  53.994  1.00  0.00     0.108 C 
HETATM    5  N3  UNL     1      26.708  -0.457  53.443  1.00  0.00    -0.275 N 
HETATM    6  C11 UNL     1      26.738   0.090  52.067  1.00  0.00     0.219 C 
HETATM    7  N4  UNL     1      27.824  -0.825  54.256  1.00  0.00    -0.166 NA
HETATM    8  C12 UNL     1      28.904  -0.059  54.511  1.00  0.00     0.257 C 
HETATM    9  N5  UNL     1      29.306   1.234  53.923  1.00  0.00    -0.229 NA
HETATM   10  C13 UNL     1      28.453   2.213  53.636  1.00  0.00     0.256 C 
HETATM   11  O2  UNL     1      27.240   2.337  52.927  1.00  0.00    -0.305 OA
ENDROOT
BRANCH   1  12
HETATM   12  O1  UNL     1      26.373   2.010  50.899  1.00  0.00    -0.351 OA
BRANCH  12  13
HETATM   13  C6  UNL     1      26.198   3.313  50.607  1.00  0.00     0.191 C 
BRANCH  13  14
HETATM   14  C5  UNL     1      24.985   3.354  49.670  1.00  0.00     0.143 C 
BRANCH  14  15
HETATM   15  N2  UNL     1      23.846   3.997  50.182  1.00  0.00    -0.407 N 
HETATM   16  C4  UNL     1      22.893   4.537  49.272  1.00  0.00     0.136 C 
HETATM   17  C3  UNL     1      21.717   5.107  50.044  1.00  0.00     0.136 C 
HETATM   18  N1  UNL     1      21.679   4.804  51.421  1.00  0.00    -0.410 N 
HETATM   19  C15 UNL     1      22.884   4.812  52.164  1.00  0.00     0.136 C 
HETATM   20  C14 UNL     1      24.120   4.895  51.294  1.00  0.00     0.136 C 
BRANCH  18  21
HETATM   21  C2  UNL     1      20.711   3.813  51.781  1.00  0.00     0.112 C 
HETATM   22  C1  UNL     1      21.377   2.563  52.298  1.00  0.00     0.026 C 
ENDBRANCH  18  21
ENDBRANCH  14  15
ENDBRANCH  13  14
ENDBRANCH  12  13
ENDBRANCH   1  12
TORSDOF 5
ENDMDL
MODEL 5
REMARK VINA RESULT:      -6.6      2.364      3.963
REMARK  5 active torsions:
REMARK  status: ('A' for Active; 'I' for Inactive)
REMARK    1  A    between atoms: C2_2  and  N1_3 
REMARK    2  A    between atoms: N2_6  and  C5_7 
REMARK    3  A    between atoms: C5_7  and  C6_8 
REMARK    4  A    between atoms: C6_8  and  O1_9 
REMARK    5  A    between atoms: O1_9  and  C7_10 
ROOT
HETATM    1  C7  UNL     1      26.424   1.645  52.219  1.00  0.00     0.192 C 
HETATM    2  C8  UNL     1      25.030   1.660  52.765  1.00  0.00     0.099 C 
HETATM    3  C9  UNL     1      24.541   0.369  53.309  1.00  0.00    -0.003 C 
HETATM    4  C10 UNL     1      25.341  -0.485  53.979  1.00  0.00     0.108 C 
HETATM    5  N3  UNL     1      26.687  -0.412  53.443  1.00  0.00    -0.275 N 
HETATM    6  C11 UNL     1      26.758   0.145  52.072  1.00  0.00     0.219 C 
HETATM    7  N4  UNL     1      27.774  -0.840  54.263  1.00  0.00    -0.166 NA
HETATM    8  C12 UNL     1      28.888  -0.130  54.537  1.00  0.00     0.257 C 
HETATM    9  N5  UNL     1      29.359   1.147  53.965  1.00  0.00    -0.229 NA
HETATM   10  C13 UNL     1      28.557   2.168  53.678  1.00  0.00     0.256 C 
HETATM   11  O2  UNL     1      27.359   2.358  52.958  1.00  0.00    -0.305 OA
ENDROOT
BRANCH   1  12
HETATM   12  O1  UNL     1      26.499   2.091  50.918  1.00  0.00    -0.351 OA
BRANCH  12  13
HETATM   13  C6  UNL     1      25.913   3.248  50.556  1.00  0.00     0.191 C 
BRANCH  13  14
HETATM   14  C5  UNL     1      26.874   3.884  49.546  1.00  0.00     0.143 C 
BRANCH  14  15
HETATM   15  N2  UNL     1      26.567   5.201  49.163  1.00  0.00    -0.407 N 
HETATM   16  C4  UNL     1      25.223   5.524  48.825  1.00  0.00     0.136 C 
HETATM   17  C3  UNL     1      25.114   7.007  48.525  1.00  0.00     0.136 C 
HETATM   18  N1  UNL     1      26.246   7.785  48.845  1.00  0.00    -0.410 N 
HETATM   19  C15 UNL     1      27.538   7.263  48.594  1.00  0.00     0.136 C 
HETATM   20  C14 UNL     1      27.527   5.790  48.242  1.00  0.00     0.136 C 
BRANCH  18  21
HETATM   21  C2  UNL     1      26.097   8.586  50.022  1.00  0.00     0.112 C 
HETATM   22  C1  UNL     1      27.378   9.310  50.355  1.00  0.00     0.026 C 
ENDBRANCH  18  21
ENDBRANCH  14  15
ENDBRANCH  13  14
ENDBRANCH  12  13
ENDBRANCH   1  12
TORSDOF 5
ENDMDL
MODEL 6
REMARK VINA RESULT:      -6.6      1.548      6.254
REMARK  5 active torsions:
REMARK  status: ('A' for Active; 'I' for Inactive)
REMARK    1  A    between atoms: C2_2  and  N1_3 
REMARK    2  A    between atoms: N2_6  and  C5_7 
REMARK    3  A    between atoms: C5_7  and  C6_8 
REMARK    4  A    between atoms: C6_8  and  O1_9 
REMARK    5  A    between atoms: O1_9  and  C7_10 
ROOT
HETATM    1  C7  UNL     1      24.504   2.615  51.444  1.00  0.00     0.192 C 
HETATM    2  C8  UNL     1      25.992   2.595  51.280  1.00  0.00     0.099 C 
HETATM    3  C9  UNL     1      26.505   3.167  50.011  1.00  0.00    -0.003 C 
HETATM    4  C10 UNL     1      25.942   4.239  49.419  1.00  0.00     0.108 C 
HETATM    5  N3  UNL     1      24.512   4.234  49.662  1.00  0.00    -0.275 N 
HETATM    6  C11 UNL     1      23.970   2.903  50.025  1.00  0.00     0.219 C 
HETATM    7  N4  UNL     1      23.795   5.464  49.558  1.00  0.00    -0.166 NA
HETATM    8  C12 UNL     1      22.969   5.980  50.491  1.00  0.00     0.257 C 
HETATM    9  N5  UNL     1      22.460   5.380  51.739  1.00  0.00    -0.229 NA
HETATM   10  C13 UNL     1      23.195   4.620  52.547  1.00  0.00     0.256 C 
HETATM   11  O2  UNL     1      24.025   3.488  52.412  1.00  0.00    -0.305 OA
ENDROOT
BRANCH   1  12
HETATM   12  O1  UNL     1      23.974   1.372  51.710  1.00  0.00    -0.351 OA
BRANCH  12  13
HETATM   13  C6  UNL     1      23.621   1.032  52.964  1.00  0.00     0.191 C 
BRANCH  13  14
HETATM   14  C5  UNL     1      24.217  -0.363  53.184  1.00  0.00     0.143 C 
BRANCH  14  15
HETATM   15  N2  UNL     1      25.597  -0.397  53.444  1.00  0.00    -0.407 N 
HETATM   16  C4  UNL     1      26.409  -1.330  52.739  1.00  0.00     0.136 C 
HETATM   17  C3  UNL     1      27.864  -1.132  53.120  1.00  0.00     0.136 C 
HETATM   18  N1  UNL     1      28.151   0.023  53.879  1.00  0.00    -0.410 N 
HETATM   19  C15 UNL     1      27.252   0.422  54.897  1.00  0.00     0.136 C 
HETATM   20  C14 UNL     1      25.936  -0.326  54.857  1.00  0.00     0.136 C 
BRANCH  18  21
HETATM   21  C2  UNL     1      28.786   1.070  53.139  1.00  0.00     0.112 C 
HETATM   22  C1  UNL     1      28.626   2.401  53.831  1.00  0.00     0.026 C 
ENDBRANCH  18  21
ENDBRANCH  14  15
ENDBRANCH  13  14
ENDBRANCH  12  13
ENDBRANCH   1  12
TORSDOF 5
ENDMDL
MODEL 7
REMARK VINA RESULT:      -6.5      2.098      3.613
REMARK  5 active torsions:
REMARK  status: ('A' for Active; 'I' for Inactive)
REMARK    1  A    between atoms: C2_2  and  N1_3 
REMARK    2  A    between atoms: N2_6  and  C5_7 
REMARK    3  A    between atoms: C5_7  and  C6_8 
REMARK    4  A    between atoms: C6_8  and  O1_9 
REMARK    5  A    between atoms: O1_9  and  C7_10 
ROOT
HETATM    1  C7  UNL     1      26.397   1.904  52.416  1.00  0.00     0.192 C 
HETATM    2  C8  UNL     1      25.041   1.830  53.048  1.00  0.00     0.099 C 
HETATM    3  C9  UNL     1      24.548   0.463  53.350  1.00  0.00    -0.003 C 
HETATM    4  C10 UNL     1      25.362  -0.524  53.774  1.00  0.00     0.108 C 
HETATM    5  N3  UNL     1      26.673  -0.365  53.173  1.00  0.00    -0.275 N 
HETATM    6  C11 UNL     1      26.674   0.461  51.943  1.00  0.00     0.219 C 
HETATM    7  N4  UNL     1      27.797  -0.971  53.812  1.00  0.00    -0.166 NA
HETATM    8  C12 UNL     1      28.947  -0.352  54.148  1.00  0.00     0.257 C 
HETATM    9  N5  UNL     1      29.420   1.007  53.817  1.00  0.00    -0.229 NA
HETATM   10  C13 UNL     1      28.633   2.079  53.801  1.00  0.00     0.256 C 
HETATM   11  O2  UNL     1      27.398   2.433  53.219  1.00  0.00    -0.305 OA
ENDROOT
BRANCH   1  12
HETATM   12  O1  UNL     1      26.402   2.606  51.232  1.00  0.00    -0.351 OA
BRANCH  12  13
HETATM   13  C6  UNL     1      25.248   3.029  50.681  1.00  0.00     0.191 C 
BRANCH  13  14
HETATM   14  C5  UNL     1      25.568   4.405  50.088  1.00  0.00     0.143 C 
BRANCH  14  15
HETATM   15  N2  UNL     1      24.685   5.439  50.443  1.00  0.00    -0.407 N 
HETATM   16  C4  UNL     1      25.179   6.772  50.517  1.00  0.00     0.136 C 
HETATM   17  C3  UNL     1      24.040   7.722  50.837  1.00  0.00     0.136 C 
HETATM   18  N1  UNL     1      22.742   7.171  50.773  1.00  0.00    -0.410 N 
HETATM   19  C15 UNL     1      22.523   5.860  51.260  1.00  0.00     0.136 C 
HETATM   20  C14 UNL     1      23.806   5.112  51.556  1.00  0.00     0.136 C 
BRANCH  18  21
HETATM   21  C2  UNL     1      21.994   7.558  49.617  1.00  0.00     0.112 C 
HETATM   22  C1  UNL     1      20.648   8.120  50.001  1.00  0.00     0.026 C 
ENDBRANCH  18  21
ENDBRANCH  14  15
ENDBRANCH  13  14
ENDBRANCH  12  13
ENDBRANCH   1  12
TORSDOF 5
ENDMDL
MODEL 8
REMARK VINA RESULT:      -6.2      2.473      6.996
REMARK  5 active torsions:
REMARK  status: ('A' for Active; 'I' for Inactive)
REMARK    1  A    between atoms: C2_2  and  N1_3 
REMARK    2  A    between atoms: N2_6  and  C5_7 
REMARK    3  A    between atoms: C5_7  and  C6_8 
REMARK    4  A    between atoms: C6_8  and  O1_9 
REMARK    5  A    between atoms: O1_9  and  C7_10 
ROOT
HETATM    1  C7  UNL     1      22.977   2.757  50.703  1.00  0.00     0.192 C 
HETATM    2  C8  UNL     1      23.075   2.946  49.221  1.00  0.00     0.099 C 
HETATM    3  C9  UNL     1      22.331   1.961  48.398  1.00  0.00    -0.003 C 
HETATM    4  C10 UNL     1      21.135   1.463  48.770  1.00  0.00     0.108 C 
HETATM    5  N3  UNL     1      21.079   1.358  50.215  1.00  0.00    -0.275 N 
HETATM    6  C11 UNL     1      22.410   1.331  50.867  1.00  0.00     0.219 C 
HETATM    7  N4  UNL     1      19.801   1.319  50.851  1.00  0.00    -0.166 NA
HETATM    8  C12 UNL     1      19.396   2.111  51.864  1.00  0.00     0.257 C 
HETATM    9  N5  UNL     1      20.165   3.072  52.678  1.00  0.00    -0.229 NA
HETATM   10  C13 UNL     1      21.103   3.874  52.184  1.00  0.00     0.256 C 
HETATM   11  O2  UNL     1      22.252   3.730  51.379  1.00  0.00    -0.305 OA
ENDROOT
BRANCH   1  12
HETATM   12  O1  UNL     1      24.205   2.657  51.316  1.00  0.00    -0.351 OA
BRANCH  12  13
HETATM   13  C6  UNL     1      24.769   1.452  51.528  1.00  0.00     0.191 C 
BRANCH  13  14
HETATM   14  C5  UNL     1      26.277   1.719  51.578  1.00  0.00     0.143 C 
BRANCH  14  15
HETATM   15  N2  UNL     1      26.921   1.341  52.768  1.00  0.00    -0.407 N 
HETATM   16  C4  UNL     1      26.187   0.611  53.746  1.00  0.00     0.136 C 
HETATM   17  C3  UNL     1      27.101   0.244  54.901  1.00  0.00     0.136 C 
HETATM   18  N1  UNL     1      28.477   0.476  54.695  1.00  0.00    -0.410 N 
HETATM   19  C15 UNL     1      28.886   1.649  54.017  1.00  0.00     0.136 C 
HETATM   20  C14 UNL     1      27.740   2.388  53.359  1.00  0.00     0.136 C 
BRANCH  18  21
HETATM   21  C2  UNL     1      29.244  -0.706  54.450  1.00  0.00     0.112 C 
HETATM   22  C1  UNL     1      30.110  -0.550  53.224  1.00  0.00     0.026 C 
ENDBRANCH  18  21
ENDBRANCH  14  15
ENDBRANCH  13  14
ENDBRANCH  12  13
ENDBRANCH   1  12
TORSDOF 5
ENDMDL
MODEL 9
REMARK VINA RESULT:      -6.2      3.060      6.933
REMARK  5 active torsions:
REMARK  status: ('A' for Active; 'I' for Inactive)
REMARK    1  A    between atoms: C2_2  and  N1_3 
REMARK    2  A    between atoms: N2_6  and  C5_7 
REMARK    3  A    between atoms: C5_7  and  C6_8 
REMARK    4  A    between atoms: C6_8  and  O1_9 
REMARK    5  A    between atoms: O1_9  and  C7_10 
ROOT
HETATM    1  C7  UNL     1      21.802   1.897  52.272  1.00  0.00     0.192 C 
HETATM    2  C8  UNL     1      21.314   3.312  52.324  1.00  0.00     0.099 C 
HETATM    3  C9  UNL     1      20.021   3.570  51.645  1.00  0.00    -0.003 C 
HETATM    4  C10 UNL     1      19.007   2.682  51.654  1.00  0.00     0.108 C 
HETATM    5  N3  UNL     1      19.542   1.334  51.661  1.00  0.00    -0.275 N 
HETATM    6  C11 UNL     1      20.939   1.239  51.175  1.00  0.00     0.219 C 
HETATM    7  N4  UNL     1      18.716   0.272  52.141  1.00  0.00    -0.166 NA
HETATM    8  C12 UNL     1      19.055  -0.630  53.084  1.00  0.00     0.257 C 
HETATM    9  N5  UNL     1      20.358  -0.877  53.731  1.00  0.00    -0.229 NA
HETATM   10  C13 UNL     1      21.198   0.089  54.094  1.00  0.00     0.256 C 
HETATM   11  O2  UNL     1      21.783   1.217  53.483  1.00  0.00    -0.305 OA
ENDROOT
BRANCH   1  12
HETATM   12  O1  UNL     1      23.072   1.783  51.754  1.00  0.00    -0.351 OA
BRANCH  12  13
HETATM   13  C6  UNL     1      24.108   2.419  52.333  1.00  0.00     0.191 C 
BRANCH  13  14
HETATM   14  C5  UNL     1      25.360   1.807  51.696  1.00  0.00     0.143 C 
BRANCH  14  15
HETATM   15  N2  UNL     1      26.084   0.921  52.511  1.00  0.00    -0.407 N 
HETATM   16  C4  UNL     1      26.680  -0.229  51.920  1.00  0.00     0.136 C 
HETATM   17  C3  UNL     1      27.471  -0.989  52.968  1.00  0.00     0.136 C 
HETATM   18  N1  UNL     1      27.652  -0.330  54.202  1.00  0.00    -0.410 N 
HETATM   19  C15 UNL     1      26.582   0.416  54.751  1.00  0.00     0.136 C 
HETATM   20  C14 UNL     1      25.438   0.620  53.779  1.00  0.00     0.136 C 
BRANCH  18  21
HETATM   21  C2  UNL     1      28.968   0.196  54.401  1.00  0.00     0.112 C 
HETATM   22  C1  UNL     1      29.995  -0.596  53.631  1.00  0.00     0.026 C 
ENDBRANCH  18  21
ENDBRANCH  14  15
ENDBRANCH  13  14
ENDBRANCH  12  13
ENDBRANCH   1  12
TORSDOF 5
ENDMDL
