MODEL 1
REMARK VINA RESULT:      -8.4      0.000      0.000
REMARK  2 active torsions:
REMARK  status: ('A' for Active; 'I' for Inactive)
REMARK    1  A    between atoms: N1_1  and  O1_2 
REMARK    2  A    between atoms: O1_2  and  C1_3 
ROOT
HETATM    1  C1  UNL     1      20.567  -0.507  53.347  1.00  0.00     0.092 A 
HETATM    2  C2  UNL     1      20.671  -1.579  54.208  1.00  0.00     0.039 A 
HETATM    3  C3  UNL     1      21.920  -1.876  54.711  1.00  0.00     0.004 A 
HETATM    4  C4  UNL     1      23.055  -1.130  54.373  1.00  0.00     0.014 A 
HETATM    5  C5  UNL     1      22.966  -0.077  53.531  1.00  0.00    -0.006 A 
HETATM    6  C6  UNL     1      24.155   0.678  53.198  1.00  0.00     0.073 C 
HETATM    7  N2  UNL     1      25.204   0.209  53.792  1.00  0.00    -0.228 NA
HETATM    8  C7  UNL     1      26.554   0.715  53.689  1.00  0.00     0.195 C 
HETATM    9  N3  UNL     1      27.269   0.127  54.585  1.00  0.00    -0.246 NA
HETATM   10  C8  UNL     1      28.661   0.233  54.939  1.00  0.00     0.301 C 
HETATM   11  N4  UNL     1      29.262   1.513  54.706  1.00  0.00    -0.261 NA
HETATM   12  C9  UNL     1      29.031   2.430  53.832  1.00  0.00     0.231 C 
HETATM   13  N5  UNL     1      28.060   2.483  52.762  1.00  0.00    -0.219 NA
HETATM   14  C10 UNL     1      26.981   1.736  52.698  1.00  0.00     0.197 C 
HETATM   15  N6  UNL     1      26.288   2.088  51.505  1.00  0.00    -0.245 N 
HETATM   16  O2  UNL     1      25.012   1.687  51.186  1.00  0.00    -0.273 OA
HETATM   17  C11 UNL     1      24.145   1.847  52.285  1.00  0.00     0.261 C 
HETATM   18  C12 UNL     1      21.712   0.202  53.040  1.00  0.00     0.052 A 
HETATM   19  H9  UNL     1      26.894   2.701  50.900  1.00  0.00     0.196 HD
ENDROOT
BRANCH   1  20
HETATM   20  O1  UNL     1      19.325  -0.216  52.849  1.00  0.00    -0.267 OA
BRANCH  20  21
HETATM   21  N1  UNL     1      18.239  -0.890  53.370  1.00  0.00    -0.209 NA
HETATM   22  H1  UNL     1      18.496  -1.173  54.345  1.00  0.00     0.150 HD
HETATM   23  H2  UNL     1      17.380  -0.305  53.429  1.00  0.00     0.150 HD
ENDBRANCH  20  21
ENDBRANCH   1  20
TORSDOF 2
ENDMDL
MODEL 2
REMARK VINA RESULT:      -8.2      2.353      3.586
REMARK  2 active torsions:
REMARK  status: ('A' for Active; 'I' for Inactive)
REMARK    1  A    between atoms: N1_1  and  O1_2 
REMARK    2  A    between atoms: O1_2  and  C1_3 
ROOT
HETATM    1  C1  UNL     1      21.155   3.047  52.008  1.00  0.00     0.092 A 
HETATM    2  C2  UNL     1      21.492   4.384  52.012  1.00  0.00     0.039 A 
HETATM    3  C3  UNL     1      22.778   4.719  52.378  1.00  0.00     0.004 A 
HETATM    4  C4  UNL     1      23.724   3.753  52.736  1.00  0.00     0.014 A 
HETATM    5  C5  UNL     1      23.407   2.439  52.736  1.00  0.00    -0.006 A 
HETATM    6  C6  UNL     1      24.405   1.460  53.111  1.00  0.00     0.073 C 
HETATM    7  N2  UNL     1      25.534   2.015  53.414  1.00  0.00    -0.228 NA
HETATM    8  C7  UNL     1      26.744   1.344  53.831  1.00  0.00     0.195 C 
HETATM    9  N3  UNL     1      27.699   2.207  53.828  1.00  0.00    -0.246 NA
HETATM   10  C8  UNL     1      29.100   2.105  54.151  1.00  0.00     0.301 C 
HETATM   11  N4  UNL     1      29.698   0.826  53.909  1.00  0.00    -0.261 NA
HETATM   12  C9  UNL     1      29.224  -0.370  53.939  1.00  0.00     0.231 C 
HETATM   13  N5  UNL     1      27.889  -0.842  54.234  1.00  0.00    -0.219 NA
HETATM   14  C10 UNL     1      26.808  -0.097  54.188  1.00  0.00     0.197 C 
HETATM   15  N6  UNL     1      25.703  -0.925  54.537  1.00  0.00    -0.245 N 
HETATM   16  O2  UNL     1      24.381  -0.574  54.400  1.00  0.00    -0.273 OA
HETATM   17  C11 UNL     1      24.141   0.001  53.136  1.00  0.00     0.261 C 
HETATM   18  C12 UNL     1      22.120   2.127  52.369  1.00  0.00     0.052 A 
HETATM   19  H9  UNL     1      26.045  -1.846  54.918  1.00  0.00     0.196 HD
ENDROOT
BRANCH   1  20
HETATM   20  O1  UNL     1      19.876   2.719  51.644  1.00  0.00    -0.267 OA
BRANCH  20  21
HETATM   21  N1  UNL     1      18.855   3.572  52.013  1.00  0.00    -0.209 NA
HETATM   22  H1  UNL     1      18.860   4.366  51.331  1.00  0.00     0.150 HD
HETATM   23  H2  UNL     1      17.914   3.129  51.971  1.00  0.00     0.150 HD
ENDBRANCH  20  21
ENDBRANCH   1  20
TORSDOF 2
ENDMDL
MODEL 3
REMARK VINA RESULT:      -8.0      1.773      2.826
REMARK  2 active torsions:
REMARK  status: ('A' for Active; 'I' for Inactive)
REMARK    1  A    between atoms: N1_1  and  O1_2 
REMARK    2  A    between atoms: O1_2  and  C1_3 
ROOT
HETATM    1  C1  UNL     1      19.938  -0.943  53.445  1.00  0.00     0.092 A 
HETATM    2  C2  UNL     1      19.621   0.089  52.587  1.00  0.00     0.039 A 
HETATM    3  C3  UNL     1      20.634   0.948  52.218  1.00  0.00     0.004 A 
HETATM    4  C4  UNL     1      21.945   0.797  52.686  1.00  0.00     0.014 A 
HETATM    5  C5  UNL     1      22.268  -0.210  53.526  1.00  0.00    -0.006 A 
HETATM    6  C6  UNL     1      23.631  -0.343  53.995  1.00  0.00     0.073 C 
HETATM    7  N2  UNL     1      24.398   0.580  53.513  1.00  0.00    -0.228 NA
HETATM    8  C7  UNL     1      25.811   0.751  53.767  1.00  0.00     0.195 C 
HETATM    9  N3  UNL     1      26.258   1.637  52.946  1.00  0.00    -0.246 NA
HETATM   10  C8  UNL     1      27.570   2.199  52.746  1.00  0.00     0.301 C 
HETATM   11  N4  UNL     1      28.668   1.333  53.059  1.00  0.00    -0.261 NA
HETATM   12  C9  UNL     1      28.800   0.380  53.913  1.00  0.00     0.231 C 
HETATM   13  N5  UNL     1      27.862  -0.158  54.872  1.00  0.00    -0.219 NA
HETATM   14  C10 UNL     1      26.558   0.004  54.810  1.00  0.00     0.197 C 
HETATM   15  N6  UNL     1      25.990  -0.675  55.926  1.00  0.00    -0.245 N 
HETATM   16  O2  UNL     1      24.649  -0.921  56.100  1.00  0.00    -0.273 OA
HETATM   17  C11 UNL     1      24.071  -1.420  54.916  1.00  0.00     0.261 C 
HETATM   18  C12 UNL     1      21.244  -1.055  53.882  1.00  0.00     0.052 A 
HETATM   19  H9  UNL     1      26.747  -0.963  56.600  1.00  0.00     0.196 HD
ENDROOT
BRANCH   1  20
HETATM   20  O1  UNL     1      18.929  -1.794  53.809  1.00  0.00    -0.267 OA
BRANCH  20  21
HETATM   21  N1  UNL     1      17.643  -1.293  53.866  1.00  0.00    -0.209 NA
HETATM   22  H1  UNL     1      17.186  -1.525  52.953  1.00  0.00     0.150 HD
HETATM   23  H2  UNL     1      17.068  -1.720  54.621  1.00  0.00     0.150 HD
ENDBRANCH  20  21
ENDBRANCH   1  20
TORSDOF 2
ENDMDL
MODEL 4
REMARK VINA RESULT:      -7.9      2.836      6.234
REMARK  2 active torsions:
REMARK  status: ('A' for Active; 'I' for Inactive)
REMARK    1  A    between atoms: N1_1  and  O1_2 
REMARK    2  A    between atoms: O1_2  and  C1_3 
ROOT
HETATM    1  C1  UNL     1      25.717   4.378  49.488  1.00  0.00     0.092 A 
HETATM    2  C2  UNL     1      24.471   4.412  48.899  1.00  0.00     0.039 A 
HETATM    3  C3  UNL     1      23.513   3.544  49.377  1.00  0.00     0.004 A 
HETATM    4  C4  UNL     1      23.775   2.650  50.422  1.00  0.00     0.014 A 
HETATM    5  C5  UNL     1      24.992   2.607  51.008  1.00  0.00    -0.006 A 
HETATM    6  C6  UNL     1      25.235   1.674  52.087  1.00  0.00     0.073 C 
HETATM    7  N2  UNL     1      24.187   0.966  52.357  1.00  0.00    -0.228 NA
HETATM    8  C7  UNL     1      24.072  -0.058  53.371  1.00  0.00     0.195 C 
HETATM    9  N3  UNL     1      22.828  -0.374  53.478  1.00  0.00    -0.246 NA
HETATM   10  C8  UNL     1      22.136  -1.322  54.315  1.00  0.00     0.301 C 
HETATM   11  N4  UNL     1      22.738  -1.573  55.591  1.00  0.00    -0.261 NA
HETATM   12  C9  UNL     1      23.962  -1.553  55.988  1.00  0.00     0.231 C 
HETATM   13  N5  UNL     1      25.179  -1.259  55.265  1.00  0.00    -0.219 NA
HETATM   14  C10 UNL     1      25.229  -0.608  54.123  1.00  0.00     0.197 C 
HETATM   15  N6  UNL     1      26.597  -0.521  53.741  1.00  0.00    -0.245 N 
HETATM   16  O2  UNL     1      27.082   0.264  52.722  1.00  0.00    -0.273 OA
HETATM   17  C11 UNL     1      26.540   1.563  52.785  1.00  0.00     0.261 C 
HETATM   18  C12 UNL     1      25.932   3.481  50.516  1.00  0.00     0.052 A 
HETATM   19  H9  UNL     1      27.186  -1.146  54.351  1.00  0.00     0.196 HD
ENDROOT
BRANCH   1  20
HETATM   20  O1  UNL     1      26.666   5.242  49.009  1.00  0.00    -0.267 OA
BRANCH  20  21
HETATM   21  N1  UNL     1      27.995   4.913  49.185  1.00  0.00    -0.209 NA
HETATM   22  H1  UNL     1      28.542   5.477  48.493  1.00  0.00     0.150 HD
HETATM   23  H2  UNL     1      28.354   5.145  50.133  1.00  0.00     0.150 HD
ENDBRANCH  20  21
ENDBRANCH   1  20
TORSDOF 2
ENDMDL
MODEL 5
REMARK VINA RESULT:      -7.5      2.368      3.968
REMARK  2 active torsions:
REMARK  status: ('A' for Active; 'I' for Inactive)
REMARK    1  A    between atoms: N1_1  and  O1_2 
REMARK    2  A    between atoms: O1_2  and  C1_3 
ROOT
HETATM    1  C1  UNL     1      17.828  -0.495  52.347  1.00  0.00     0.092 A 
HETATM    2  C2  UNL     1      17.760   0.534  51.432  1.00  0.00     0.039 A 
HETATM    3  C3  UNL     1      18.932   1.185  51.112  1.00  0.00     0.004 A 
HETATM    4  C4  UNL     1      20.159   0.831  51.686  1.00  0.00     0.014 A 
HETATM    5  C5  UNL     1      20.239  -0.176  52.584  1.00  0.00    -0.006 A 
HETATM    6  C6  UNL     1      21.521  -0.521  53.161  1.00  0.00     0.073 C 
HETATM    7  N2  UNL     1      22.471   0.230  52.708  1.00  0.00    -0.228 NA
HETATM    8  C7  UNL     1      23.870   0.165  53.065  1.00  0.00     0.195 C 
HETATM    9  N3  UNL     1      24.524   0.918  52.251  1.00  0.00    -0.246 NA
HETATM   10  C8  UNL     1      25.926   1.234  52.133  1.00  0.00     0.301 C 
HETATM   11  N4  UNL     1      26.828   0.206  52.561  1.00  0.00    -0.261 NA
HETATM   12  C9  UNL     1      26.729  -0.714  53.456  1.00  0.00     0.231 C 
HETATM   13  N5  UNL     1      25.645  -1.033  54.357  1.00  0.00    -0.219 NA
HETATM   14  C10 UNL     1      24.398  -0.650  54.189  1.00  0.00     0.197 C 
HETATM   15  N6  UNL     1      23.642  -1.165  55.280  1.00  0.00    -0.245 N 
HETATM   16  O2  UNL     1      22.270  -1.165  55.358  1.00  0.00    -0.273 OA
HETATM   17  C11 UNL     1      21.697  -1.612  54.151  1.00  0.00     0.261 C 
HETATM   18  C12 UNL     1      19.059  -0.811  52.888  1.00  0.00     0.052 A 
HETATM   19  H9  UNL     1      24.287  -1.547  56.021  1.00  0.00     0.196 HD
ENDROOT
BRANCH   1  20
HETATM   20  O1  UNL     1      16.660  -1.138  52.662  1.00  0.00    -0.267 OA
BRANCH  20  21
HETATM   21  N1  UNL     1      15.718  -0.453  53.402  1.00  0.00    -0.209 NA
HETATM   22  H1  UNL     1      14.907  -0.268  52.766  1.00  0.00     0.150 HD
HETATM   23  H2  UNL     1      15.360  -0.995  54.215  1.00  0.00     0.150 HD
ENDBRANCH  20  21
ENDBRANCH   1  20
TORSDOF 2
ENDMDL
MODEL 6
REMARK VINA RESULT:      -7.1      8.059      9.728
REMARK  2 active torsions:
REMARK  status: ('A' for Active; 'I' for Inactive)
REMARK    1  A    between atoms: N1_1  and  O1_2 
REMARK    2  A    between atoms: O1_2  and  C1_3 
ROOT
HETATM    1  C1  UNL     1      26.286   7.055  48.964  1.00  0.00     0.092 A 
HETATM    2  C2  UNL     1      25.764   5.804  49.211  1.00  0.00     0.039 A 
HETATM    3  C3  UNL     1      26.595   4.718  49.034  1.00  0.00     0.004 A 
HETATM    4  C4  UNL     1      27.924   4.858  48.617  1.00  0.00     0.014 A 
HETATM    5  C5  UNL     1      28.447   6.080  48.372  1.00  0.00    -0.006 A 
HETATM    6  C6  UNL     1      29.824   6.197  47.942  1.00  0.00     0.073 C 
HETATM    7  N2  UNL     1      30.398   5.042  47.846  1.00  0.00    -0.228 NA
HETATM    8  C7  UNL     1      31.763   4.785  47.447  1.00  0.00     0.195 C 
HETATM    9  N3  UNL     1      32.021   3.546  47.684  1.00  0.00    -0.246 NA
HETATM   10  C8  UNL     1      33.203   2.745  47.489  1.00  0.00     0.301 C 
HETATM   11  N4  UNL     1      34.448   3.451  47.577  1.00  0.00    -0.261 NA
HETATM   12  C9  UNL     1      34.774   4.665  47.305  1.00  0.00     0.231 C 
HETATM   13  N5  UNL     1      33.974   5.762  46.807  1.00  0.00    -0.219 NA
HETATM   14  C10 UNL     1      32.662   5.816  46.867  1.00  0.00     0.197 C 
HETATM   15  N6  UNL     1      32.257   7.048  46.281  1.00  0.00    -0.245 N 
HETATM   16  O2  UNL     1      30.987   7.572  46.342  1.00  0.00    -0.273 OA
HETATM   17  C11 UNL     1      30.476   7.498  47.653  1.00  0.00     0.261 C 
HETATM   18  C12 UNL     1      27.602   7.148  48.554  1.00  0.00     0.052 A 
HETATM   19  H9  UNL     1      33.072   7.502  45.790  1.00  0.00     0.196 HD
ENDROOT
BRANCH   1  20
HETATM   20  O1  UNL     1      25.457   8.131  49.141  1.00  0.00    -0.267 OA
BRANCH  20  21
HETATM   21  N1  UNL     1      25.162   8.522  50.432  1.00  0.00    -0.209 NA
HETATM   22  H1  UNL     1      24.386   7.904  50.767  1.00  0.00     0.150 HD
HETATM   23  H2  UNL     1      25.961   8.405  51.089  1.00  0.00     0.150 HD
ENDBRANCH  20  21
ENDBRANCH   1  20
TORSDOF 2
ENDMDL
MODEL 7
REMARK VINA RESULT:      -7.1      2.588      4.331
REMARK  2 active torsions:
REMARK  status: ('A' for Active; 'I' for Inactive)
REMARK    1  A    between atoms: N1_1  and  O1_2 
REMARK    2  A    between atoms: O1_2  and  C1_3 
ROOT
HETATM    1  C1  UNL     1      22.224   2.845  49.061  1.00  0.00     0.092 A 
HETATM    2  C2  UNL     1      22.833   4.006  48.634  1.00  0.00     0.039 A 
HETATM    3  C3  UNL     1      24.026   4.359  49.228  1.00  0.00     0.004 A 
HETATM    4  C4  UNL     1      24.615   3.581  50.231  1.00  0.00     0.014 A 
HETATM    5  C5  UNL     1      24.028   2.441  50.659  1.00  0.00    -0.006 A 
HETATM    6  C6  UNL     1      24.660   1.656  51.697  1.00  0.00     0.073 C 
HETATM    7  N2  UNL     1      25.768   2.189  52.097  1.00  0.00    -0.228 NA
HETATM    8  C7  UNL     1      26.656   1.677  53.117  1.00  0.00     0.195 C 
HETATM    9  N3  UNL     1      27.746   2.361  53.076  1.00  0.00    -0.246 NA
HETATM   10  C8  UNL     1      28.962   2.297  53.846  1.00  0.00     0.301 C 
HETATM   11  N4  UNL     1      29.307   1.000  54.348  1.00  0.00    -0.261 NA
HETATM   12  C9  UNL     1      28.590  -0.008  54.703  1.00  0.00     0.231 C 
HETATM   13  N5  UNL     1      27.155  -0.181  54.714  1.00  0.00    -0.219 NA
HETATM   14  C10 UNL     1      26.310   0.553  54.024  1.00  0.00     0.197 C 
HETATM   15  N6  UNL     1      25.000   0.069  54.300  1.00  0.00    -0.245 N 
HETATM   16  O2  UNL     1      23.865   0.431  53.613  1.00  0.00    -0.273 OA
HETATM   17  C11 UNL     1      24.085   0.393  52.222  1.00  0.00     0.261 C 
HETATM   18  C12 UNL     1      22.840   2.108  50.053  1.00  0.00     0.052 A 
HETATM   19  H9  UNL     1      25.024  -0.607  55.108  1.00  0.00     0.196 HD
ENDROOT
BRANCH   1  20
HETATM   20  O1  UNL     1      21.038   2.499  48.469  1.00  0.00    -0.267 OA
BRANCH  20  21
HETATM   21  N1  UNL     1      20.404   1.351  48.900  1.00  0.00    -0.209 NA
HETATM   22  H1  UNL     1      20.435   1.362  49.947  1.00  0.00     0.150 HD
HETATM   23  H2  UNL     1      19.404   1.302  48.617  1.00  0.00     0.150 HD
ENDBRANCH  20  21
ENDBRANCH   1  20
TORSDOF 2
ENDMDL
MODEL 8
REMARK VINA RESULT:      -6.8      7.205      9.046
REMARK  2 active torsions:
REMARK  status: ('A' for Active; 'I' for Inactive)
REMARK    1  A    between atoms: N1_1  and  O1_2 
REMARK    2  A    between atoms: O1_2  and  C1_3 
ROOT
HETATM    1  C1  UNL     1      25.181   5.964  49.165  1.00  0.00     0.092 A 
HETATM    2  C2  UNL     1      25.086   4.642  49.546  1.00  0.00     0.039 A 
HETATM    3  C3  UNL     1      26.215   3.860  49.432  1.00  0.00     0.004 A 
HETATM    4  C4  UNL     1      27.426   4.369  48.948  1.00  0.00     0.014 A 
HETATM    5  C5  UNL     1      27.532   5.663  48.571  1.00  0.00    -0.006 A 
HETATM    6  C6  UNL     1      28.796   6.163  48.074  1.00  0.00     0.073 C 
HETATM    7  N2  UNL     1      29.705   5.243  48.058  1.00  0.00    -0.228 NA
HETATM    8  C7  UNL     1      31.077   5.389  47.626  1.00  0.00     0.195 C 
HETATM    9  N3  UNL     1      31.716   4.324  47.962  1.00  0.00    -0.246 NA
HETATM   10  C8  UNL     1      33.089   3.920  47.789  1.00  0.00     0.301 C 
HETATM   11  N4  UNL     1      34.047   4.985  47.760  1.00  0.00    -0.261 NA
HETATM   12  C9  UNL     1      33.968   6.208  47.367  1.00  0.00     0.231 C 
HETATM   13  N5  UNL     1      32.857   6.944  46.807  1.00  0.00    -0.219 NA
HETATM   14  C10 UNL     1      31.596   6.588  46.918  1.00  0.00     0.197 C 
HETATM   15  N6  UNL     1      30.814   7.567  46.241  1.00  0.00    -0.245 N 
HETATM   16  O2  UNL     1      29.445   7.668  46.309  1.00  0.00    -0.273 OA
HETATM   17  C11 UNL     1      29.000   7.568  47.642  1.00  0.00     0.261 C 
HETATM   18  C12 UNL     1      26.395   6.424  48.693  1.00  0.00     0.052 A 
HETATM   19  H9  UNL     1      31.437   8.203  45.677  1.00  0.00     0.196 HD
ENDROOT
BRANCH   1  20
HETATM   20  O1  UNL     1      24.056   6.737  49.280  1.00  0.00    -0.267 OA
BRANCH  20  21
HETATM   21  N1  UNL     1      24.087   7.806  50.153  1.00  0.00    -0.209 NA
HETATM   22  H1  UNL     1      23.114   7.926  50.521  1.00  0.00     0.150 HD
HETATM   23  H2  UNL     1      24.714   7.653  50.970  1.00  0.00     0.150 HD
ENDBRANCH  20  21
ENDBRANCH   1  20
TORSDOF 2
ENDMDL
MODEL 9
REMARK VINA RESULT:      -6.5      9.776     12.449
REMARK  2 active torsions:
REMARK  status: ('A' for Active; 'I' for Inactive)
REMARK    1  A    between atoms: N1_1  and  O1_2 
REMARK    2  A    between atoms: O1_2  and  C1_3 
ROOT
HETATM    1  C1  UNL     1      34.594   5.601  48.567  1.00  0.00     0.092 A 
HETATM    2  C2  UNL     1      35.354   6.747  48.477  1.00  0.00     0.039 A 
HETATM    3  C3  UNL     1      34.691   7.956  48.458  1.00  0.00     0.004 A 
HETATM    4  C4  UNL     1      33.295   8.039  48.525  1.00  0.00     0.014 A 
HETATM    5  C5  UNL     1      32.539   6.922  48.614  1.00  0.00    -0.006 A 
HETATM    6  C6  UNL     1      31.098   7.037  48.683  1.00  0.00     0.073 C 
HETATM    7  N2  UNL     1      30.711   8.271  48.647  1.00  0.00    -0.228 NA
HETATM    8  C7  UNL     1      29.348   8.752  48.696  1.00  0.00     0.195 C 
HETATM    9  N3  UNL     1      29.383  10.029  48.856  1.00  0.00    -0.246 NA
HETATM   10  C8  UNL     1      28.344  11.021  48.971  1.00  0.00     0.301 C 
HETATM   11  N4  UNL     1      27.115  10.565  49.550  1.00  0.00    -0.261 NA
HETATM   12  C9  UNL     1      26.533   9.417  49.548  1.00  0.00     0.231 C 
HETATM   13  N5  UNL     1      26.931   8.164  48.947  1.00  0.00    -0.219 NA
HETATM   14  C10 UNL     1      28.157   7.872  48.575  1.00  0.00     0.197 C 
HETATM   15  N6  UNL     1      28.139   6.554  48.037  1.00  0.00    -0.245 N 
HETATM   16  O2  UNL     1      29.255   5.810  47.736  1.00  0.00    -0.273 OA
HETATM   17  C11 UNL     1      30.194   5.865  48.784  1.00  0.00     0.261 C 
HETATM   18  C12 UNL     1      33.220   5.729  48.632  1.00  0.00     0.052 A 
HETATM   19  H9  UNL     1      27.145   6.230  47.903  1.00  0.00     0.196 HD
ENDROOT
BRANCH   1  20
HETATM   20  O1  UNL     1      35.257   4.403  48.586  1.00  0.00    -0.267 OA
BRANCH  20  21
HETATM   21  N1  UNL     1      34.540   3.256  48.309  1.00  0.00    -0.209 NA
HETATM   22  H1  UNL     1      34.369   3.246  47.276  1.00  0.00     0.150 HD
HETATM   23  H2  UNL     1      35.051   2.383  48.551  1.00  0.00     0.150 HD
ENDBRANCH  20  21
ENDBRANCH   1  20
TORSDOF 2
ENDMDL
