MODEL 1
REMARK VINA RESULT:      -8.0      0.000      0.000
REMARK  9 active torsions:
REMARK  status: ('A' for Active; 'I' for Inactive)
REMARK    1  A    between atoms: N1_1  and  C1_2 
REMARK    2  A    between atoms: C1_2  and  C2_3 
REMARK    3  A    between atoms: C3_5  and  C4_6 
REMARK    4  A    between atoms: C5_7  and  N2_8 
REMARK    5  A    between atoms: N2_8  and  C6_9 
REMARK    6  A    between atoms: C9_14  and  N5_15 
REMARK    7  A    between atoms: N5_15  and  C10_16 
REMARK    8  A    between atoms: C10_16  and  C11_17 
REMARK    9  A    between atoms: C16_23  and  O1_24 
ROOT
HETATM    1  C6  UNL     1      27.145   1.622  52.583  1.00  0.00     0.156 A 
HETATM    2  N3  UNL     1      28.242   2.361  52.785  1.00  0.00    -0.222 NA
HETATM    3  C7  UNL     1      29.017   2.200  53.866  1.00  0.00     0.235 A 
HETATM    4  N4  UNL     1      28.705   1.270  54.791  1.00  0.00    -0.252 NA
HETATM    5  C8  UNL     1      27.590   0.507  54.601  1.00  0.00     0.151 A 
HETATM    6  C9  UNL     1      26.794   0.669  53.499  1.00  0.00     0.092 A 
ENDROOT
BRANCH   6   7
HETATM    7  N5  UNL     1      25.690  -0.175  53.511  1.00  0.00    -0.381 N 
HETATM    8  H11 UNL     1      25.519  -0.382  52.471  1.00  0.00     0.160 HD
BRANCH   7   9
HETATM    9  C10 UNL     1      24.658  -0.927  54.129  1.00  0.00     0.161 C 
BRANCH   9  10
HETATM   10  C11 UNL     1      23.267  -0.385  53.910  1.00  0.00    -0.006 A 
HETATM   11  C12 UNL     1      23.168   0.690  53.029  1.00  0.00     0.035 A 
HETATM   12  C13 UNL     1      21.979   1.346  52.771  1.00  0.00     0.034 A 
HETATM   13 CL1  UNL     1      21.824   2.696  51.673  1.00  0.00    -0.084 Cl
HETATM   14  C14 UNL     1      20.845   0.907  53.422  1.00  0.00     0.026 A 
HETATM   15  C15 UNL     1      20.916  -0.163  54.303  1.00  0.00     0.039 A 
HETATM   16  C16 UNL     1      22.110  -0.807  54.547  1.00  0.00     0.073 A 
BRANCH  16  17
HETATM   17  O1  UNL     1      22.215  -1.902  55.430  1.00  0.00    -0.360 OA
HETATM   18  H17 UNL     1      22.687  -2.737  55.079  1.00  0.00     0.217 HD
ENDBRANCH  16  17
ENDBRANCH   9  10
ENDBRANCH   7   9
ENDBRANCH   6   7
BRANCH   1  19
HETATM   19  N2  UNL     1      26.314   1.803  51.447  1.00  0.00    -0.349 N 
HETATM   20  H8  UNL     1      25.680   1.173  50.865  1.00  0.00     0.167 HD
BRANCH  19  21
HETATM   21  C5  UNL     1      26.378   3.180  51.041  1.00  0.00     0.090 C 
HETATM   22  C4  UNL     1      26.714   3.364  49.751  1.00  0.00     0.020 C 
BRANCH  22  23
HETATM   23  C3  UNL     1      26.895   4.548  48.925  1.00  0.00     0.041 C 
HETATM   24  C2  UNL     1      26.383   5.751  48.938  1.00  0.00     0.121 C 
HETATM   25  F1  UNL     1      26.783   6.631  48.000  1.00  0.00    -0.209 F 
BRANCH  24  26
HETATM   26  C1  UNL     1      25.381   6.322  49.873  1.00  0.00     0.336 C 
BRANCH  26  27
HETATM   27  N1  UNL     1      26.076   7.288  50.716  1.00  0.00     0.084 N 
HETATM   28  H1  UNL     1      25.406   7.936  51.209  1.00  0.00     0.313 HD
HETATM   29  H2  UNL     1      26.695   6.817  51.391  1.00  0.00     0.313 HD
ENDBRANCH  26  27
ENDBRANCH  24  26
ENDBRANCH  22  23
ENDBRANCH  19  21
ENDBRANCH   1  19
TORSDOF 9
ENDMDL
MODEL 2
REMARK VINA RESULT:      -7.9      3.353      5.797
REMARK  9 active torsions:
REMARK  status: ('A' for Active; 'I' for Inactive)
REMARK    1  A    between atoms: N1_1  and  C1_2 
REMARK    2  A    between atoms: C1_2  and  C2_3 
REMARK    3  A    between atoms: C3_5  and  C4_6 
REMARK    4  A    between atoms: C5_7  and  N2_8 
REMARK    5  A    between atoms: N2_8  and  C6_9 
REMARK    6  A    between atoms: C9_14  and  N5_15 
REMARK    7  A    between atoms: N5_15  and  C10_16 
REMARK    8  A    between atoms: C10_16  and  C11_17 
REMARK    9  A    between atoms: C16_23  and  O1_24 
ROOT
HETATM    1  C6  UNL     1      26.991   0.035  53.415  1.00  0.00     0.156 A 
HETATM    2  N3  UNL     1      27.665  -0.396  54.488  1.00  0.00    -0.222 NA
HETATM    3  C7  UNL     1      28.678   0.303  55.017  1.00  0.00     0.235 A 
HETATM    4  N4  UNL     1      29.048   1.479  54.472  1.00  0.00    -0.252 NA
HETATM    5  C8  UNL     1      28.372   1.933  53.377  1.00  0.00     0.151 A 
HETATM    6  C9  UNL     1      27.336   1.223  52.832  1.00  0.00     0.092 A 
ENDROOT
BRANCH   6   7
HETATM    7  N5  UNL     1      26.806   1.835  51.703  1.00  0.00    -0.381 N 
HETATM    8  H11 UNL     1      26.446   1.012  51.115  1.00  0.00     0.160 HD
BRANCH   7   9
HETATM    9  C10 UNL     1      26.465   2.945  50.887  1.00  0.00     0.161 C 
BRANCH   9  10
HETATM   10  C11 UNL     1      24.989   3.248  50.823  1.00  0.00    -0.006 A 
HETATM   11  C12 UNL     1      24.424   3.248  49.549  1.00  0.00     0.035 A 
HETATM   12  C13 UNL     1      23.103   3.573  49.310  1.00  0.00     0.034 A 
HETATM   13 CL1  UNL     1      22.368   3.582  47.725  1.00  0.00    -0.084 Cl
HETATM   14  C14 UNL     1      22.315   3.912  50.390  1.00  0.00     0.026 A 
HETATM   15  C15 UNL     1      22.852   3.918  51.670  1.00  0.00     0.039 A 
HETATM   16  C16 UNL     1      24.172   3.589  51.891  1.00  0.00     0.073 A 
BRANCH  16  17
HETATM   17  O1  UNL     1      24.746   3.578  53.179  1.00  0.00    -0.360 OA
HETATM   18  H17 UNL     1      25.757   3.711  53.238  1.00  0.00     0.217 HD
ENDBRANCH  16  17
ENDBRANCH   9  10
ENDBRANCH   7   9
ENDBRANCH   6   7
BRANCH   1  19
HETATM   19  N2  UNL     1      25.928  -0.712  52.844  1.00  0.00    -0.349 N 
HETATM   20  H8  UNL     1      25.823  -1.354  51.998  1.00  0.00     0.167 HD
BRANCH  19  21
HETATM   21  C5  UNL     1      24.750  -0.528  53.644  1.00  0.00     0.090 C 
HETATM   22  C4  UNL     1      23.785   0.201  53.054  1.00  0.00     0.020 C 
BRANCH  22  23
HETATM   23  C3  UNL     1      22.460   0.632  53.474  1.00  0.00     0.041 C 
HETATM   24  C2  UNL     1      21.412   0.012  53.951  1.00  0.00     0.121 C 
HETATM   25  F1  UNL     1      20.315   0.735  54.243  1.00  0.00    -0.209 F 
BRANCH  24  26
HETATM   26  C1  UNL     1      21.240  -1.435  54.233  1.00  0.00     0.336 C 
BRANCH  26  27
HETATM   27  N1  UNL     1      19.811  -1.720  54.186  1.00  0.00     0.084 N 
HETATM   28  H1  UNL     1      19.231  -0.860  54.376  1.00  0.00     0.313 HD
HETATM   29  H2  UNL     1      19.546  -2.151  53.289  1.00  0.00     0.313 HD
ENDBRANCH  26  27
ENDBRANCH  24  26
ENDBRANCH  22  23
ENDBRANCH  19  21
ENDBRANCH   1  19
TORSDOF 9
ENDMDL
MODEL 3
REMARK VINA RESULT:      -7.8      3.078      5.380
REMARK  9 active torsions:
REMARK  status: ('A' for Active; 'I' for Inactive)
REMARK    1  A    between atoms: N1_1  and  C1_2 
REMARK    2  A    between atoms: C1_2  and  C2_3 
REMARK    3  A    between atoms: C3_5  and  C4_6 
REMARK    4  A    between atoms: C5_7  and  N2_8 
REMARK    5  A    between atoms: N2_8  and  C6_9 
REMARK    6  A    between atoms: C9_14  and  N5_15 
REMARK    7  A    between atoms: N5_15  and  C10_16 
REMARK    8  A    between atoms: C10_16  and  C11_17 
REMARK    9  A    between atoms: C16_23  and  O1_24 
ROOT
HETATM    1  C6  UNL     1      23.229   1.213  52.752  1.00  0.00     0.156 A 
HETATM    2  N3  UNL     1      21.928   1.467  52.938  1.00  0.00    -0.222 NA
HETATM    3  C7  UNL     1      21.107   0.581  53.518  1.00  0.00     0.235 A 
HETATM    4  N4  UNL     1      21.583  -0.609  53.937  1.00  0.00    -0.252 NA
HETATM    5  C8  UNL     1      22.906  -0.885  53.756  1.00  0.00     0.151 A 
HETATM    6  C9  UNL     1      23.749   0.017  53.162  1.00  0.00     0.092 A 
ENDROOT
BRANCH   6   7
HETATM    7  N5  UNL     1      25.045  -0.469  53.037  1.00  0.00    -0.381 N 
HETATM    8  H11 UNL     1      25.657   0.386  53.256  1.00  0.00     0.160 HD
BRANCH   7   9
HETATM    9  C10 UNL     1      26.022  -1.466  52.786  1.00  0.00     0.161 C 
BRANCH   9  10
HETATM   10  C11 UNL     1      27.437  -1.057  53.113  1.00  0.00    -0.006 A 
HETATM   11  C12 UNL     1      27.635   0.302  53.350  1.00  0.00     0.035 A 
HETATM   12  C13 UNL     1      28.879   0.851  53.595  1.00  0.00     0.034 A 
HETATM   13 CL1  UNL     1      29.158   2.549  53.897  1.00  0.00    -0.084 Cl
HETATM   14  C14 UNL     1      29.968   0.006  53.602  1.00  0.00     0.026 A 
HETATM   15  C15 UNL     1      29.799  -1.353  53.369  1.00  0.00     0.039 A 
HETATM   16  C16 UNL     1      28.550  -1.884  53.129  1.00  0.00     0.073 A 
BRANCH  16  17
HETATM   17  O1  UNL     1      28.342  -3.259  52.898  1.00  0.00    -0.360 OA
HETATM   18  H17 UNL     1      28.107  -3.539  51.944  1.00  0.00     0.217 HD
ENDBRANCH  16  17
ENDBRANCH   9  10
ENDBRANCH   7   9
ENDBRANCH   6   7
BRANCH   1  19
HETATM   19  N2  UNL     1      24.095   2.144  52.123  1.00  0.00    -0.349 N 
HETATM   20  H8  UNL     1      24.912   2.076  51.441  1.00  0.00     0.167 HD
BRANCH  19  21
HETATM   21  C5  UNL     1      23.727   3.471  52.535  1.00  0.00     0.090 C 
HETATM   22  C4  UNL     1      23.937   4.420  51.604  1.00  0.00     0.020 C 
BRANCH  22  23
HETATM   23  C3  UNL     1      23.721   5.858  51.578  1.00  0.00     0.041 C 
HETATM   24  C2  UNL     1      24.339   6.859  51.006  1.00  0.00     0.121 C 
HETATM   25  F1  UNL     1      23.859   8.103  51.195  1.00  0.00    -0.209 F 
BRANCH  24  26
HETATM   26  C1  UNL     1      25.545   6.832  50.141  1.00  0.00     0.336 C 
BRANCH  26  27
HETATM   27  N1  UNL     1      26.428   7.900  50.596  1.00  0.00     0.084 N 
HETATM   28  H1  UNL     1      26.191   8.220  51.572  1.00  0.00     0.313 HD
HETATM   29  H2  UNL     1      27.417   7.618  50.531  1.00  0.00     0.313 HD
ENDBRANCH  26  27
ENDBRANCH  24  26
ENDBRANCH  22  23
ENDBRANCH  19  21
ENDBRANCH   1  19
TORSDOF 9
ENDMDL
MODEL 4
REMARK VINA RESULT:      -7.7      3.534      5.900
REMARK  9 active torsions:
REMARK  status: ('A' for Active; 'I' for Inactive)
REMARK    1  A    between atoms: N1_1  and  C1_2 
REMARK    2  A    between atoms: C1_2  and  C2_3 
REMARK    3  A    between atoms: C3_5  and  C4_6 
REMARK    4  A    between atoms: C5_7  and  N2_8 
REMARK    5  A    between atoms: N2_8  and  C6_9 
REMARK    6  A    between atoms: C9_14  and  N5_15 
REMARK    7  A    between atoms: N5_15  and  C10_16 
REMARK    8  A    between atoms: C10_16  and  C11_17 
REMARK    9  A    between atoms: C16_23  and  O1_24 
ROOT
HETATM    1  C6  UNL     1      22.100  -0.131  52.920  1.00  0.00     0.156 A 
HETATM    2  N3  UNL     1      21.064  -0.869  53.335  1.00  0.00    -0.222 NA
HETATM    3  C7  UNL     1      21.133  -1.636  54.431  1.00  0.00     0.235 A 
HETATM    4  N4  UNL     1      22.269  -1.682  55.155  1.00  0.00    -0.252 NA
HETATM    5  C8  UNL     1      23.336  -0.936  54.747  1.00  0.00     0.151 A 
HETATM    6  C9  UNL     1      23.270  -0.151  53.627  1.00  0.00     0.092 A 
ENDROOT
BRANCH   6   7
HETATM    7  N5  UNL     1      24.470   0.498  53.361  1.00  0.00    -0.381 N 
HETATM    8  H11 UNL     1      24.777   0.865  54.322  1.00  0.00     0.160 HD
BRANCH   7   9
HETATM    9  C10 UNL     1      25.529   0.945  52.530  1.00  0.00     0.161 C 
BRANCH   9  10
HETATM   10  C11 UNL     1      26.911   0.620  53.041  1.00  0.00    -0.006 A 
HETATM   11  C12 UNL     1      27.324  -0.701  52.871  1.00  0.00     0.035 A 
HETATM   12  C13 UNL     1      28.531  -1.179  53.344  1.00  0.00     0.034 A 
HETATM   13 CL1  UNL     1      29.076  -2.827  53.146  1.00  0.00    -0.084 Cl
HETATM   14  C14 UNL     1      29.357  -0.301  54.013  1.00  0.00     0.026 A 
HETATM   15  C15 UNL     1      28.970   1.020  54.194  1.00  0.00     0.039 A 
HETATM   16  C16 UNL     1      27.763   1.482  53.715  1.00  0.00     0.073 A 
BRANCH  16  17
HETATM   17  O1  UNL     1      27.344   2.818  53.875  1.00  0.00    -0.360 OA
HETATM   18  H17 UNL     1      27.598   3.476  53.136  1.00  0.00     0.217 HD
ENDBRANCH  16  17
ENDBRANCH   9  10
ENDBRANCH   7   9
ENDBRANCH   6   7
BRANCH   1  19
HETATM   19  N2  UNL     1      22.033   0.670  51.750  1.00  0.00    -0.349 N 
HETATM   20  H8  UNL     1      22.324   0.548  50.731  1.00  0.00     0.167 HD
BRANCH  19  21
HETATM   21  C5  UNL     1      21.406   1.920  52.080  1.00  0.00     0.090 C 
HETATM   22  C4  UNL     1      21.965   2.995  51.494  1.00  0.00     0.020 C 
BRANCH  22  23
HETATM   23  C3  UNL     1      21.674   4.419  51.535  1.00  0.00     0.041 C 
HETATM   24  C2  UNL     1      22.411   5.499  51.478  1.00  0.00     0.121 C 
HETATM   25  F1  UNL     1      21.801   6.697  51.546  1.00  0.00    -0.209 F 
BRANCH  24  26
HETATM   26  C1  UNL     1      23.885   5.609  51.343  1.00  0.00     0.336 C 
BRANCH  26  27
HETATM   27  N1  UNL     1      24.285   6.861  51.974  1.00  0.00     0.084 N 
HETATM   28  H1  UNL     1      23.454   7.452  52.242  1.00  0.00     0.313 HD
HETATM   29  H2  UNL     1      24.893   6.691  52.788  1.00  0.00     0.313 HD
ENDBRANCH  26  27
ENDBRANCH  24  26
ENDBRANCH  22  23
ENDBRANCH  19  21
ENDBRANCH   1  19
TORSDOF 9
ENDMDL
MODEL 5
REMARK VINA RESULT:      -7.6      3.235      5.187
REMARK  9 active torsions:
REMARK  status: ('A' for Active; 'I' for Inactive)
REMARK    1  A    between atoms: N1_1  and  C1_2 
REMARK    2  A    between atoms: C1_2  and  C2_3 
REMARK    3  A    between atoms: C3_5  and  C4_6 
REMARK    4  A    between atoms: C5_7  and  N2_8 
REMARK    5  A    between atoms: N2_8  and  C6_9 
REMARK    6  A    between atoms: C9_14  and  N5_15 
REMARK    7  A    between atoms: N5_15  and  C10_16 
REMARK    8  A    between atoms: C10_16  and  C11_17 
REMARK    9  A    between atoms: C16_23  and  O1_24 
ROOT
HETATM    1  C6  UNL     1      24.473   2.787  50.572  1.00  0.00     0.156 A 
HETATM    2  N3  UNL     1      23.865   3.097  49.421  1.00  0.00    -0.222 NA
HETATM    3  C7  UNL     1      22.701   2.540  49.061  1.00  0.00     0.235 A 
HETATM    4  N4  UNL     1      22.104   1.638  49.866  1.00  0.00    -0.252 NA
HETATM    5  C8  UNL     1      22.710   1.311  51.044  1.00  0.00     0.151 A 
HETATM    6  C9  UNL     1      23.900   1.877  51.416  1.00  0.00     0.092 A 
ENDROOT
BRANCH   6   7
HETATM    7  N5  UNL     1      24.368   1.383  52.627  1.00  0.00    -0.381 N 
HETATM    8  H11 UNL     1      24.123   2.160  53.327  1.00  0.00     0.160 HD
BRANCH   7   9
HETATM    9  C10 UNL     1      24.986   0.422  53.467  1.00  0.00     0.161 C 
BRANCH   9  10
HETATM   10  C11 UNL     1      26.494   0.481  53.487  1.00  0.00    -0.006 A 
HETATM   11  C12 UNL     1      27.151  -0.740  53.340  1.00  0.00     0.035 A 
HETATM   12  C13 UNL     1      28.525  -0.869  53.405  1.00  0.00     0.034 A 
HETATM   13 CL1  UNL     1      29.375  -2.384  53.223  1.00  0.00    -0.084 Cl
HETATM   14  C14 UNL     1      29.271   0.269  53.626  1.00  0.00     0.026 A 
HETATM   15  C15 UNL     1      28.642   1.498  53.775  1.00  0.00     0.039 A 
HETATM   16  C16 UNL     1      27.270   1.610  53.706  1.00  0.00     0.073 A 
BRANCH  16  17
HETATM   17  O1  UNL     1      26.601   2.843  53.845  1.00  0.00    -0.360 OA
HETATM   18  H17 UNL     1      25.722   2.838  54.364  1.00  0.00     0.217 HD
ENDBRANCH  16  17
ENDBRANCH   9  10
ENDBRANCH   7   9
ENDBRANCH   6   7
BRANCH   1  19
HETATM   19  N2  UNL     1      25.714   3.366  50.947  1.00  0.00    -0.349 N 
HETATM   20  H8  UNL     1      26.137   3.723  51.858  1.00  0.00     0.167 HD
BRANCH  19  21
HETATM   21  C5  UNL     1      26.555   3.452  49.785  1.00  0.00     0.090 C 
HETATM   22  C4  UNL     1      26.997   4.692  49.510  1.00  0.00     0.020 C 
BRANCH  22  23
HETATM   23  C3  UNL     1      27.847   5.240  48.464  1.00  0.00     0.041 C 
HETATM   24  C2  UNL     1      28.190   6.453  48.115  1.00  0.00     0.121 C 
HETATM   25  F1  UNL     1      29.020   6.610  47.066  1.00  0.00    -0.209 F 
BRANCH  24  26
HETATM   26  C1  UNL     1      27.784   7.743  48.726  1.00  0.00     0.336 C 
BRANCH  26  27
HETATM   27  N1  UNL     1      28.925   8.241  49.486  1.00  0.00     0.084 N 
HETATM   28  H1  UNL     1      28.659   9.041  50.119  1.00  0.00     0.313 HD
HETATM   29  H2  UNL     1      29.376   7.484  50.020  1.00  0.00     0.313 HD
ENDBRANCH  26  27
ENDBRANCH  24  26
ENDBRANCH  22  23
ENDBRANCH  19  21
ENDBRANCH   1  19
TORSDOF 9
ENDMDL
MODEL 6
REMARK VINA RESULT:      -7.5      3.124      5.355
REMARK  9 active torsions:
REMARK  status: ('A' for Active; 'I' for Inactive)
REMARK    1  A    between atoms: N1_1  and  C1_2 
REMARK    2  A    between atoms: C1_2  and  C2_3 
REMARK    3  A    between atoms: C3_5  and  C4_6 
REMARK    4  A    between atoms: C5_7  and  N2_8 
REMARK    5  A    between atoms: N2_8  and  C6_9 
REMARK    6  A    between atoms: C9_14  and  N5_15 
REMARK    7  A    between atoms: N5_15  and  C10_16 
REMARK    8  A    between atoms: C10_16  and  C11_17 
REMARK    9  A    between atoms: C16_23  and  O1_24 
ROOT
HETATM    1  C6  UNL     1      22.258   2.246  51.507  1.00  0.00     0.156 A 
HETATM    2  N3  UNL     1      21.030   2.318  50.978  1.00  0.00    -0.222 NA
HETATM    3  C7  UNL     1      20.186   1.277  51.000  1.00  0.00     0.235 A 
HETATM    4  N4  UNL     1      20.561   0.112  51.567  1.00  0.00    -0.252 NA
HETATM    5  C8  UNL     1      21.809   0.022  52.111  1.00  0.00     0.151 A 
HETATM    6  C9  UNL     1      22.675   1.082  52.091  1.00  0.00     0.092 A 
ENDROOT
BRANCH   6   7
HETATM    7  N5  UNL     1      23.905   0.776  52.660  1.00  0.00    -0.381 N 
HETATM    8  H11 UNL     1      24.580   1.466  52.189  1.00  0.00     0.160 HD
BRANCH   7   9
HETATM    9  C10 UNL     1      24.777   0.063  53.523  1.00  0.00     0.161 C 
BRANCH   9  10
HETATM   10  C11 UNL     1      26.206   0.547  53.514  1.00  0.00    -0.006 A 
HETATM   11  C12 UNL     1      27.181  -0.446  53.441  1.00  0.00     0.035 A 
HETATM   12  C13 UNL     1      28.535  -0.177  53.491  1.00  0.00     0.034 A 
HETATM   13 CL1  UNL     1      29.781  -1.399  53.401  1.00  0.00    -0.084 Cl
HETATM   14  C14 UNL     1      28.929   1.139  53.619  1.00  0.00     0.026 A 
HETATM   15  C15 UNL     1      27.977   2.148  53.692  1.00  0.00     0.039 A 
HETATM   16  C16 UNL     1      26.630   1.862  53.639  1.00  0.00     0.073 A 
BRANCH  16  17
HETATM   17  O1  UNL     1      25.639   2.863  53.702  1.00  0.00    -0.360 OA
HETATM   18  H17 UNL     1      25.102   2.929  54.568  1.00  0.00     0.217 HD
ENDBRANCH  16  17
ENDBRANCH   9  10
ENDBRANCH   7   9
ENDBRANCH   6   7
BRANCH   1  19
HETATM   19  N2  UNL     1      23.158   3.342  51.470  1.00  0.00    -0.349 N 
HETATM   20  H8  UNL     1      23.310   4.217  52.062  1.00  0.00     0.167 HD
BRANCH  19  21
HETATM   21  C5  UNL     1      24.054   3.170  50.360  1.00  0.00     0.090 C 
HETATM   22  C4  UNL     1      25.253   3.758  50.518  1.00  0.00     0.020 C 
BRANCH  22  23
HETATM   23  C3  UNL     1      26.440   3.846  49.681  1.00  0.00     0.041 C 
HETATM   24  C2  UNL     1      26.939   4.774  48.906  1.00  0.00     0.121 C 
HETATM   25  F1  UNL     1      28.090   4.519  48.256  1.00  0.00    -0.209 F 
BRANCH  24  26
HETATM   26  C1  UNL     1      26.404   6.129  48.621  1.00  0.00     0.336 C 
BRANCH  26  27
HETATM   27  N1  UNL     1      26.925   7.025  49.647  1.00  0.00     0.084 N 
HETATM   28  H1  UNL     1      26.340   7.003  50.524  1.00  0.00     0.313 HD
HETATM   29  H2  UNL     1      27.911   6.819  49.857  1.00  0.00     0.313 HD
ENDBRANCH  26  27
ENDBRANCH  24  26
ENDBRANCH  22  23
ENDBRANCH  19  21
ENDBRANCH   1  19
TORSDOF 9
ENDMDL
MODEL 7
REMARK VINA RESULT:      -7.4      3.487      6.337
REMARK  9 active torsions:
REMARK  status: ('A' for Active; 'I' for Inactive)
REMARK    1  A    between atoms: N1_1  and  C1_2 
REMARK    2  A    between atoms: C1_2  and  C2_3 
REMARK    3  A    between atoms: C3_5  and  C4_6 
REMARK    4  A    between atoms: C5_7  and  N2_8 
REMARK    5  A    between atoms: N2_8  and  C6_9 
REMARK    6  A    between atoms: C9_14  and  N5_15 
REMARK    7  A    between atoms: N5_15  and  C10_16 
REMARK    8  A    between atoms: C10_16  and  C11_17 
REMARK    9  A    between atoms: C16_23  and  O1_24 
ROOT
HETATM    1  C6  UNL     1      26.954   0.327  53.305  1.00  0.00     0.156 A 
HETATM    2  N3  UNL     1      27.548  -0.223  54.371  1.00  0.00    -0.222 NA
HETATM    3  C7  UNL     1      28.584   0.363  54.986  1.00  0.00     0.235 A 
HETATM    4  N4  UNL     1      29.060   1.543  54.538  1.00  0.00    -0.252 NA
HETATM    5  C8  UNL     1      28.466   2.117  53.452  1.00  0.00     0.151 A 
HETATM    6  C9  UNL     1      27.408   1.522  52.819  1.00  0.00     0.092 A 
ENDROOT
BRANCH   6   7
HETATM    7  N5  UNL     1      26.972   2.245  51.716  1.00  0.00    -0.381 N 
HETATM    8  H11 UNL     1      26.924   3.255  52.079  1.00  0.00     0.160 HD
BRANCH   7   9
HETATM    9  C10 UNL     1      26.559   2.403  50.368  1.00  0.00     0.161 C 
BRANCH   9  10
HETATM   10  C11 UNL     1      26.191   3.816  49.985  1.00  0.00    -0.006 A 
HETATM   11  C12 UNL     1      27.089   4.468  49.141  1.00  0.00     0.035 A 
HETATM   12  C13 UNL     1      26.937   5.785  48.751  1.00  0.00     0.034 A 
HETATM   13 CL1  UNL     1      28.044   6.628  47.695  1.00  0.00    -0.084 Cl
HETATM   14  C14 UNL     1      25.841   6.476  49.225  1.00  0.00     0.026 A 
HETATM   15  C15 UNL     1      24.931   5.850  50.065  1.00  0.00     0.039 A 
HETATM   16  C16 UNL     1      25.097   4.535  50.443  1.00  0.00     0.073 A 
BRANCH  16  17
HETATM   17  O1  UNL     1      24.188   3.867  51.288  1.00  0.00    -0.360 OA
HETATM   18  H17 UNL     1      24.045   4.260  52.220  1.00  0.00     0.217 HD
ENDBRANCH  16  17
ENDBRANCH   9  10
ENDBRANCH   7   9
ENDBRANCH   6   7
BRANCH   1  19
HETATM   19  N2  UNL     1      25.867  -0.301  52.643  1.00  0.00    -0.349 N 
HETATM   20  H8  UNL     1      25.765  -1.109  51.954  1.00  0.00     0.167 HD
BRANCH  19  21
HETATM   21  C5  UNL     1      24.646   0.341  53.046  1.00  0.00     0.090 C 
HETATM   22  C4  UNL     1      23.718  -0.495  53.546  1.00  0.00     0.020 C 
BRANCH  22  23
HETATM   23  C3  UNL     1      22.373  -0.299  54.064  1.00  0.00     0.041 C 
HETATM   24  C2  UNL     1      21.296   0.278  53.599  1.00  0.00     0.121 C 
HETATM   25  F1  UNL     1      20.186   0.280  54.363  1.00  0.00    -0.209 F 
BRANCH  24  26
HETATM   26  C1  UNL     1      21.100   0.964  52.298  1.00  0.00     0.336 C 
BRANCH  26  27
HETATM   27  N1  UNL     1      21.664   2.303  52.424  1.00  0.00     0.084 N 
HETATM   28  H1  UNL     1      21.273   2.966  51.703  1.00  0.00     0.313 HD
HETATM   29  H2  UNL     1      21.533   2.675  53.375  1.00  0.00     0.313 HD
ENDBRANCH  26  27
ENDBRANCH  24  26
ENDBRANCH  22  23
ENDBRANCH  19  21
ENDBRANCH   1  19
TORSDOF 9
ENDMDL
MODEL 8
REMARK VINA RESULT:      -7.3      3.552      6.279
REMARK  9 active torsions:
REMARK  status: ('A' for Active; 'I' for Inactive)
REMARK    1  A    between atoms: N1_1  and  C1_2 
REMARK    2  A    between atoms: C1_2  and  C2_3 
REMARK    3  A    between atoms: C3_5  and  C4_6 
REMARK    4  A    between atoms: C5_7  and  N2_8 
REMARK    5  A    between atoms: N2_8  and  C6_9 
REMARK    6  A    between atoms: C9_14  and  N5_15 
REMARK    7  A    between atoms: N5_15  and  C10_16 
REMARK    8  A    between atoms: C10_16  and  C11_17 
REMARK    9  A    between atoms: C16_23  and  O1_24 
ROOT
HETATM    1  C6  UNL     1      23.353  -0.095  53.233  1.00  0.00     0.156 A 
HETATM    2  N3  UNL     1      23.379  -0.771  54.387  1.00  0.00    -0.222 NA
HETATM    3  C7  UNL     1      22.264  -1.260  54.948  1.00  0.00     0.235 A 
HETATM    4  N4  UNL     1      21.069  -1.080  54.350  1.00  0.00    -0.252 NA
HETATM    5  C8  UNL     1      21.025  -0.393  53.172  1.00  0.00     0.151 A 
HETATM    6  C9  UNL     1      22.161   0.110  52.596  1.00  0.00     0.092 A 
ENDROOT
BRANCH   6   7
HETATM    7  N5  UNL     1      21.898   0.808  51.423  1.00  0.00    -0.381 N 
HETATM    8  H11 UNL     1      20.825   0.855  51.393  1.00  0.00     0.160 HD
BRANCH   7   9
HETATM    9  C10 UNL     1      22.251   1.504  50.239  1.00  0.00     0.161 C 
BRANCH   9  10
HETATM   10  C11 UNL     1      22.927   2.834  50.469  1.00  0.00    -0.006 A 
HETATM   11  C12 UNL     1      24.144   3.016  49.814  1.00  0.00     0.035 A 
HETATM   12  C13 UNL     1      24.923   4.146  49.972  1.00  0.00     0.034 A 
HETATM   13 CL1  UNL     1      26.451   4.403  49.165  1.00  0.00    -0.084 Cl
HETATM   14  C14 UNL     1      24.465   5.133  50.819  1.00  0.00     0.026 A 
HETATM   15  C15 UNL     1      23.255   4.978  51.483  1.00  0.00     0.039 A 
HETATM   16  C16 UNL     1      22.490   3.844  51.312  1.00  0.00     0.073 A 
BRANCH  16  17
HETATM   17  O1  UNL     1      21.254   3.659  51.964  1.00  0.00    -0.360 OA
HETATM   18  H17 UNL     1      20.622   2.958  51.571  1.00  0.00     0.217 HD
ENDBRANCH  16  17
ENDBRANCH   9  10
ENDBRANCH   7   9
ENDBRANCH   6   7
BRANCH   1  19
HETATM   19  N2  UNL     1      24.530   0.437  52.646  1.00  0.00    -0.349 N 
HETATM   20  H8  UNL     1      24.743   1.055  51.802  1.00  0.00     0.167 HD
BRANCH  19  21
HETATM   21  C5  UNL     1      25.665   0.019  53.423  1.00  0.00     0.090 C 
HETATM   22  C4  UNL     1      26.617  -0.619  52.717  1.00  0.00     0.020 C 
BRANCH  22  23
HETATM   23  C3  UNL     1      27.901  -1.203  53.073  1.00  0.00     0.041 C 
HETATM   24  C2  UNL     1      29.034  -0.712  53.501  1.00  0.00     0.121 C 
HETATM   25  F1  UNL     1      30.053  -1.559  53.740  1.00  0.00    -0.209 F 
BRANCH  24  26
HETATM   26  C1  UNL     1      29.386   0.704  53.778  1.00  0.00     0.336 C 
BRANCH  26  27
HETATM   27  N1  UNL     1      28.801   1.051  55.068  1.00  0.00     0.084 N 
HETATM   28  H1  UNL     1      29.525   1.406  55.747  1.00  0.00     0.313 HD
HETATM   29  H2  UNL     1      28.034   1.730  54.959  1.00  0.00     0.313 HD
ENDBRANCH  26  27
ENDBRANCH  24  26
ENDBRANCH  22  23
ENDBRANCH  19  21
ENDBRANCH   1  19
TORSDOF 9
ENDMDL
MODEL 9
REMARK VINA RESULT:      -7.3      1.942      2.258
REMARK  9 active torsions:
REMARK  status: ('A' for Active; 'I' for Inactive)
REMARK    1  A    between atoms: N1_1  and  C1_2 
REMARK    2  A    between atoms: C1_2  and  C2_3 
REMARK    3  A    between atoms: C3_5  and  C4_6 
REMARK    4  A    between atoms: C5_7  and  N2_8 
REMARK    5  A    between atoms: N2_8  and  C6_9 
REMARK    6  A    between atoms: C9_14  and  N5_15 
REMARK    7  A    between atoms: N5_15  and  C10_16 
REMARK    8  A    between atoms: C10_16  and  C11_17 
REMARK    9  A    between atoms: C16_23  and  O1_24 
ROOT
HETATM    1  C6  UNL     1      26.531   0.929  52.633  1.00  0.00     0.156 A 
HETATM    2  N3  UNL     1      27.836   1.054  52.899  1.00  0.00    -0.222 NA
HETATM    3  C7  UNL     1      28.389   0.527  54.000  1.00  0.00     0.235 A 
HETATM    4  N4  UNL     1      27.629  -0.157  54.879  1.00  0.00    -0.252 NA
HETATM    5  C8  UNL     1      26.296  -0.295  54.622  1.00  0.00     0.151 A 
HETATM    6  C9  UNL     1      25.726   0.244  53.500  1.00  0.00     0.092 A 
ENDROOT
BRANCH   6   7
HETATM    7  N5  UNL     1      24.355   0.026  53.443  1.00  0.00    -0.381 N 
HETATM    8  H11 UNL     1      24.074   0.437  52.491  1.00  0.00     0.160 HD
BRANCH   7   9
HETATM    9  C10 UNL     1      23.110  -0.442  53.934  1.00  0.00     0.161 C 
BRANCH   9  10
HETATM   10  C11 UNL     1      21.923  -0.099  53.068  1.00  0.00    -0.006 A 
HETATM   11  C12 UNL     1      20.693  -0.594  53.501  1.00  0.00     0.035 A 
HETATM   12  C13 UNL     1      19.521  -0.429  52.788  1.00  0.00     0.034 A 
HETATM   13 CL1  UNL     1      17.967  -1.036  53.306  1.00  0.00    -0.084 Cl
HETATM   14  C14 UNL     1      19.582   0.259  51.595  1.00  0.00     0.026 A 
HETATM   15  C15 UNL     1      20.794   0.763  51.141  1.00  0.00     0.039 A 
HETATM   16  C16 UNL     1      21.953   0.591  51.865  1.00  0.00     0.073 A 
BRANCH  16  17
HETATM   17  O1  UNL     1      23.198   1.097  51.437  1.00  0.00    -0.360 OA
HETATM   18  H17 UNL     1      24.001   0.469  51.503  1.00  0.00     0.217 HD
ENDBRANCH  16  17
ENDBRANCH   9  10
ENDBRANCH   7   9
ENDBRANCH   6   7
BRANCH   1  19
HETATM   19  N2  UNL     1      25.942   1.501  51.475  1.00  0.00    -0.349 N 
HETATM   20  H8  UNL     1      25.131   1.242  50.832  1.00  0.00     0.167 HD
BRANCH  19  21
HETATM   21  C5  UNL     1      26.638   2.716  51.153  1.00  0.00     0.090 C 
HETATM   22  C4  UNL     1      26.524   3.098  49.868  1.00  0.00     0.020 C 
BRANCH  22  23
HETATM   23  C3  UNL     1      27.043   4.227  49.112  1.00  0.00     0.041 C 
HETATM   24  C2  UNL     1      26.598   5.430  48.857  1.00  0.00     0.121 C 
HETATM   25  F1  UNL     1      27.354   6.248  48.099  1.00  0.00    -0.209 F 
BRANCH  24  26
HETATM   26  C1  UNL     1      25.329   6.062  49.295  1.00  0.00     0.336 C 
BRANCH  26  27
HETATM   27  N1  UNL     1      25.566   6.644  50.611  1.00  0.00     0.084 N 
HETATM   28  H1  UNL     1      25.934   5.932  51.297  1.00  0.00     0.313 HD
HETATM   29  H2  UNL     1      26.195   7.457  50.552  1.00  0.00     0.313 HD
ENDBRANCH  26  27
ENDBRANCH  24  26
ENDBRANCH  22  23
ENDBRANCH  19  21
ENDBRANCH   1  19
TORSDOF 9
ENDMDL
