MODEL 1
REMARK VINA RESULT:      -7.4      0.000      0.000
REMARK  1 active torsions:
REMARK  status: ('A' for Active; 'I' for Inactive)
REMARK    1  A    between atoms: O1_2  and  C2_3 
ROOT
HETATM    1  C2  UNL     1      22.107   1.229  50.721  1.00  0.00     0.076 A 
HETATM    2  C3  UNL     1      22.628   2.515  50.622  1.00  0.00     0.043 A 
HETATM    3  C4  UNL     1      23.319   3.709  51.237  1.00  0.00     0.043 A 
HETATM    4  C5  UNL     1      22.914   2.512  51.616  1.00  0.00     0.091 A 
HETATM    5  C6  UNL     1      22.661   1.396  52.411  1.00  0.00     0.062 A 
HETATM    6  C7  UNL     1      22.043   0.351  51.776  1.00  0.00     0.092 A 
HETATM    7  N1  UNL     1      22.147  -0.313  53.057  1.00  0.00    -0.390 N 
HETATM    8  C8  UNL     1      23.541  -0.734  53.501  1.00  0.00     0.266 C 
HETATM    9  N2  UNL     1      24.384   0.332  53.660  1.00  0.00    -0.276 NA
HETATM   10  C9  UNL     1      25.591   0.626  53.583  1.00  0.00     0.048 C 
HETATM   11  C10 UNL     1      26.654  -0.329  53.221  1.00  0.00     0.173 C 
HETATM   12  N3  UNL     1      27.974   0.037  53.645  1.00  0.00    -0.411 N 
HETATM   13  C11 UNL     1      28.939  -0.993  53.726  1.00  0.00     0.143 C 
HETATM   14  C12 UNL     1      28.426   1.281  53.078  1.00  0.00     0.119 C 
HETATM   15  C13 UNL     1      27.345   2.283  52.941  1.00  0.00     0.050 C 
HETATM   16  C14 UNL     1      26.144   2.038  53.791  1.00  0.00     0.135 C 
HETATM   17  N4  UNL     1      25.059   2.864  53.184  1.00  0.00    -0.351 N 
HETATM   18  C15 UNL     1      23.992   3.707  52.653  1.00  0.00     0.223 C 
HETATM   19  O2  UNL     1      23.998   4.246  53.775  1.00  0.00    -0.273 OA
HETATM   20  H7  UNL     1      21.210  -0.436  53.553  1.00  0.00     0.155 HD
HETATM   21  H20 UNL     1      25.137   2.426  52.208  1.00  0.00     0.163 HD
ENDROOT
BRANCH   1  22
HETATM   22  O1  UNL     1      21.533   0.665  49.605  1.00  0.00    -0.384 OA
HETATM   23  C1  UNL     1      21.415   1.385  48.399  1.00  0.00     0.202 C 
ENDBRANCH   1  22
TORSDOF 1
ENDMDL
MODEL 2
REMARK VINA RESULT:      -7.2      2.267      5.907
REMARK  1 active torsions:
REMARK  status: ('A' for Active; 'I' for Inactive)
REMARK    1  A    between atoms: O1_2  and  C2_3 
ROOT
HETATM    1  C2  UNL     1      25.584   0.423  53.292  1.00  0.00     0.076 A 
HETATM    2  C3  UNL     1      24.556  -0.511  53.362  1.00  0.00     0.043 A 
HETATM    3  C4  UNL     1      23.085  -0.853  53.407  1.00  0.00     0.043 A 
HETATM    4  C5  UNL     1      23.835   0.230  53.339  1.00  0.00     0.091 A 
HETATM    5  C6  UNL     1      24.213   1.569  53.269  1.00  0.00     0.062 A 
HETATM    6  C7  UNL     1      25.564   1.796  53.217  1.00  0.00     0.092 A 
HETATM    7  N1  UNL     1      25.191   3.191  53.140  1.00  0.00    -0.390 N 
HETATM    8  C8  UNL     1      24.543   3.658  51.844  1.00  0.00     0.266 C 
HETATM    9  N2  UNL     1      23.353   3.028  51.598  1.00  0.00    -0.276 NA
HETATM   10  C9  UNL     1      22.635   2.661  50.648  1.00  0.00     0.048 C 
HETATM   11  C10 UNL     1      22.969   2.873  49.228  1.00  0.00     0.173 C 
HETATM   12  N3  UNL     1      21.854   2.839  48.328  1.00  0.00    -0.411 N 
HETATM   13  C11 UNL     1      22.022   3.449  47.063  1.00  0.00     0.143 C 
HETATM   14  C12 UNL     1      21.163   1.575  48.330  1.00  0.00     0.119 C 
HETATM   15  C13 UNL     1      21.102   0.951  49.672  1.00  0.00     0.050 C 
HETATM   16  C14 UNL     1      21.328   1.882  50.814  1.00  0.00     0.135 C 
HETATM   17  N4  UNL     1      21.662   1.006  51.975  1.00  0.00    -0.351 N 
HETATM   18  C15 UNL     1      21.931   0.174  53.145  1.00  0.00     0.223 C 
HETATM   19  O2  UNL     1      20.913   0.704  53.628  1.00  0.00    -0.273 OA
HETATM   20  H7  UNL     1      25.422   3.746  54.022  1.00  0.00     0.155 HD
HETATM   21  H20 UNL     1      22.488   0.518  51.494  1.00  0.00     0.163 HD
ENDROOT
BRANCH   1  22
HETATM   22  O1  UNL     1      26.883  -0.028  53.296  1.00  0.00    -0.384 OA
HETATM   23  C1  UNL     1      27.703   0.113  54.434  1.00  0.00     0.202 C 
ENDBRANCH   1  22
TORSDOF 1
ENDMDL
MODEL 3
REMARK VINA RESULT:      -7.0      2.131      4.044
REMARK  1 active torsions:
REMARK  status: ('A' for Active; 'I' for Inactive)
REMARK    1  A    between atoms: O1_2  and  C2_3 
ROOT
HETATM    1  C2  UNL     1      23.846   5.567  51.252  1.00  0.00     0.076 A 
HETATM    2  C3  UNL     1      22.886   4.823  51.929  1.00  0.00     0.043 A 
HETATM    3  C4  UNL     1      22.213   3.507  52.237  1.00  0.00     0.043 A 
HETATM    4  C5  UNL     1      23.193   3.948  51.472  1.00  0.00     0.091 A 
HETATM    5  C6  UNL     1      24.241   3.970  50.555  1.00  0.00     0.062 A 
HETATM    6  C7  UNL     1      24.807   5.200  50.341  1.00  0.00     0.092 A 
HETATM    7  N1  UNL     1      25.687   4.488  49.440  1.00  0.00    -0.390 N 
HETATM    8  C8  UNL     1      26.711   3.556  50.074  1.00  0.00     0.266 C 
HETATM    9  N2  UNL     1      26.126   2.534  50.772  1.00  0.00    -0.276 NA
HETATM   10  C9  UNL     1      26.334   1.792  51.750  1.00  0.00     0.048 C 
HETATM   11  C10 UNL     1      27.549   1.844  52.584  1.00  0.00     0.173 C 
HETATM   12  N3  UNL     1      27.833   0.648  53.321  1.00  0.00    -0.411 N 
HETATM   13  C11 UNL     1      29.160   0.466  53.776  1.00  0.00     0.143 C 
HETATM   14  C12 UNL     1      26.794   0.297  54.255  1.00  0.00     0.119 C 
HETATM   15  C13 UNL     1      25.435   0.596  53.748  1.00  0.00     0.050 C 
HETATM   16  C14 UNL     1      25.333   0.758  52.269  1.00  0.00     0.135 C 
HETATM   17  N4  UNL     1      24.041   1.470  52.041  1.00  0.00    -0.351 N 
HETATM   18  C15 UNL     1      22.754   2.109  51.779  1.00  0.00     0.223 C 
HETATM   19  O2  UNL     1      22.489   1.078  51.133  1.00  0.00    -0.273 OA
HETATM   20  H7  UNL     1      25.515   4.707  48.410  1.00  0.00     0.155 HD
HETATM   21  H20 UNL     1      24.278   2.307  52.668  1.00  0.00     0.163 HD
ENDROOT
BRANCH   1  22
HETATM   22  O1  UNL     1      23.907   6.923  51.477  1.00  0.00    -0.384 OA
HETATM   23  C1  UNL     1      23.800   7.847  50.418  1.00  0.00     0.202 C 
ENDBRANCH   1  22
TORSDOF 1
ENDMDL
MODEL 4
REMARK VINA RESULT:      -7.0      2.281      3.519
REMARK  1 active torsions:
REMARK  status: ('A' for Active; 'I' for Inactive)
REMARK    1  A    between atoms: O1_2  and  C2_3 
ROOT
HETATM    1  C2  UNL     1      20.683   2.265  52.434  1.00  0.00     0.076 A 
HETATM    2  C3  UNL     1      20.599   1.270  53.403  1.00  0.00     0.043 A 
HETATM    3  C4  UNL     1      21.034  -0.061  53.967  1.00  0.00     0.043 A 
HETATM    4  C5  UNL     1      21.315   0.698  52.926  1.00  0.00     0.091 A 
HETATM    5  C6  UNL     1      21.894   1.149  51.742  1.00  0.00     0.062 A 
HETATM    6  C7  UNL     1      21.456   2.371  51.303  1.00  0.00     0.092 A 
HETATM    7  N1  UNL     1      22.399   2.172  50.225  1.00  0.00    -0.390 N 
HETATM    8  C8  UNL     1      23.877   2.254  50.581  1.00  0.00     0.266 C 
HETATM    9  N2  UNL     1      24.254   1.288  51.475  1.00  0.00    -0.276 NA
HETATM   10  C9  UNL     1      25.077   1.089  52.388  1.00  0.00     0.048 C 
HETATM   11  C10 UNL     1      26.083   2.074  52.825  1.00  0.00     0.173 C 
HETATM   12  N3  UNL     1      27.216   1.525  53.511  1.00  0.00    -0.411 N 
HETATM   13  C11 UNL     1      28.387   2.316  53.566  1.00  0.00     0.143 C 
HETATM   14  C12 UNL     1      26.863   0.837  54.726  1.00  0.00     0.119 C 
HETATM   15  C13 UNL     1      25.581   0.102  54.625  1.00  0.00     0.050 C 
HETATM   16  C14 UNL     1      25.125  -0.185  53.234  1.00  0.00     0.135 C 
HETATM   17  N4  UNL     1      23.672  -0.504  53.356  1.00  0.00    -0.351 N 
HETATM   18  C15 UNL     1      22.264  -0.882  53.448  1.00  0.00     0.223 C 
HETATM   19  O2  UNL     1      22.630  -1.970  52.967  1.00  0.00    -0.273 OA
HETATM   20  H7  UNL     1      21.937   1.989  49.280  1.00  0.00     0.155 HD
HETATM   21  H20 UNL     1      23.410   0.417  53.839  1.00  0.00     0.163 HD
ENDROOT
BRANCH   1  22
HETATM   22  O1  UNL     1      19.875   3.372  52.557  1.00  0.00    -0.384 OA
HETATM   23  C1  UNL     1      19.283   3.974  51.429  1.00  0.00     0.202 C 
ENDBRANCH   1  22
TORSDOF 1
ENDMDL
MODEL 5
REMARK VINA RESULT:      -6.8      9.917     11.737
REMARK  1 active torsions:
REMARK  status: ('A' for Active; 'I' for Inactive)
REMARK    1  A    between atoms: O1_2  and  C2_3 
ROOT
HETATM    1  C2  UNL     1      31.538   9.433  47.645  1.00  0.00     0.076 A 
HETATM    2  C3  UNL     1      32.706   9.619  46.912  1.00  0.00     0.043 A 
HETATM    3  C4  UNL     1      34.177   9.361  46.687  1.00  0.00     0.043 A 
HETATM    4  C5  UNL     1      33.246   9.018  47.557  1.00  0.00     0.091 A 
HETATM    5  C6  UNL     1      32.620   8.434  48.656  1.00  0.00     0.062 A 
HETATM    6  C7  UNL     1      31.283   8.706  48.782  1.00  0.00     0.092 A 
HETATM    7  N1  UNL     1      31.357   7.854  49.948  1.00  0.00    -0.390 N 
HETATM    8  C8  UNL     1      31.557   6.365  49.700  1.00  0.00     0.266 C 
HETATM    9  N2  UNL     1      32.742   6.095  49.070  1.00  0.00    -0.276 NA
HETATM   10  C9  UNL     1      33.251   5.269  48.288  1.00  0.00     0.048 C 
HETATM   11  C10 UNL     1      32.535   4.109  47.728  1.00  0.00     0.173 C 
HETATM   12  N3  UNL     1      33.372   3.039  47.268  1.00  0.00    -0.411 N 
HETATM   13  C11 UNL     1      32.779   1.763  47.134  1.00  0.00     0.143 C 
HETATM   14  C12 UNL     1      34.264   3.434  46.208  1.00  0.00     0.119 C 
HETATM   15  C13 UNL     1      34.778   4.814  46.367  1.00  0.00     0.050 C 
HETATM   16  C14 UNL     1      34.679   5.371  47.747  1.00  0.00     0.135 C 
HETATM   17  N4  UNL     1      34.819   6.848  47.584  1.00  0.00    -0.351 N 
HETATM   18  C15 UNL     1      35.015   8.290  47.467  1.00  0.00     0.223 C 
HETATM   19  O2  UNL     1      36.005   8.112  48.200  1.00  0.00    -0.273 OA
HETATM   20  H7  UNL     1      31.258   8.381  50.872  1.00  0.00     0.155 HD
HETATM   21  H20 UNL     1      34.005   6.948  46.893  1.00  0.00     0.163 HD
ENDROOT
BRANCH   1  22
HETATM   22  O1  UNL     1      30.390  10.061  47.221  1.00  0.00    -0.384 OA
HETATM   23  C1  UNL     1      29.708  10.977  48.048  1.00  0.00     0.202 C 
ENDBRANCH   1  22
TORSDOF 1
ENDMDL
MODEL 6
REMARK VINA RESULT:      -6.7      2.794      6.153
REMARK  1 active torsions:
REMARK  status: ('A' for Active; 'I' for Inactive)
REMARK    1  A    between atoms: O1_2  and  C2_3 
ROOT
HETATM    1  C2  UNL     1      24.250   1.079  52.773  1.00  0.00     0.076 A 
HETATM    2  C3  UNL     1      22.953   0.628  52.989  1.00  0.00     0.043 A 
HETATM    3  C4  UNL     1      21.463   0.870  53.043  1.00  0.00     0.043 A 
HETATM    4  C5  UNL     1      22.558   1.561  52.786  1.00  0.00     0.091 A 
HETATM    5  C6  UNL     1      23.401   2.621  52.460  1.00  0.00     0.062 A 
HETATM    6  C7  UNL     1      24.737   2.315  52.419  1.00  0.00     0.092 A 
HETATM    7  N1  UNL     1      24.905   3.702  52.044  1.00  0.00    -0.390 N 
HETATM    8  C8  UNL     1      24.426   4.099  50.653  1.00  0.00     0.266 C 
HETATM    9  N2  UNL     1      23.080   3.918  50.492  1.00  0.00    -0.276 NA
HETATM   10  C9  UNL     1      22.241   3.658  49.609  1.00  0.00     0.048 C 
HETATM   11  C10 UNL     1      22.576   3.435  48.190  1.00  0.00     0.173 C 
HETATM   12  N3  UNL     1      21.494   3.632  47.271  1.00  0.00    -0.411 N 
HETATM   13  C11 UNL     1      21.827   3.864  45.917  1.00  0.00     0.143 C 
HETATM   14  C12 UNL     1      20.384   2.744  47.503  1.00  0.00     0.119 C 
HETATM   15  C13 UNL     1      20.148   2.475  48.939  1.00  0.00     0.050 C 
HETATM   16  C14 UNL     1      20.746   3.469  49.876  1.00  0.00     0.135 C 
HETATM   17  N4  UNL     1      20.776   2.788  51.204  1.00  0.00    -0.351 N 
HETATM   18  C15 UNL     1      20.762   2.175  52.529  1.00  0.00     0.223 C 
HETATM   19  O2  UNL     1      20.032   3.131  52.852  1.00  0.00    -0.273 OA
HETATM   20  H7  UNL     1      25.358   4.300  52.802  1.00  0.00     0.155 HD
HETATM   21  H20 UNL     1      21.343   1.942  50.868  1.00  0.00     0.163 HD
ENDROOT
BRANCH   1  22
HETATM   22  O1  UNL     1      25.289   0.191  52.923  1.00  0.00    -0.384 OA
HETATM   23  C1  UNL     1      25.335  -0.706  54.009  1.00  0.00     0.202 C 
ENDBRANCH   1  22
TORSDOF 1
ENDMDL
MODEL 7
REMARK VINA RESULT:      -6.4      2.999      5.579
REMARK  1 active torsions:
REMARK  status: ('A' for Active; 'I' for Inactive)
REMARK    1  A    between atoms: O1_2  and  C2_3 
ROOT
HETATM    1  C2  UNL     1      23.117   1.041  52.710  1.00  0.00     0.076 A 
HETATM    2  C3  UNL     1      24.372   1.529  53.055  1.00  0.00     0.043 A 
HETATM    3  C4  UNL     1      25.656   2.239  52.697  1.00  0.00     0.043 A 
HETATM    4  C5  UNL     1      24.535   1.883  52.098  1.00  0.00     0.091 A 
HETATM    5  C6  UNL     1      23.565   1.708  51.114  1.00  0.00     0.062 A 
HETATM    6  C7  UNL     1      22.425   1.067  51.523  1.00  0.00     0.092 A 
HETATM    7  N1  UNL     1      21.983   1.271  50.161  1.00  0.00    -0.390 N 
HETATM    8  C8  UNL     1      21.650   2.701  49.754  1.00  0.00     0.266 C 
HETATM    9  N2  UNL     1      22.735   3.532  49.834  1.00  0.00    -0.276 NA
HETATM   10  C9  UNL     1      23.020   4.726  50.045  1.00  0.00     0.048 C 
HETATM   11  C10 UNL     1      22.025   5.779  50.320  1.00  0.00     0.173 C 
HETATM   12  N3  UNL     1      22.466   7.117  50.057  1.00  0.00    -0.411 N 
HETATM   13  C11 UNL     1      21.470   8.105  49.878  1.00  0.00     0.143 C 
HETATM   14  C12 UNL     1      23.602   7.506  50.853  1.00  0.00     0.119 C 
HETATM   15  C13 UNL     1      24.560   6.399  51.075  1.00  0.00     0.050 C 
HETATM   16  C14 UNL     1      24.451   5.265  50.112  1.00  0.00     0.135 C 
HETATM   17  N4  UNL     1      25.157   4.125  50.767  1.00  0.00    -0.351 N 
HETATM   18  C15 UNL     1      25.894   3.008  51.352  1.00  0.00     0.223 C 
HETATM   19  O2  UNL     1      26.610   3.082  50.337  1.00  0.00    -0.273 OA
HETATM   20  H7  UNL     1      21.937   0.373  49.585  1.00  0.00     0.155 HD
HETATM   21  H20 UNL     1      24.564   4.144  51.661  1.00  0.00     0.163 HD
ENDROOT
BRANCH   1  22
HETATM   22  O1  UNL     1      22.372   0.401  53.673  1.00  0.00    -0.384 OA
HETATM   23  C1  UNL     1      21.998  -0.951  53.532  1.00  0.00     0.202 C 
ENDBRANCH   1  22
TORSDOF 1
ENDMDL
MODEL 8
REMARK VINA RESULT:      -6.4      2.716      5.683
REMARK  1 active torsions:
REMARK  status: ('A' for Active; 'I' for Inactive)
REMARK    1  A    between atoms: O1_2  and  C2_3 
ROOT
HETATM    1  C2  UNL     1      25.721   4.183  50.081  1.00  0.00     0.076 A 
HETATM    2  C3  UNL     1      26.171   2.891  50.331  1.00  0.00     0.043 A 
HETATM    3  C4  UNL     1      26.233   1.662  51.206  1.00  0.00     0.043 A 
HETATM    4  C5  UNL     1      25.673   2.857  51.236  1.00  0.00     0.091 A 
HETATM    5  C6  UNL     1      24.932   3.954  51.667  1.00  0.00     0.062 A 
HETATM    6  C7  UNL     1      24.915   5.024  50.810  1.00  0.00     0.092 A 
HETATM    7  N1  UNL     1      24.055   5.632  51.801  1.00  0.00    -0.390 N 
HETATM    8  C8  UNL     1      22.650   5.060  51.936  1.00  0.00     0.266 C 
HETATM    9  N2  UNL     1      22.655   3.748  52.325  1.00  0.00    -0.276 NA
HETATM   10  C9  UNL     1      21.982   2.706  52.210  1.00  0.00     0.048 C 
HETATM   11  C10 UNL     1      20.720   2.615  51.454  1.00  0.00     0.173 C 
HETATM   12  N3  UNL     1      19.865   1.525  51.823  1.00  0.00    -0.411 N 
HETATM   13  C11 UNL     1      18.499   1.624  51.472  1.00  0.00     0.143 C 
HETATM   14  C12 UNL     1      20.475   0.236  51.625  1.00  0.00     0.119 C 
HETATM   15  C13 UNL     1      21.925   0.227  51.927  1.00  0.00     0.050 C 
HETATM   16  C14 UNL     1      22.398   1.351  52.785  1.00  0.00     0.135 C 
HETATM   17  N4  UNL     1      23.877   1.397  52.589  1.00  0.00    -0.351 N 
HETATM   18  C15 UNL     1      25.332   1.431  52.468  1.00  0.00     0.223 C 
HETATM   19  O2  UNL     1      25.337   1.217  53.695  1.00  0.00    -0.273 OA
HETATM   20  H7  UNL     1      24.515   6.434  52.334  1.00  0.00     0.155 HD
HETATM   21  H20 UNL     1      23.831   1.505  51.523  1.00  0.00     0.163 HD
ENDROOT
BRANCH   1  22
HETATM   22  O1  UNL     1      26.111   4.801  48.916  1.00  0.00    -0.384 OA
HETATM   23  C1  UNL     1      27.470   5.055  48.641  1.00  0.00     0.202 C 
ENDBRANCH   1  22
TORSDOF 1
ENDMDL
MODEL 9
REMARK VINA RESULT:      -6.4      4.201      7.221
REMARK  1 active torsions:
REMARK  status: ('A' for Active; 'I' for Inactive)
REMARK    1  A    between atoms: O1_2  and  C2_3 
ROOT
HETATM    1  C2  UNL     1      26.106   7.195  49.205  1.00  0.00     0.076 A 
HETATM    2  C3  UNL     1      26.728   6.013  48.820  1.00  0.00     0.043 A 
HETATM    3  C4  UNL     1      26.930   4.523  48.957  1.00  0.00     0.043 A 
HETATM    4  C5  UNL     1      26.200   5.467  49.520  1.00  0.00     0.091 A 
HETATM    5  C6  UNL     1      25.287   6.103  50.358  1.00  0.00     0.062 A 
HETATM    6  C7  UNL     1      25.152   7.453  50.161  1.00  0.00     0.092 A 
HETATM    7  N1  UNL     1      24.168   7.373  51.218  1.00  0.00    -0.390 N 
HETATM    8  C8  UNL     1      22.858   6.672  50.884  1.00  0.00     0.266 C 
HETATM    9  N2  UNL     1      23.037   5.356  50.558  1.00  0.00    -0.276 NA
HETATM   10  C9  UNL     1      22.531   4.459  49.857  1.00  0.00     0.048 C 
HETATM   11  C10 UNL     1      21.331   4.641  49.020  1.00  0.00     0.173 C 
HETATM   12  N3  UNL     1      20.630   3.435  48.689  1.00  0.00    -0.411 N 
HETATM   13  C11 UNL     1      19.281   3.560  48.282  1.00  0.00     0.143 C 
HETATM   14  C12 UNL     1      21.430   2.502  47.939  1.00  0.00     0.119 C 
HETATM   15  C13 UNL     1      22.850   2.488  48.359  1.00  0.00     0.050 C 
HETATM   16  C14 UNL     1      23.114   3.051  49.715  1.00  0.00     0.135 C 
HETATM   17  N4  UNL     1      24.578   3.344  49.739  1.00  0.00    -0.351 N 
HETATM   18  C15 UNL     1      26.016   3.584  49.819  1.00  0.00     0.223 C 
HETATM   19  O2  UNL     1      25.996   2.771  50.762  1.00  0.00    -0.273 OA
HETATM   20  H7  UNL     1      24.482   7.828  52.131  1.00  0.00     0.155 HD
HETATM   21  H20 UNL     1      24.565   3.979  48.875  1.00  0.00     0.163 HD
ENDROOT
BRANCH   1  22
HETATM   22  O1  UNL     1      26.454   8.361  48.563  1.00  0.00    -0.384 OA
HETATM   23  C1  UNL     1      26.415   9.603  49.229  1.00  0.00     0.202 C 
ENDBRANCH   1  22
TORSDOF 1
ENDMDL
