MODEL 1
REMARK VINA RESULT:      -8.2      0.000      0.000
REMARK  4 active torsions:
REMARK  status: ('A' for Active; 'I' for Inactive)
REMARK    1  A    between atoms: O1_2  and  C1_3 
REMARK    2  A    between atoms: C3_6  and  N1_7 
REMARK    3  A    between atoms: C4_9  and  C5_10 
REMARK    4  A    between atoms: C11_16  and  C12_17 
ROOT
HETATM    1  N1  UNL     1      25.606   2.562  51.831  1.00  0.00    -0.236 N 
HETATM    2  N2  UNL     1      26.611   1.608  51.757  1.00  0.00    -0.174 NA
HETATM    3  C4  UNL     1      26.943   1.138  52.917  1.00  0.00     0.064 C 
HETATM    4  C10 UNL     1      26.101   1.799  53.954  1.00  0.00     0.094 C 
HETATM    5  C11 UNL     1      24.933   2.233  53.104  1.00  0.00     0.151 C 
ENDROOT
BRANCH   1   6
HETATM    6  C3  UNL     1      25.172   3.653  51.008  1.00  0.00     0.192 A 
HETATM    7  S1  UNL     1      26.425   3.980  49.618  1.00  0.00    -0.058 SA
HETATM    8  C2  UNL     1      25.385   5.398  48.949  1.00  0.00     0.114 A 
HETATM    9  C1  UNL     1      24.301   5.347  49.900  1.00  0.00     0.214 A 
HETATM   10  N3  UNL     1      24.356   4.431  50.843  1.00  0.00    -0.195 NA
BRANCH   9  11
HETATM   11  O1  UNL     1      23.280   6.297  49.719  1.00  0.00    -0.135 OA
HETATM   12  F1  UNL     1      22.867   7.116  50.693  1.00  0.00    -0.040 F 
ENDBRANCH   9  11
ENDBRANCH   1   6
BRANCH   5  13
HETATM   13  C12 UNL     1      23.875   1.243  52.948  1.00  0.00    -0.033 A 
HETATM   14  C13 UNL     1      22.833   1.286  52.037  1.00  0.00     0.009 A 
HETATM   15  C14 UNL     1      21.848   0.327  51.923  1.00  0.00     0.001 A 
HETATM   16  C15 UNL     1      21.873  -0.766  52.761  1.00  0.00     0.000 A 
HETATM   17  C16 UNL     1      22.897  -0.856  53.693  1.00  0.00     0.001 A 
HETATM   18  C17 UNL     1      23.857   0.131  53.764  1.00  0.00     0.009 A 
ENDBRANCH   5  13
BRANCH   3  19
HETATM   19  C5  UNL     1      27.970   0.125  53.137  1.00  0.00    -0.028 A 
HETATM   20  C6  UNL     1      27.786  -1.163  52.959  1.00  0.00     0.009 A 
HETATM   21  C7  UNL     1      29.008  -1.869  53.269  1.00  0.00    -0.003 A 
HETATM   22  C8  UNL     1      29.941  -1.007  53.636  1.00  0.00    -0.022 A 
HETATM   23  C9  UNL     1      29.364   0.377  53.589  1.00  0.00     0.067 A 
ENDBRANCH   3  19
TORSDOF 4
ENDMDL
MODEL 2
REMARK VINA RESULT:      -8.1      3.448      6.157
REMARK  4 active torsions:
REMARK  status: ('A' for Active; 'I' for Inactive)
REMARK    1  A    between atoms: O1_2  and  C1_3 
REMARK    2  A    between atoms: C3_6  and  N1_7 
REMARK    3  A    between atoms: C4_9  and  C5_10 
REMARK    4  A    between atoms: C11_16  and  C12_17 
ROOT
HETATM    1  N1  UNL     1      24.996   2.074  52.664  1.00  0.00    -0.236 N 
HETATM    2  N2  UNL     1      24.344   3.295  52.577  1.00  0.00    -0.174 NA
HETATM    3  C4  UNL     1      23.490   3.341  51.605  1.00  0.00     0.064 C 
HETATM    4  C10 UNL     1      23.503   2.026  50.903  1.00  0.00     0.094 C 
HETATM    5  C11 UNL     1      24.055   1.150  52.000  1.00  0.00     0.151 C 
ENDROOT
BRANCH   1   6
HETATM    6  C3  UNL     1      26.245   1.620  53.204  1.00  0.00     0.192 A 
HETATM    7  S1  UNL     1      26.809   0.028  52.337  1.00  0.00    -0.058 SA
HETATM    8  C2  UNL     1      28.361  -0.058  53.397  1.00  0.00     0.114 A 
HETATM    9  C1  UNL     1      28.151   1.127  54.194  1.00  0.00     0.214 A 
HETATM   10  N3  UNL     1      27.063   1.832  53.969  1.00  0.00    -0.195 NA
BRANCH   9  11
HETATM   11  O1  UNL     1      29.146   1.411  55.146  1.00  0.00    -0.135 OA
HETATM   12  F1  UNL     1      29.990   2.443  55.031  1.00  0.00    -0.040 F 
ENDBRANCH   9  11
ENDBRANCH   1   6
BRANCH   5  13
HETATM   13  C12 UNL     1      23.063   0.597  52.913  1.00  0.00    -0.033 A 
HETATM   14  C13 UNL     1      21.740   0.990  53.031  1.00  0.00     0.009 A 
HETATM   15  C14 UNL     1      20.832   0.441  53.911  1.00  0.00     0.001 A 
HETATM   16  C15 UNL     1      21.237  -0.575  54.750  1.00  0.00     0.000 A 
HETATM   17  C16 UNL     1      22.554  -1.005  54.671  1.00  0.00     0.001 A 
HETATM   18  C17 UNL     1      23.420  -0.421  53.772  1.00  0.00     0.009 A 
ENDBRANCH   5  13
BRANCH   3  19
HETATM   19  C5  UNL     1      22.665   4.499  51.280  1.00  0.00    -0.028 A 
HETATM   20  C6  UNL     1      21.386   4.434  50.988  1.00  0.00     0.009 A 
HETATM   21  C7  UNL     1      20.888   5.764  50.720  1.00  0.00    -0.003 A 
HETATM   22  C8  UNL     1      21.868   6.643  50.851  1.00  0.00    -0.022 A 
HETATM   23  C9  UNL     1      23.123   5.913  51.228  1.00  0.00     0.067 A 
ENDBRANCH   3  19
TORSDOF 4
ENDMDL
MODEL 3
REMARK VINA RESULT:      -8.0      3.761      6.324
REMARK  4 active torsions:
REMARK  status: ('A' for Active; 'I' for Inactive)
REMARK    1  A    between atoms: O1_2  and  C1_3 
REMARK    2  A    between atoms: C3_6  and  N1_7 
REMARK    3  A    between atoms: C4_9  and  C5_10 
REMARK    4  A    between atoms: C11_16  and  C12_17 
ROOT
HETATM    1  N1  UNL     1      25.489   1.459  52.588  1.00  0.00    -0.236 N 
HETATM    2  N2  UNL     1      25.034   2.769  52.617  1.00  0.00    -0.174 NA
HETATM    3  C4  UNL     1      24.106   2.997  51.743  1.00  0.00     0.064 C 
HETATM    4  C10 UNL     1      23.841   1.734  50.995  1.00  0.00     0.094 C 
HETATM    5  C11 UNL     1      24.353   0.728  51.994  1.00  0.00     0.151 C 
ENDROOT
BRANCH   1   6
HETATM    6  C3  UNL     1      26.698   0.790  52.977  1.00  0.00     0.192 A 
HETATM    7  S1  UNL     1      28.059   2.052  53.378  1.00  0.00    -0.058 SA
HETATM    8  C2  UNL     1      29.280   0.678  53.779  1.00  0.00     0.114 A 
HETATM    9  C1  UNL     1      28.426  -0.458  53.534  1.00  0.00     0.214 A 
HETATM   10  N3  UNL     1      27.190  -0.223  53.147  1.00  0.00    -0.195 NA
BRANCH   9  11
HETATM   11  O1  UNL     1      29.010  -1.722  53.736  1.00  0.00    -0.135 OA
HETATM   12  F1  UNL     1      28.789  -2.763  52.927  1.00  0.00    -0.040 F 
ENDBRANCH   9  11
ENDBRANCH   1   6
BRANCH   5  13
HETATM   13  C12 UNL     1      23.381   0.285  52.985  1.00  0.00    -0.033 A 
HETATM   14  C13 UNL     1      23.603  -0.614  54.015  1.00  0.00     0.009 A 
HETATM   15  C14 UNL     1      22.654  -1.009  54.933  1.00  0.00     0.001 A 
HETATM   16  C15 UNL     1      21.380  -0.490  54.850  1.00  0.00     0.000 A 
HETATM   17  C16 UNL     1      21.105   0.415  53.835  1.00  0.00     0.001 A 
HETATM   18  C17 UNL     1      22.093   0.776  52.943  1.00  0.00     0.009 A 
ENDBRANCH   5  13
BRANCH   3  19
HETATM   19  C5  UNL     1      23.446   4.283  51.551  1.00  0.00    -0.028 A 
HETATM   20  C6  UNL     1      24.043   5.355  51.079  1.00  0.00     0.009 A 
HETATM   21  C7  UNL     1      23.095   6.444  51.022  1.00  0.00    -0.003 A 
HETATM   22  C8  UNL     1      21.917   6.035  51.460  1.00  0.00    -0.022 A 
HETATM   23  C9  UNL     1      22.022   4.590  51.849  1.00  0.00     0.067 A 
ENDBRANCH   3  19
TORSDOF 4
ENDMDL
MODEL 4
REMARK VINA RESULT:      -7.7      1.949      2.598
REMARK  4 active torsions:
REMARK  status: ('A' for Active; 'I' for Inactive)
REMARK    1  A    between atoms: O1_2  and  C1_3 
REMARK    2  A    between atoms: C3_6  and  N1_7 
REMARK    3  A    between atoms: C4_9  and  C5_10 
REMARK    4  A    between atoms: C11_16  and  C12_17 
ROOT
HETATM    1  N1  UNL     1      25.600   3.729  50.629  1.00  0.00    -0.236 N 
HETATM    2  N2  UNL     1      26.392   2.612  50.852  1.00  0.00    -0.174 NA
HETATM    3  C4  UNL     1      26.006   1.919  51.876  1.00  0.00     0.064 C 
HETATM    4  C10 UNL     1      24.809   2.580  52.470  1.00  0.00     0.094 C 
HETATM    5  C11 UNL     1      24.324   3.362  51.275  1.00  0.00     0.151 C 
ENDROOT
BRANCH   1   6
HETATM    6  C3  UNL     1      25.780   4.994  49.978  1.00  0.00     0.192 A 
HETATM    7  S1  UNL     1      27.271   4.934  48.803  1.00  0.00    -0.058 SA
HETATM    8  C2  UNL     1      27.009   6.728  48.301  1.00  0.00     0.114 A 
HETATM    9  C1  UNL     1      25.854   7.020  49.114  1.00  0.00     0.214 A 
HETATM   10  N3  UNL     1      25.382   6.057  49.876  1.00  0.00    -0.195 NA
BRANCH   9  11
HETATM   11  O1  UNL     1      25.341   8.325  49.007  1.00  0.00    -0.135 OA
HETATM   12  F1  UNL     1      24.154   8.684  49.508  1.00  0.00    -0.040 F 
ENDBRANCH   9  11
ENDBRANCH   1   6
BRANCH   5  13
HETATM   13  C12 UNL     1      23.423   2.642  50.384  1.00  0.00    -0.033 A 
HETATM   14  C13 UNL     1      23.271   2.847  49.023  1.00  0.00     0.009 A 
HETATM   15  C14 UNL     1      22.403   2.144  48.214  1.00  0.00     0.001 A 
HETATM   16  C15 UNL     1      21.615   1.158  48.768  1.00  0.00     0.000 A 
HETATM   17  C16 UNL     1      21.729   0.915  50.129  1.00  0.00     0.001 A 
HETATM   18  C17 UNL     1      22.613   1.648  50.892  1.00  0.00     0.009 A 
ENDBRANCH   5  13
BRANCH   3  19
HETATM   19  C5  UNL     1      26.653   0.698  52.342  1.00  0.00    -0.028 A 
HETATM   20  C6  UNL     1      26.184  -0.511  52.133  1.00  0.00     0.009 A 
HETATM   21  C7  UNL     1      27.075  -1.480  52.730  1.00  0.00    -0.003 A 
HETATM   22  C8  UNL     1      28.091  -0.858  53.304  1.00  0.00    -0.022 A 
HETATM   23  C9  UNL     1      27.923   0.620  53.112  1.00  0.00     0.067 A 
ENDBRANCH   3  19
TORSDOF 4
ENDMDL
MODEL 5
REMARK VINA RESULT:      -7.6      3.504      6.452
REMARK  4 active torsions:
REMARK  status: ('A' for Active; 'I' for Inactive)
REMARK    1  A    between atoms: O1_2  and  C1_3 
REMARK    2  A    between atoms: C3_6  and  N1_7 
REMARK    3  A    between atoms: C4_9  and  C5_10 
REMARK    4  A    between atoms: C11_16  and  C12_17 
ROOT
HETATM    1  N1  UNL     1      23.429   1.019  52.562  1.00  0.00    -0.236 N 
HETATM    2  N2  UNL     1      22.490   0.010  52.730  1.00  0.00    -0.174 NA
HETATM    3  C4  UNL     1      21.283   0.464  52.851  1.00  0.00     0.064 C 
HETATM    4  C10 UNL     1      21.325   1.951  52.760  1.00  0.00     0.094 C 
HETATM    5  C11 UNL     1      22.624   2.130  52.016  1.00  0.00     0.151 C 
ENDROOT
BRANCH   1   6
HETATM    6  C3  UNL     1      24.838   1.150  52.796  1.00  0.00     0.192 A 
HETATM    7  S1  UNL     1      25.459  -0.243  53.927  1.00  0.00    -0.058 SA
HETATM    8  C2  UNL     1      27.217   0.426  53.866  1.00  0.00     0.114 A 
HETATM    9  C1  UNL     1      26.992   1.563  53.007  1.00  0.00     0.214 A 
HETATM   10  N3  UNL     1      25.767   1.771  52.573  1.00  0.00    -0.195 NA
BRANCH   9  11
HETATM   11  O1  UNL     1      28.123   2.347  52.716  1.00  0.00    -0.135 OA
HETATM   12  F1  UNL     1      28.896   2.888  53.665  1.00  0.00    -0.040 F 
ENDBRANCH   9  11
ENDBRANCH   1   6
BRANCH   5  13
HETATM   13  C12 UNL     1      22.519   2.094  50.563  1.00  0.00    -0.033 A 
HETATM   14  C13 UNL     1      21.668   1.295  49.817  1.00  0.00     0.009 A 
HETATM   15  C14 UNL     1      21.600   1.290  48.440  1.00  0.00     0.001 A 
HETATM   16  C15 UNL     1      22.425   2.127  47.722  1.00  0.00     0.000 A 
HETATM   17  C16 UNL     1      23.298   2.947  48.422  1.00  0.00     0.001 A 
HETATM   18  C17 UNL     1      23.325   2.913  49.800  1.00  0.00     0.009 A 
ENDBRANCH   5  13
BRANCH   3  19
HETATM   19  C5  UNL     1      20.101  -0.369  53.040  1.00  0.00    -0.028 A 
HETATM   20  C6  UNL     1      18.952  -0.167  52.434  1.00  0.00     0.009 A 
HETATM   21  C7  UNL     1      18.006  -1.177  52.852  1.00  0.00    -0.003 A 
HETATM   22  C8  UNL     1      18.582  -1.997  53.715  1.00  0.00    -0.022 A 
HETATM   23  C9  UNL     1      20.000  -1.559  53.926  1.00  0.00     0.067 A 
ENDBRANCH   3  19
TORSDOF 4
ENDMDL
MODEL 6
REMARK VINA RESULT:      -7.5      3.783      6.890
REMARK  4 active torsions:
REMARK  status: ('A' for Active; 'I' for Inactive)
REMARK    1  A    between atoms: O1_2  and  C1_3 
REMARK    2  A    between atoms: C3_6  and  N1_7 
REMARK    3  A    between atoms: C4_9  and  C5_10 
REMARK    4  A    between atoms: C11_16  and  C12_17 
ROOT
HETATM    1  N1  UNL     1      25.337   1.298  52.458  1.00  0.00    -0.236 N 
HETATM    2  N2  UNL     1      24.224   0.729  51.855  1.00  0.00    -0.174 NA
HETATM    3  C4  UNL     1      23.158   1.451  51.988  1.00  0.00     0.064 C 
HETATM    4  C10 UNL     1      23.510   2.679  52.757  1.00  0.00     0.094 C 
HETATM    5  C11 UNL     1      24.994   2.733  52.494  1.00  0.00     0.151 C 
ENDROOT
BRANCH   1   6
HETATM    6  C3  UNL     1      26.580   0.805  52.978  1.00  0.00     0.192 A 
HETATM    7  S1  UNL     1      26.436   0.463  54.840  1.00  0.00    -0.058 SA
HETATM    8  C2  UNL     1      28.227  -0.106  54.923  1.00  0.00     0.114 A 
HETATM    9  C1  UNL     1      28.581   0.071  53.536  1.00  0.00     0.214 A 
HETATM   10  N3  UNL     1      27.654   0.527  52.720  1.00  0.00    -0.195 NA
BRANCH   9  11
HETATM   11  O1  UNL     1      29.903  -0.265  53.191  1.00  0.00    -0.135 OA
HETATM   12  F1  UNL     1      30.629  -1.155  53.876  1.00  0.00    -0.040 F 
ENDBRANCH   9  11
ENDBRANCH   1   6
BRANCH   5  13
HETATM   13  C12 UNL     1      25.385   3.441  51.282  1.00  0.00    -0.033 A 
HETATM   14  C13 UNL     1      26.504   3.191  50.504  1.00  0.00     0.009 A 
HETATM   15  C14 UNL     1      26.840   3.887  49.362  1.00  0.00     0.001 A 
HETATM   16  C15 UNL     1      26.026   4.914  48.935  1.00  0.00     0.000 A 
HETATM   17  C16 UNL     1      24.892   5.205  49.681  1.00  0.00     0.001 A 
HETATM   18  C17 UNL     1      24.603   4.477  50.815  1.00  0.00     0.009 A 
ENDBRANCH   5  13
BRANCH   3  19
HETATM   19  C5  UNL     1      21.846   1.098  51.456  1.00  0.00    -0.028 A 
HETATM   20  C6  UNL     1      21.449   1.368  50.233  1.00  0.00     0.009 A 
HETATM   21  C7  UNL     1      20.102   0.877  50.048  1.00  0.00    -0.003 A 
HETATM   22  C8  UNL     1      19.678   0.304  51.162  1.00  0.00    -0.022 A 
HETATM   23  C9  UNL     1      20.766   0.388  52.192  1.00  0.00     0.067 A 
ENDBRANCH   3  19
TORSDOF 4
ENDMDL
MODEL 7
REMARK VINA RESULT:      -7.3      7.223     10.156
REMARK  4 active torsions:
REMARK  status: ('A' for Active; 'I' for Inactive)
REMARK    1  A    between atoms: O1_2  and  C1_3 
REMARK    2  A    between atoms: C3_6  and  N1_7 
REMARK    3  A    between atoms: C4_9  and  C5_10 
REMARK    4  A    between atoms: C11_16  and  C12_17 
ROOT
HETATM    1  N1  UNL     1      30.875   6.967  47.897  1.00  0.00    -0.236 N 
HETATM    2  N2  UNL     1      30.837   8.177  48.575  1.00  0.00    -0.174 NA
HETATM    3  C4  UNL     1      30.158   9.083  47.946  1.00  0.00     0.064 C 
HETATM    4  C10 UNL     1      29.635   8.490  46.683  1.00  0.00     0.094 C 
HETATM    5  C11 UNL     1      29.670   7.028  47.047  1.00  0.00     0.151 C 
ENDROOT
BRANCH   1   6
HETATM    6  C3  UNL     1      31.755   5.835  47.879  1.00  0.00     0.192 A 
HETATM    7  S1  UNL     1      33.544   6.374  48.221  1.00  0.00    -0.058 SA
HETATM    8  C2  UNL     1      34.157   4.602  48.075  1.00  0.00     0.114 A 
HETATM    9  C1  UNL     1      32.899   3.953  47.799  1.00  0.00     0.214 A 
HETATM   10  N3  UNL     1      31.821   4.706  47.738  1.00  0.00    -0.195 NA
BRANCH   9  11
HETATM   11  O1  UNL     1      32.952   2.559  47.620  1.00  0.00    -0.135 OA
HETATM   12  F1  UNL     1      33.414   1.722  48.556  1.00  0.00    -0.040 F 
ENDBRANCH   9  11
ENDBRANCH   1   6
BRANCH   5  13
HETATM   13  C12 UNL     1      28.477   6.526  47.717  1.00  0.00    -0.033 A 
HETATM   14  C13 UNL     1      28.345   5.310  48.367  1.00  0.00     0.009 A 
HETATM   15  C14 UNL     1      27.195   4.870  48.988  1.00  0.00     0.001 A 
HETATM   16  C15 UNL     1      26.076   5.674  48.981  1.00  0.00     0.000 A 
HETATM   17  C16 UNL     1      26.156   6.904  48.342  1.00  0.00     0.001 A 
HETATM   18  C17 UNL     1      27.331   7.294  47.736  1.00  0.00     0.009 A 
ENDBRANCH   5  13
BRANCH   3  19
HETATM   19  C5  UNL     1      29.953  10.446  48.425  1.00  0.00    -0.028 A 
HETATM   20  C6  UNL     1      30.925  11.260  48.770  1.00  0.00     0.009 A 
HETATM   21  C7  UNL     1      30.364  12.523  49.194  1.00  0.00    -0.003 A 
HETATM   22  C8  UNL     1      29.045  12.477  49.106  1.00  0.00    -0.022 A 
HETATM   23  C9  UNL     1      28.641  11.125  48.597  1.00  0.00     0.067 A 
ENDBRANCH   3  19
TORSDOF 4
ENDMDL
MODEL 8
REMARK VINA RESULT:      -7.2      2.889      6.075
REMARK  4 active torsions:
REMARK  status: ('A' for Active; 'I' for Inactive)
REMARK    1  A    between atoms: O1_2  and  C1_3 
REMARK    2  A    between atoms: C3_6  and  N1_7 
REMARK    3  A    between atoms: C4_9  and  C5_10 
REMARK    4  A    between atoms: C11_16  and  C12_17 
ROOT
HETATM    1  N1  UNL     1      21.553   2.447  51.751  1.00  0.00    -0.236 N 
HETATM    2  N2  UNL     1      20.429   1.870  52.326  1.00  0.00    -0.174 NA
HETATM    3  C4  UNL     1      20.171   0.693  51.852  1.00  0.00     0.064 C 
HETATM    4  C10 UNL     1      21.203   0.358  50.830  1.00  0.00     0.094 C 
HETATM    5  C11 UNL     1      22.314   1.277  51.271  1.00  0.00     0.151 C 
ENDROOT
BRANCH   1   6
HETATM    6  C3  UNL     1      22.030   3.786  51.566  1.00  0.00     0.192 A 
HETATM    7  S1  UNL     1      20.667   4.886  50.832  1.00  0.00    -0.058 SA
HETATM    8  C2  UNL     1      21.809   6.381  50.825  1.00  0.00     0.114 A 
HETATM    9  C1  UNL     1      22.990   5.761  51.375  1.00  0.00     0.214 A 
HETATM   10  N3  UNL     1      22.924   4.483  51.683  1.00  0.00    -0.195 NA
BRANCH   9  11
HETATM   11  O1  UNL     1      24.109   6.599  51.530  1.00  0.00    -0.135 OA
HETATM   12  F1  UNL     1      24.095   7.897  51.207  1.00  0.00    -0.040 F 
ENDBRANCH   9  11
ENDBRANCH   1   6
BRANCH   5  13
HETATM   13  C12 UNL     1      23.210   0.728  52.281  1.00  0.00    -0.033 A 
HETATM   14  C13 UNL     1      24.505   1.140  52.547  1.00  0.00     0.009 A 
HETATM   15  C14 UNL     1      25.323   0.593  53.513  1.00  0.00     0.001 A 
HETATM   16  C15 UNL     1      24.847  -0.442  54.289  1.00  0.00     0.000 A 
HETATM   17  C16 UNL     1      23.555  -0.893  54.062  1.00  0.00     0.001 A 
HETATM   18  C17 UNL     1      22.780  -0.309  53.083  1.00  0.00     0.009 A 
ENDBRANCH   5  13
BRANCH   3  19
HETATM   19  C5  UNL     1      19.052  -0.142  52.273  1.00  0.00    -0.028 A 
HETATM   20  C6  UNL     1      19.060  -0.901  53.346  1.00  0.00     0.009 A 
HETATM   21  C7  UNL     1      17.793  -1.587  53.458  1.00  0.00    -0.003 A 
HETATM   22  C8  UNL     1      17.010  -1.244  52.449  1.00  0.00    -0.022 A 
HETATM   23  C9  UNL     1      17.745  -0.271  51.576  1.00  0.00     0.067 A 
ENDBRANCH   3  19
TORSDOF 4
ENDMDL
MODEL 9
REMARK VINA RESULT:      -7.2      2.741      5.668
REMARK  4 active torsions:
REMARK  status: ('A' for Active; 'I' for Inactive)
REMARK    1  A    between atoms: O1_2  and  C1_3 
REMARK    2  A    between atoms: C3_6  and  N1_7 
REMARK    3  A    between atoms: C4_9  and  C5_10 
REMARK    4  A    between atoms: C11_16  and  C12_17 
ROOT
HETATM    1  N1  UNL     1      22.114   2.834  51.749  1.00  0.00    -0.236 N 
HETATM    2  N2  UNL     1      21.034   2.210  52.357  1.00  0.00    -0.174 NA
HETATM    3  C4  UNL     1      20.848   1.002  51.929  1.00  0.00     0.064 C 
HETATM    4  C10 UNL     1      21.891   0.695  50.910  1.00  0.00     0.094 C 
HETATM    5  C11 UNL     1      22.945   1.698  51.305  1.00  0.00     0.151 C 
ENDROOT
BRANCH   1   6
HETATM    6  C3  UNL     1      22.504   4.194  51.510  1.00  0.00     0.192 A 
HETATM    7  S1  UNL     1      21.031   5.209  50.874  1.00  0.00    -0.058 SA
HETATM    8  C2  UNL     1      22.089   6.760  50.756  1.00  0.00     0.114 A 
HETATM    9  C1  UNL     1      23.340   6.211  51.218  1.00  0.00     0.214 A 
HETATM   10  N3  UNL     1      23.367   4.937  51.545  1.00  0.00    -0.195 NA
BRANCH   9  11
HETATM   11  O1  UNL     1      24.422   7.109  51.272  1.00  0.00    -0.135 OA
HETATM   12  F1  UNL     1      24.390   8.322  50.709  1.00  0.00    -0.040 F 
ENDBRANCH   9  11
ENDBRANCH   1   6
BRANCH   5  13
HETATM   13  C12 UNL     1      23.881   1.246  52.327  1.00  0.00    -0.033 A 
HETATM   14  C13 UNL     1      24.937   1.969  52.856  1.00  0.00     0.009 A 
HETATM   15  C14 UNL     1      25.804   1.503  53.823  1.00  0.00     0.001 A 
HETATM   16  C15 UNL     1      25.635   0.229  54.320  1.00  0.00     0.000 A 
HETATM   17  C16 UNL     1      24.592  -0.537  53.821  1.00  0.00     0.001 A 
HETATM   18  C17 UNL     1      23.754  -0.022  52.855  1.00  0.00     0.009 A 
ENDBRANCH   5  13
BRANCH   3  19
HETATM   19  C5  UNL     1      19.787   0.114  52.392  1.00  0.00    -0.028 A 
HETATM   20  C6  UNL     1      18.597   0.036  51.841  1.00  0.00     0.009 A 
HETATM   21  C7  UNL     1      17.803  -0.941  52.551  1.00  0.00    -0.003 A 
HETATM   22  C8  UNL     1      18.513  -1.460  53.539  1.00  0.00    -0.022 A 
HETATM   23  C9  UNL     1      19.874  -0.829  53.538  1.00  0.00     0.067 A 
ENDBRANCH   3  19
TORSDOF 4
ENDMDL
