MODEL 1
REMARK VINA RESULT:      -7.3      0.000      0.000
REMARK  6 active torsions:
REMARK  status: ('A' for Active; 'I' for Inactive)
REMARK    1  A    between atoms: C2_3  and  C3_4 
REMARK    2  A    between atoms: C3_4  and  N2_5 
REMARK    3  A    between atoms: N2_5  and  C4_6 
REMARK       I    between atoms: N2_5  and  C11_14 
REMARK    4  A    between atoms: C4_6  and  C5_7 
REMARK    5  A    between atoms: C8_10  and  O1_11 
REMARK       I    between atoms: C11_14  and  N3_16 
REMARK    6  A    between atoms: N3_16  and  C12_17 
ROOT
HETATM    1  N1  UNL     1      21.873  -2.010  54.964  1.00  0.00    -0.197 NA
HETATM    2  C1  UNL     1      21.741  -1.170  54.179  1.00  0.00     0.060 C 
HETATM    3  C2  UNL     1      21.560  -0.132  53.185  1.00  0.00     0.144 C 
ENDROOT
BRANCH   3   4
HETATM    4  C3  UNL     1      22.580   0.958  53.329  1.00  0.00     0.142 C 
BRANCH   4   5
HETATM    5  N2  UNL     1      23.503   1.086  52.252  1.00  0.00    -0.329 N 
HETATM    6  C11 UNL     1      24.852   0.751  52.547  1.00  0.00     0.323 C 
HETATM    7  O2  UNL     1      24.794   0.429  53.772  1.00  0.00    -0.247 OA
HETATM    8  N3  UNL     1      26.060   0.727  51.800  1.00  0.00    -0.309 N 
HETATM    9  H12 UNL     1      25.846   1.029  50.824  1.00  0.00     0.170 HD
BRANCH   5  10
HETATM   10  C4  UNL     1      23.088   1.543  50.925  1.00  0.00     0.166 C 
BRANCH  10  11
HETATM   11  C5  UNL     1      23.670   2.894  50.736  1.00  0.00    -0.040 A 
HETATM   12  C6  UNL     1      23.192   3.893  51.577  1.00  0.00     0.011 A 
HETATM   13  C7  UNL     1      23.649   5.192  51.507  1.00  0.00     0.037 A 
HETATM   14  C8  UNL     1      24.618   5.558  50.577  1.00  0.00     0.065 A 
HETATM   15  C9  UNL     1      25.098   4.574  49.738  1.00  0.00     0.037 A 
HETATM   16  C10 UNL     1      24.628   3.283  49.826  1.00  0.00     0.011 A 
BRANCH  14  17
HETATM   17  O1  UNL     1      25.113   6.849  50.463  1.00  0.00    -0.361 OA
HETATM   18  H9  UNL     1      24.823   7.427  49.667  1.00  0.00     0.217 HD
ENDBRANCH  14  17
ENDBRANCH  10  11
ENDBRANCH   5  10
BRANCH   8  19
HETATM   19  C12 UNL     1      27.210   0.314  52.525  1.00  0.00     0.036 A 
HETATM   20  C13 UNL     1      27.514  -1.027  52.643  1.00  0.00     0.029 A 
HETATM   21  C14 UNL     1      28.654  -1.323  53.369  1.00  0.00     0.002 A 
HETATM   22  C15 UNL     1      29.472  -0.370  53.959  1.00  0.00     0.000 A 
HETATM   23  C16 UNL     1      29.131   0.976  53.815  1.00  0.00     0.002 A 
HETATM   24  C17 UNL     1      27.988   1.307  53.090  1.00  0.00     0.029 A 
ENDBRANCH   8  19
ENDBRANCH   4   5
ENDBRANCH   3   4
TORSDOF 6
ENDMDL
MODEL 2
REMARK VINA RESULT:      -7.1      2.400      7.119
REMARK  6 active torsions:
REMARK  status: ('A' for Active; 'I' for Inactive)
REMARK    1  A    between atoms: C2_3  and  C3_4 
REMARK    2  A    between atoms: C3_4  and  N2_5 
REMARK    3  A    between atoms: N2_5  and  C4_6 
REMARK       I    between atoms: N2_5  and  C11_14 
REMARK    4  A    between atoms: C4_6  and  C5_7 
REMARK    5  A    between atoms: C8_10  and  O1_11 
REMARK       I    between atoms: C11_14  and  N3_16 
REMARK    6  A    between atoms: N3_16  and  C12_17 
ROOT
HETATM    1  N1  UNL     1      28.173   4.810  48.512  1.00  0.00    -0.197 NA
HETATM    2  C1  UNL     1      27.254   4.472  49.128  1.00  0.00     0.060 C 
HETATM    3  C2  UNL     1      26.096   4.074  49.902  1.00  0.00     0.144 C 
ENDROOT
BRANCH   3   4
HETATM    4  C3  UNL     1      26.125   2.611  50.229  1.00  0.00     0.142 C 
BRANCH   4   5
HETATM    5  N2  UNL     1      25.692   2.263  51.541  1.00  0.00    -0.329 N 
HETATM    6  C11 UNL     1      24.301   2.022  51.694  1.00  0.00     0.323 C 
HETATM    7  O2  UNL     1      23.858   2.218  50.521  1.00  0.00    -0.247 OA
HETATM    8  N3  UNL     1      23.465   1.655  52.782  1.00  0.00    -0.309 N 
HETATM    9  H12 UNL     1      24.063   1.551  53.632  1.00  0.00     0.170 HD
BRANCH   5  10
HETATM   10  C4  UNL     1      26.625   2.168  52.666  1.00  0.00     0.166 C 
BRANCH  10  11
HETATM   11  C5  UNL     1      27.058   0.751  52.744  1.00  0.00    -0.040 A 
HETATM   12  C6  UNL     1      28.291   0.517  53.341  1.00  0.00     0.011 A 
HETATM   13  C7  UNL     1      28.811  -0.754  53.479  1.00  0.00     0.037 A 
HETATM   14  C8  UNL     1      28.109  -1.864  53.017  1.00  0.00     0.065 A 
HETATM   15  C9  UNL     1      26.885  -1.641  52.424  1.00  0.00     0.037 A 
HETATM   16  C10 UNL     1      26.385  -0.364  52.298  1.00  0.00     0.011 A 
BRANCH  14  17
HETATM   17  O1  UNL     1      28.584  -3.162  53.129  1.00  0.00    -0.361 OA
HETATM   18  H9  UNL     1      29.429  -3.433  52.614  1.00  0.00     0.217 HD
ENDBRANCH  14  17
ENDBRANCH  10  11
ENDBRANCH   5  10
BRANCH   8  19
HETATM   19  C12 UNL     1      22.087   1.523  52.466  1.00  0.00     0.036 A 
HETATM   20  C13 UNL     1      21.552   0.281  52.192  1.00  0.00     0.029 A 
HETATM   21  C14 UNL     1      20.200   0.260  51.896  1.00  0.00     0.002 A 
HETATM   22  C15 UNL     1      19.392   1.388  51.865  1.00  0.00     0.000 A 
HETATM   23  C16 UNL     1      19.970   2.626  52.149  1.00  0.00     0.002 A 
HETATM   24  C17 UNL     1      21.330   2.679  52.451  1.00  0.00     0.029 A 
ENDBRANCH   8  19
ENDBRANCH   4   5
ENDBRANCH   3   4
TORSDOF 6
ENDMDL
MODEL 3
REMARK VINA RESULT:      -7.1      3.290      5.408
REMARK  6 active torsions:
REMARK  status: ('A' for Active; 'I' for Inactive)
REMARK    1  A    between atoms: C2_3  and  C3_4 
REMARK    2  A    between atoms: C3_4  and  N2_5 
REMARK    3  A    between atoms: N2_5  and  C4_6 
REMARK       I    between atoms: N2_5  and  C11_14 
REMARK    4  A    between atoms: C4_6  and  C5_7 
REMARK    5  A    between atoms: C8_10  and  O1_11 
REMARK       I    between atoms: C11_14  and  N3_16 
REMARK    6  A    between atoms: N3_16  and  C12_17 
ROOT
HETATM    1  N1  UNL     1      22.531   8.188  50.073  1.00  0.00    -0.197 NA
HETATM    2  C1  UNL     1      22.055   7.199  50.439  1.00  0.00     0.060 C 
HETATM    3  C2  UNL     1      21.436   5.970  50.892  1.00  0.00     0.144 C 
ENDROOT
BRANCH   3   4
HETATM    4  C3  UNL     1      22.440   5.033  51.493  1.00  0.00     0.142 C 
BRANCH   4   5
HETATM    5  N2  UNL     1      22.629   3.803  50.799  1.00  0.00    -0.329 N 
HETATM    6  C11 UNL     1      22.461   2.622  51.569  1.00  0.00     0.323 C 
HETATM    7  O2  UNL     1      22.181   3.081  52.718  1.00  0.00    -0.247 OA
HETATM    8  N3  UNL     1      22.543   1.231  51.294  1.00  0.00    -0.309 N 
HETATM    9  H12 UNL     1      22.782   1.112  50.285  1.00  0.00     0.170 HD
BRANCH   5  10
HETATM   10  C4  UNL     1      22.985   3.761  49.379  1.00  0.00     0.166 C 
BRANCH  10  11
HETATM   11  C5  UNL     1      24.399   4.197  49.279  1.00  0.00    -0.040 A 
HETATM   12  C6  UNL     1      25.361   3.238  49.576  1.00  0.00     0.011 A 
HETATM   13  C7  UNL     1      26.712   3.513  49.521  1.00  0.00     0.037 A 
HETATM   14  C8  UNL     1      27.168   4.778  49.163  1.00  0.00     0.065 A 
HETATM   15  C9  UNL     1      26.221   5.736  48.867  1.00  0.00     0.037 A 
HETATM   16  C10 UNL     1      24.878   5.440  48.927  1.00  0.00     0.011 A 
BRANCH  14  17
HETATM   17  O1  UNL     1      28.514   5.108  49.092  1.00  0.00    -0.361 OA
HETATM   18  H9  UNL     1      29.213   4.432  49.416  1.00  0.00     0.217 HD
ENDBRANCH  14  17
ENDBRANCH  10  11
ENDBRANCH   5  10
BRANCH   8  19
HETATM   19  C12 UNL     1      22.291   0.380  52.403  1.00  0.00     0.036 A 
HETATM   20  C13 UNL     1      20.999   0.019  52.723  1.00  0.00     0.029 A 
HETATM   21  C14 UNL     1      20.861  -0.812  53.822  1.00  0.00     0.002 A 
HETATM   22  C15 UNL     1      21.923  -1.280  54.583  1.00  0.00     0.000 A 
HETATM   23  C16 UNL     1      23.216  -0.893  54.226  1.00  0.00     0.002 A 
HETATM   24  C17 UNL     1      23.387  -0.055  53.125  1.00  0.00     0.029 A 
ENDBRANCH   8  19
ENDBRANCH   4   5
ENDBRANCH   3   4
TORSDOF 6
ENDMDL
MODEL 4
REMARK VINA RESULT:      -7.1      2.811      3.680
REMARK  6 active torsions:
REMARK  status: ('A' for Active; 'I' for Inactive)
REMARK    1  A    between atoms: C2_3  and  C3_4 
REMARK    2  A    between atoms: C3_4  and  N2_5 
REMARK    3  A    between atoms: N2_5  and  C4_6 
REMARK       I    between atoms: N2_5  and  C11_14 
REMARK    4  A    between atoms: C4_6  and  C5_7 
REMARK    5  A    between atoms: C8_10  and  O1_11 
REMARK       I    between atoms: C11_14  and  N3_16 
REMARK    6  A    between atoms: N3_16  and  C12_17 
ROOT
HETATM    1  N1  UNL     1      21.574   6.695  50.992  1.00  0.00    -0.197 NA
HETATM    2  C1  UNL     1      21.883   5.586  51.108  1.00  0.00     0.060 C 
HETATM    3  C2  UNL     1      22.247   4.191  51.248  1.00  0.00     0.144 C 
ENDROOT
BRANCH   3   4
HETATM    4  C3  UNL     1      23.593   4.030  51.888  1.00  0.00     0.142 C 
BRANCH   4   5
HETATM    5  N2  UNL     1      24.569   3.344  51.110  1.00  0.00    -0.329 N 
HETATM    6  C11 UNL     1      25.549   2.620  51.840  1.00  0.00     0.323 C 
HETATM    7  O2  UNL     1      25.217   2.844  53.043  1.00  0.00    -0.247 OA
HETATM    8  N3  UNL     1      26.664   1.815  51.486  1.00  0.00    -0.309 N 
HETATM    9  H12 UNL     1      26.726   1.782  50.444  1.00  0.00     0.170 HD
BRANCH   5  10
HETATM   10  C4  UNL     1      24.566   3.389  49.647  1.00  0.00     0.166 C 
BRANCH  10  11
HETATM   11  C5  UNL     1      25.598   4.375  49.246  1.00  0.00    -0.040 A 
HETATM   12  C6  UNL     1      25.161   5.683  49.068  1.00  0.00     0.011 A 
HETATM   13  C7  UNL     1      26.018   6.699  48.697  1.00  0.00     0.037 A 
HETATM   14  C8  UNL     1      27.370   6.447  48.482  1.00  0.00     0.065 A 
HETATM   15  C9  UNL     1      27.812   5.153  48.657  1.00  0.00     0.037 A 
HETATM   16  C10 UNL     1      26.939   4.155  49.028  1.00  0.00     0.011 A 
BRANCH  14  17
HETATM   17  O1  UNL     1      28.276   7.429  48.107  1.00  0.00    -0.361 OA
HETATM   18  H9  UNL     1      29.205   7.445  48.539  1.00  0.00     0.217 HD
ENDBRANCH  14  17
ENDBRANCH  10  11
ENDBRANCH   5  10
BRANCH   8  19
HETATM   19  C12 UNL     1      27.390   1.273  52.580  1.00  0.00     0.036 A 
HETATM   20  C13 UNL     1      27.168  -0.026  52.987  1.00  0.00     0.029 A 
HETATM   21  C14 UNL     1      27.925  -0.458  54.063  1.00  0.00     0.002 A 
HETATM   22  C15 UNL     1      28.861   0.328  54.721  1.00  0.00     0.000 A 
HETATM   23  C16 UNL     1      29.057   1.637  54.278  1.00  0.00     0.002 A 
HETATM   24  C17 UNL     1      28.309   2.101  53.198  1.00  0.00     0.029 A 
ENDBRANCH   8  19
ENDBRANCH   4   5
ENDBRANCH   3   4
TORSDOF 6
ENDMDL
MODEL 5
REMARK VINA RESULT:      -7.0      2.370      4.981
REMARK  6 active torsions:
REMARK  status: ('A' for Active; 'I' for Inactive)
REMARK    1  A    between atoms: C2_3  and  C3_4 
REMARK    2  A    between atoms: C3_4  and  N2_5 
REMARK    3  A    between atoms: N2_5  and  C4_6 
REMARK       I    between atoms: N2_5  and  C11_14 
REMARK    4  A    between atoms: C4_6  and  C5_7 
REMARK    5  A    between atoms: C8_10  and  O1_11 
REMARK       I    between atoms: C11_14  and  N3_16 
REMARK    6  A    between atoms: N3_16  and  C12_17 
ROOT
HETATM    1  N1  UNL     1      19.628   4.355  51.084  1.00  0.00    -0.197 NA
HETATM    2  C1  UNL     1      20.767   4.249  51.259  1.00  0.00     0.060 C 
HETATM    3  C2  UNL     1      22.198   4.131  51.458  1.00  0.00     0.144 C 
ENDROOT
BRANCH   3   4
HETATM    4  C3  UNL     1      22.529   3.117  52.511  1.00  0.00     0.142 C 
BRANCH   4   5
HETATM    5  N2  UNL     1      23.195   1.945  52.050  1.00  0.00    -0.329 N 
HETATM    6  C11 UNL     1      24.514   1.746  52.540  1.00  0.00     0.323 C 
HETATM    7  O2  UNL     1      24.687   2.761  53.280  1.00  0.00    -0.247 OA
HETATM    8  N3  UNL     1      25.507   0.747  52.356  1.00  0.00    -0.309 N 
HETATM    9  H12 UNL     1      25.124   0.022  51.710  1.00  0.00     0.170 HD
BRANCH   5  10
HETATM   10  C4  UNL     1      22.562   1.006  51.122  1.00  0.00     0.166 C 
BRANCH  10  11
HETATM   11  C5  UNL     1      21.361   0.471  51.808  1.00  0.00    -0.040 A 
HETATM   12  C6  UNL     1      21.590  -0.262  52.967  1.00  0.00     0.011 A 
HETATM   13  C7  UNL     1      20.562  -0.815  53.702  1.00  0.00     0.037 A 
HETATM   14  C8  UNL     1      19.237  -0.659  53.303  1.00  0.00     0.065 A 
HETATM   15  C9  UNL     1      19.000   0.066  52.154  1.00  0.00     0.037 A 
HETATM   16  C10 UNL     1      20.042   0.609  51.437  1.00  0.00     0.011 A 
BRANCH  14  17
HETATM   17  O1  UNL     1      18.165  -1.193  54.002  1.00  0.00    -0.361 OA
HETATM   18  H9  UNL     1      17.273  -1.336  53.519  1.00  0.00     0.217 HD
ENDBRANCH  14  17
ENDBRANCH  10  11
ENDBRANCH   5  10
BRANCH   8  19
HETATM   19  C12 UNL     1      26.719   0.964  53.063  1.00  0.00     0.036 A 
HETATM   20  C13 UNL     1      27.524   2.040  52.751  1.00  0.00     0.029 A 
HETATM   21  C14 UNL     1      28.683   2.162  53.498  1.00  0.00     0.002 A 
HETATM   22  C15 UNL     1      29.055   1.284  54.506  1.00  0.00     0.000 A 
HETATM   23  C16 UNL     1      28.214   0.208  54.793  1.00  0.00     0.002 A 
HETATM   24  C17 UNL     1      27.039   0.058  54.057  1.00  0.00     0.029 A 
ENDBRANCH   8  19
ENDBRANCH   4   5
ENDBRANCH   3   4
TORSDOF 6
ENDMDL
MODEL 6
REMARK VINA RESULT:      -7.0      3.275      5.557
REMARK  6 active torsions:
REMARK  status: ('A' for Active; 'I' for Inactive)
REMARK    1  A    between atoms: C2_3  and  C3_4 
REMARK    2  A    between atoms: C3_4  and  N2_5 
REMARK    3  A    between atoms: N2_5  and  C4_6 
REMARK       I    between atoms: N2_5  and  C11_14 
REMARK    4  A    between atoms: C4_6  and  C5_7 
REMARK    5  A    between atoms: C8_10  and  O1_11 
REMARK       I    between atoms: C11_14  and  N3_16 
REMARK    6  A    between atoms: N3_16  and  C12_17 
ROOT
HETATM    1  N1  UNL     1      21.905   3.585  44.910  1.00  0.00    -0.197 NA
HETATM    2  C1  UNL     1      21.880   3.851  46.035  1.00  0.00     0.060 C 
HETATM    3  C2  UNL     1      21.841   4.207  47.439  1.00  0.00     0.144 C 
ENDROOT
BRANCH   3   4
HETATM    4  C3  UNL     1      22.483   3.157  48.295  1.00  0.00     0.142 C 
BRANCH   4   5
HETATM    5  N2  UNL     1      22.935   3.594  49.574  1.00  0.00    -0.329 N 
HETATM    6  C11 UNL     1      22.822   2.650  50.629  1.00  0.00     0.323 C 
HETATM    7  O2  UNL     1      22.307   1.648  50.047  1.00  0.00    -0.247 OA
HETATM    8  N3  UNL     1      23.144   2.657  52.013  1.00  0.00    -0.309 N 
HETATM    9  H12 UNL     1      23.555   3.587  52.248  1.00  0.00     0.170 HD
BRANCH   5  10
HETATM   10  C4  UNL     1      23.475   4.938  49.788  1.00  0.00     0.166 C 
BRANCH  10  11
HETATM   11  C5  UNL     1      24.914   4.882  49.433  1.00  0.00    -0.040 A 
HETATM   12  C6  UNL     1      25.462   6.044  48.901  1.00  0.00     0.011 A 
HETATM   13  C7  UNL     1      26.788   6.126  48.530  1.00  0.00     0.037 A 
HETATM   14  C8  UNL     1      27.639   5.034  48.676  1.00  0.00     0.065 A 
HETATM   15  C9  UNL     1      27.104   3.877  49.202  1.00  0.00     0.037 A 
HETATM   16  C10 UNL     1      25.777   3.817  49.567  1.00  0.00     0.011 A 
BRANCH  14  17
HETATM   17  O1  UNL     1      28.979   5.062  48.318  1.00  0.00    -0.361 OA
HETATM   18  H9  UNL     1      29.502   4.181  48.267  1.00  0.00     0.217 HD
ENDBRANCH  14  17
ENDBRANCH  10  11
ENDBRANCH   5  10
BRANCH   8  19
HETATM   19  C12 UNL     1      22.847   1.454  52.707  1.00  0.00     0.036 A 
HETATM   20  C13 UNL     1      21.549   1.162  53.069  1.00  0.00     0.029 A 
HETATM   21  C14 UNL     1      21.366  -0.034  53.743  1.00  0.00     0.002 A 
HETATM   22  C15 UNL     1      22.391  -0.915  54.057  1.00  0.00     0.000 A 
HETATM   23  C16 UNL     1      23.691  -0.584  53.672  1.00  0.00     0.002 A 
HETATM   24  C17 UNL     1      23.907   0.613  52.993  1.00  0.00     0.029 A 
ENDBRANCH   8  19
ENDBRANCH   4   5
ENDBRANCH   3   4
TORSDOF 6
ENDMDL
MODEL 7
REMARK VINA RESULT:      -6.9      2.259      4.637
REMARK  6 active torsions:
REMARK  status: ('A' for Active; 'I' for Inactive)
REMARK    1  A    between atoms: C2_3  and  C3_4 
REMARK    2  A    between atoms: C3_4  and  N2_5 
REMARK    3  A    between atoms: N2_5  and  C4_6 
REMARK       I    between atoms: N2_5  and  C11_14 
REMARK    4  A    between atoms: C4_6  and  C5_7 
REMARK    5  A    between atoms: C8_10  and  O1_11 
REMARK       I    between atoms: C11_14  and  N3_16 
REMARK    6  A    between atoms: N3_16  and  C12_17 
ROOT
HETATM    1  N1  UNL     1      22.910   4.459  48.172  1.00  0.00    -0.197 NA
HETATM    2  C1  UNL     1      23.660   4.474  49.053  1.00  0.00     0.060 C 
HETATM    3  C2  UNL     1      24.598   4.516  50.157  1.00  0.00     0.144 C 
ENDROOT
BRANCH   3   4
HETATM    4  C3  UNL     1      25.179   3.164  50.442  1.00  0.00     0.142 C 
BRANCH   4   5
HETATM    5  N2  UNL     1      25.096   2.730  51.797  1.00  0.00    -0.329 N 
HETATM    6  C11 UNL     1      26.119   1.845  52.230  1.00  0.00     0.323 C 
HETATM    7  O2  UNL     1      26.827   1.712  51.186  1.00  0.00    -0.247 OA
HETATM    8  N3  UNL     1      26.421   1.193  53.455  1.00  0.00    -0.309 N 
HETATM    9  H12 UNL     1      25.697   1.464  54.156  1.00  0.00     0.170 HD
BRANCH   5  10
HETATM   10  C4  UNL     1      24.015   3.163  52.685  1.00  0.00     0.166 C 
BRANCH  10  11
HETATM   11  C5  UNL     1      22.871   2.252  52.443  1.00  0.00    -0.040 A 
HETATM   12  C6  UNL     1      21.731   2.828  51.895  1.00  0.00     0.011 A 
HETATM   13  C7  UNL     1      20.597   2.092  51.620  1.00  0.00     0.037 A 
HETATM   14  C8  UNL     1      20.551   0.727  51.886  1.00  0.00     0.065 A 
HETATM   15  C9  UNL     1      21.677   0.147  52.431  1.00  0.00     0.037 A 
HETATM   16  C10 UNL     1      22.798   0.900  52.697  1.00  0.00     0.011 A 
BRANCH  14  17
HETATM   17  O1  UNL     1      19.437  -0.060  51.631  1.00  0.00    -0.361 OA
HETATM   18  H9  UNL     1      19.502  -0.809  50.934  1.00  0.00     0.217 HD
ENDBRANCH  14  17
ENDBRANCH  10  11
ENDBRANCH   5  10
BRANCH   8  19
HETATM   19  C12 UNL     1      27.580   0.372  53.432  1.00  0.00     0.036 A 
HETATM   20  C13 UNL     1      28.822   0.913  53.694  1.00  0.00     0.029 A 
HETATM   21  C14 UNL     1      29.886   0.029  53.646  1.00  0.00     0.002 A 
HETATM   22  C15 UNL     1      29.763  -1.323  53.358  1.00  0.00     0.000 A 
HETATM   23  C16 UNL     1      28.490  -1.833  53.100  1.00  0.00     0.002 A 
HETATM   24  C17 UNL     1      27.398  -0.967  53.140  1.00  0.00     0.029 A 
ENDBRANCH   8  19
ENDBRANCH   4   5
ENDBRANCH   3   4
TORSDOF 6
ENDMDL
MODEL 8
REMARK VINA RESULT:      -6.9      2.806      5.902
REMARK  6 active torsions:
REMARK  status: ('A' for Active; 'I' for Inactive)
REMARK    1  A    between atoms: C2_3  and  C3_4 
REMARK    2  A    between atoms: C3_4  and  N2_5 
REMARK    3  A    between atoms: N2_5  and  C4_6 
REMARK       I    between atoms: N2_5  and  C11_14 
REMARK    4  A    between atoms: C4_6  and  C5_7 
REMARK    5  A    between atoms: C8_10  and  O1_11 
REMARK       I    between atoms: C11_14  and  N3_16 
REMARK    6  A    between atoms: N3_16  and  C12_17 
ROOT
HETATM    1  N1  UNL     1      19.073   2.892  48.471  1.00  0.00    -0.197 NA
HETATM    2  C1  UNL     1      19.833   2.318  49.128  1.00  0.00     0.060 C 
HETATM    3  C2  UNL     1      20.766   1.591  49.965  1.00  0.00     0.144 C 
ENDROOT
BRANCH   3   4
HETATM    4  C3  UNL     1      22.188   1.937  49.640  1.00  0.00     0.142 C 
BRANCH   4   5
HETATM    5  N2  UNL     1      22.879   2.697  50.628  1.00  0.00    -0.329 N 
HETATM    6  C11 UNL     1      23.960   3.489  50.159  1.00  0.00     0.323 C 
HETATM    7  O2  UNL     1      23.966   3.238  48.916  1.00  0.00    -0.247 OA
HETATM    8  N3  UNL     1      24.887   4.376  50.770  1.00  0.00    -0.309 N 
HETATM    9  H12 UNL     1      24.675   4.415  51.792  1.00  0.00     0.170 HD
BRANCH   5  10
HETATM   10  C4  UNL     1      22.502   2.655  52.042  1.00  0.00     0.166 C 
BRANCH  10  11
HETATM   11  C5  UNL     1      23.418   1.693  52.702  1.00  0.00    -0.040 A 
HETATM   12  C6  UNL     1      22.905   0.425  52.946  1.00  0.00     0.011 A 
HETATM   13  C7  UNL     1      23.651  -0.565  53.553  1.00  0.00     0.037 A 
HETATM   14  C8  UNL     1      24.964  -0.325  53.949  1.00  0.00     0.065 A 
HETATM   15  C9  UNL     1      25.481   0.931  53.710  1.00  0.00     0.037 A 
HETATM   16  C10 UNL     1      24.719   1.903  53.103  1.00  0.00     0.011 A 
BRANCH  14  17
HETATM   17  O1  UNL     1      25.758  -1.282  54.563  1.00  0.00    -0.361 OA
HETATM   18  H9  UNL     1      26.167  -2.033  53.996  1.00  0.00     0.217 HD
ENDBRANCH  14  17
ENDBRANCH  10  11
ENDBRANCH   5  10
BRANCH   8  19
HETATM   19  C12 UNL     1      25.829   4.967  49.887  1.00  0.00     0.036 A 
HETATM   20  C13 UNL     1      26.904   4.235  49.425  1.00  0.00     0.029 A 
HETATM   21  C14 UNL     1      27.764   4.903  48.570  1.00  0.00     0.002 A 
HETATM   22  C15 UNL     1      27.599   6.223  48.175  1.00  0.00     0.000 A 
HETATM   23  C16 UNL     1      26.498   6.929  48.663  1.00  0.00     0.002 A 
HETATM   24  C17 UNL     1      25.614   6.284  49.526  1.00  0.00     0.029 A 
ENDBRANCH   8  19
ENDBRANCH   4   5
ENDBRANCH   3   4
TORSDOF 6
ENDMDL
MODEL 9
REMARK VINA RESULT:      -6.8      2.754      4.728
REMARK  6 active torsions:
REMARK  status: ('A' for Active; 'I' for Inactive)
REMARK    1  A    between atoms: C2_3  and  C3_4 
REMARK    2  A    between atoms: C3_4  and  N2_5 
REMARK    3  A    between atoms: N2_5  and  C4_6 
REMARK       I    between atoms: N2_5  and  C11_14 
REMARK    4  A    between atoms: C4_6  and  C5_7 
REMARK    5  A    between atoms: C8_10  and  O1_11 
REMARK       I    between atoms: C11_14  and  N3_16 
REMARK    6  A    between atoms: N3_16  and  C12_17 
ROOT
HETATM    1  N1  UNL     1      22.485   8.311  50.117  1.00  0.00    -0.197 NA
HETATM    2  C1  UNL     1      22.337   7.262  50.582  1.00  0.00     0.060 C 
HETATM    3  C2  UNL     1      22.127   5.951  51.162  1.00  0.00     0.144 C 
ENDROOT
BRANCH   3   4
HETATM    4  C3  UNL     1      23.413   5.340  51.631  1.00  0.00     0.142 C 
BRANCH   4   5
HETATM    5  N2  UNL     1      23.837   4.176  50.927  1.00  0.00    -0.329 N 
HETATM    6  C11 UNL     1      24.177   3.054  51.728  1.00  0.00     0.323 C 
HETATM    7  O2  UNL     1      23.987   3.488  52.904  1.00  0.00    -0.247 OA
HETATM    8  N3  UNL     1      24.626   1.734  51.457  1.00  0.00    -0.309 N 
HETATM    9  H12 UNL     1      24.701   1.620  50.422  1.00  0.00     0.170 HD
BRANCH   5  10
HETATM   10  C4  UNL     1      23.923   4.143  49.466  1.00  0.00     0.166 C 
BRANCH  10  11
HETATM   11  C5  UNL     1      25.161   4.870  49.093  1.00  0.00    -0.040 A 
HETATM   12  C6  UNL     1      26.346   4.147  49.169  1.00  0.00     0.011 A 
HETATM   13  C7  UNL     1      27.567   4.704  48.850  1.00  0.00     0.037 A 
HETATM   14  C8  UNL     1      27.659   6.029  48.435  1.00  0.00     0.065 A 
HETATM   15  C9  UNL     1      26.489   6.755  48.358  1.00  0.00     0.037 A 
HETATM   16  C10 UNL     1      25.281   6.178  48.681  1.00  0.00     0.011 A 
BRANCH  14  17
HETATM   17  O1  UNL     1      28.860   6.640  48.104  1.00  0.00    -0.361 OA
HETATM   18  H9  UNL     1      28.901   7.252  47.282  1.00  0.00     0.217 HD
ENDBRANCH  14  17
ENDBRANCH  10  11
ENDBRANCH   5  10
BRANCH   8  19
HETATM   19  C12 UNL     1      24.850   0.925  52.603  1.00  0.00     0.036 A 
HETATM   20  C13 UNL     1      23.834   0.143  53.113  1.00  0.00     0.029 A 
HETATM   21  C14 UNL     1      24.155  -0.607  54.232  1.00  0.00     0.002 A 
HETATM   22  C15 UNL     1      25.403  -0.606  54.837  1.00  0.00     0.000 A 
HETATM   23  C16 UNL     1      26.405   0.197  54.291  1.00  0.00     0.002 A 
HETATM   24  C17 UNL     1      26.113   0.964  53.164  1.00  0.00     0.029 A 
ENDBRANCH   8  19
ENDBRANCH   4   5
ENDBRANCH   3   4
TORSDOF 6
ENDMDL
