MODEL 1
REMARK VINA RESULT:      -8.1      0.000      0.000
REMARK  5 active torsions:
REMARK  status: ('A' for Active; 'I' for Inactive)
REMARK    1  A    between atoms: C6_6  and  N1_7 
REMARK    2  A    between atoms: N1_7  and  C7_8 
REMARK    3  A    between atoms: C7_8  and  C8_9 
REMARK    4  A    between atoms: C8_9  and  N2_10 
REMARK    5  A    between atoms: C13_15  and  C14_16 
ROOT
HETATM    1  C1  UNL     1      26.771  -2.206  52.344  1.00  0.00     0.030 C 
HETATM    2  C2  UNL     1      26.362  -0.770  52.720  1.00  0.00     0.019 A 
HETATM    3  C3  UNL     1      27.522  -0.079  52.876  1.00  0.00     0.012 C 
HETATM    4  C4  UNL     1      28.144   1.256  53.202  1.00  0.00     0.009 C 
HETATM    5  C5  UNL     1      26.961   2.215  53.307  1.00  0.00     0.036 C 
HETATM    6  C6  UNL     1      26.268   2.343  51.985  1.00  0.00     0.224 C 
HETATM    7  C11 UNL     1      24.799   2.568  52.102  1.00  0.00     0.064 C 
HETATM    8  C12 UNL     1      24.160   1.443  52.768  1.00  0.00    -0.004 C 
HETATM    9  C13 UNL     1      23.982   0.255  53.369  1.00  0.00     0.007 C 
HETATM   10  N3  UNL     1      25.429   0.274  53.018  1.00  0.00    -0.284 NA
HETATM   11  H25 UNL     1      25.121  -0.714  53.020  1.00  0.00     0.155 HD
ENDROOT
BRANCH   6  12
HETATM   12  N1  UNL     1      26.911   3.258  51.129  1.00  0.00     0.090 N 
HETATM   13  H10 UNL     1      26.853   4.238  51.483  1.00  0.00     0.316 HD
BRANCH  12  14
HETATM   14  C7  UNL     1      26.484   3.238  49.768  1.00  0.00     0.300 C 
BRANCH  14  15
HETATM   15  C8  UNL     1      26.413   4.669  49.205  1.00  0.00     0.301 C 
BRANCH  15  16
HETATM   16  N2  UNL     1      25.461   5.454  49.967  1.00  0.00     0.081 N 
HETATM   17  C9  UNL     1      24.127   5.253  49.439  1.00  0.00     0.309 C 
HETATM   18  C10 UNL     1      25.817   6.851  49.835  1.00  0.00     0.309 C 
ENDBRANCH  15  16
ENDBRANCH  14  15
ENDBRANCH  12  14
ENDBRANCH   6  12
BRANCH   9  19
HETATM   19  C14 UNL     1      22.758  -0.635  54.045  1.00  0.00     0.100 A 
HETATM   20  C15 UNL     1      21.368  -0.549  53.272  1.00  0.00     0.056 A 
HETATM   21  C16 UNL     1      22.001  -0.919  54.091  1.00  0.00    -0.036 A 
HETATM   22  C17 UNL     1      22.507  -1.200  54.724  1.00  0.00     0.019 A 
HETATM   23  C18 UNL     1      23.144  -1.532  55.491  1.00  0.00     0.179 A 
HETATM   24  O1  UNL     1      24.309  -1.294  55.703  1.00  0.00    -0.291 OA
ENDBRANCH   9  19
TORSDOF 5
ENDMDL
MODEL 2
REMARK VINA RESULT:      -7.8      1.840      4.304
REMARK  5 active torsions:
REMARK  status: ('A' for Active; 'I' for Inactive)
REMARK    1  A    between atoms: C6_6  and  N1_7 
REMARK    2  A    between atoms: N1_7  and  C7_8 
REMARK    3  A    between atoms: C7_8  and  C8_9 
REMARK    4  A    between atoms: C8_9  and  N2_10 
REMARK    5  A    between atoms: C13_15  and  C14_16 
ROOT
HETATM    1  C1  UNL     1      24.906  -1.148  55.599  1.00  0.00     0.030 C 
HETATM    2  C2  UNL     1      25.266  -0.379  54.314  1.00  0.00     0.019 A 
HETATM    3  C3  UNL     1      24.085  -0.084  53.711  1.00  0.00     0.012 C 
HETATM    4  C4  UNL     1      23.418   0.580  52.531  1.00  0.00     0.009 C 
HETATM    5  C5  UNL     1      24.560   1.259  51.779  1.00  0.00     0.036 C 
HETATM    6  C6  UNL     1      25.179   2.334  52.619  1.00  0.00     0.224 C 
HETATM    7  C11 UNL     1      26.641   2.508  52.380  1.00  0.00     0.064 C 
HETATM    8  C12 UNL     1      27.363   1.290  52.713  1.00  0.00    -0.004 C 
HETATM    9  C13 UNL     1      27.625   0.042  53.135  1.00  0.00     0.007 C 
HETATM   10  N3  UNL     1      26.164   0.206  53.365  1.00  0.00    -0.284 NA
HETATM   11  H25 UNL     1      26.517  -0.469  54.067  1.00  0.00     0.155 HD
ENDROOT
BRANCH   6  12
HETATM   12  N1  UNL     1      24.453   3.539  52.570  1.00  0.00     0.090 N 
HETATM   13  H10 UNL     1      23.589   3.503  53.155  1.00  0.00     0.316 HD
BRANCH  12  14
HETATM   14  C7  UNL     1      24.101   3.998  51.266  1.00  0.00     0.300 C 
BRANCH  14  15
HETATM   15  C8  UNL     1      24.127   5.536  51.211  1.00  0.00     0.301 C 
BRANCH  15  16
HETATM   16  N2  UNL     1      24.840   5.977  50.028  1.00  0.00     0.081 N 
HETATM   17  C9  UNL     1      25.811   4.975  49.640  1.00  0.00     0.309 C 
HETATM   18  C10 UNL     1      25.532   7.208  50.349  1.00  0.00     0.309 C 
ENDBRANCH  15  16
ENDBRANCH  14  15
ENDBRANCH  12  14
ENDBRANCH   6  12
BRANCH   9  19
HETATM   19  C14 UNL     1      28.921  -0.979  53.295  1.00  0.00     0.100 A 
HETATM   20  C15 UNL     1      30.296  -0.257  53.650  1.00  0.00     0.056 A 
HETATM   21  C16 UNL     1      29.700  -1.155  53.434  1.00  0.00    -0.036 A 
HETATM   22  C17 UNL     1      29.221  -1.846  53.265  1.00  0.00     0.019 A 
HETATM   23  C18 UNL     1      28.617  -2.680  53.054  1.00  0.00     0.179 A 
HETATM   24  O1  UNL     1      27.438  -2.752  52.805  1.00  0.00    -0.291 OA
ENDBRANCH   9  19
TORSDOF 5
ENDMDL
MODEL 3
REMARK VINA RESULT:      -7.7      2.975      7.044
REMARK  5 active torsions:
REMARK  status: ('A' for Active; 'I' for Inactive)
REMARK    1  A    between atoms: C6_6  and  N1_7 
REMARK    2  A    between atoms: N1_7  and  C7_8 
REMARK    3  A    between atoms: C7_8  and  C8_9 
REMARK    4  A    between atoms: C8_9  and  N2_10 
REMARK    5  A    between atoms: C13_15  and  C14_16 
ROOT
HETATM    1  C1  UNL     1      22.639   2.626  48.820  1.00  0.00     0.030 C 
HETATM    2  C2  UNL     1      23.671   2.747  49.956  1.00  0.00     0.019 A 
HETATM    3  C3  UNL     1      23.050   2.293  51.076  1.00  0.00     0.012 C 
HETATM    4  C4  UNL     1      23.186   2.021  52.554  1.00  0.00     0.009 C 
HETATM    5  C5  UNL     1      24.655   2.301  52.862  1.00  0.00     0.036 C 
HETATM    6  C6  UNL     1      25.538   1.333  52.136  1.00  0.00     0.224 C 
HETATM    7  C11 UNL     1      26.851   1.913  51.732  1.00  0.00     0.064 C 
HETATM    8  C12 UNL     1      26.659   3.026  50.816  1.00  0.00    -0.004 C 
HETATM    9  C13 UNL     1      26.064   3.931  50.021  1.00  0.00     0.007 C 
HETATM   10  N3  UNL     1      24.942   3.088  50.518  1.00  0.00    -0.284 NA
HETATM   11  H25 UNL     1      24.672   3.452  49.587  1.00  0.00     0.155 HD
ENDROOT
BRANCH   6  12
HETATM   12  N1  UNL     1      25.649   0.100  52.808  1.00  0.00     0.090 N 
HETATM   13  H10 UNL     1      25.116   0.090  53.705  1.00  0.00     0.316 HD
BRANCH  12  14
HETATM   14  C7  UNL     1      26.979  -0.349  53.063  1.00  0.00     0.300 C 
BRANCH  14  15
HETATM   15  C8  UNL     1      27.332  -0.172  54.550  1.00  0.00     0.301 C 
BRANCH  15  16
HETATM   16  N2  UNL     1      28.769  -0.053  54.707  1.00  0.00     0.081 N 
HETATM   17  C9  UNL     1      29.188   1.294  54.376  1.00  0.00     0.309 C 
HETATM   18  C10 UNL     1      29.402  -0.984  53.797  1.00  0.00     0.309 C 
ENDBRANCH  15  16
ENDBRANCH  14  15
ENDBRANCH  12  14
ENDBRANCH   6  12
BRANCH   9  19
HETATM   19  C14 UNL     1      26.479   5.205  49.046  1.00  0.00     0.100 A 
HETATM   20  C15 UNL     1      27.967   5.154  48.481  1.00  0.00     0.056 A 
HETATM   21  C16 UNL     1      26.983   5.632  48.575  1.00  0.00    -0.036 A 
HETATM   22  C17 UNL     1      26.209   5.993  48.658  1.00  0.00     0.019 A 
HETATM   23  C18 UNL     1      25.255   6.418  48.774  1.00  0.00     0.179 A 
HETATM   24  O1  UNL     1      24.296   6.038  49.401  1.00  0.00    -0.291 OA
ENDBRANCH   9  19
TORSDOF 5
ENDMDL
MODEL 4
REMARK VINA RESULT:      -7.6      2.407      5.962
REMARK  5 active torsions:
REMARK  status: ('A' for Active; 'I' for Inactive)
REMARK    1  A    between atoms: C6_6  and  N1_7 
REMARK    2  A    between atoms: N1_7  and  C7_8 
REMARK    3  A    between atoms: C7_8  and  C8_9 
REMARK    4  A    between atoms: C8_9  and  N2_10 
REMARK    5  A    between atoms: C13_15  and  C14_16 
ROOT
HETATM    1  C1  UNL     1      26.600   2.805  50.162  1.00  0.00     0.030 C 
HETATM    2  C2  UNL     1      25.950   2.143  51.391  1.00  0.00     0.019 A 
HETATM    3  C3  UNL     1      24.734   2.733  51.535  1.00  0.00     0.012 C 
HETATM    4  C4  UNL     1      23.461   2.785  52.343  1.00  0.00     0.009 C 
HETATM    5  C5  UNL     1      23.593   1.636  53.340  1.00  0.00     0.036 C 
HETATM    6  C6  UNL     1      23.627   0.321  52.625  1.00  0.00     0.224 C 
HETATM    7  C11 UNL     1      24.469  -0.705  53.305  1.00  0.00     0.064 C 
HETATM    8  C12 UNL     1      25.854  -0.266  53.376  1.00  0.00    -0.004 C 
HETATM    9  C13 UNL     1      26.963   0.477  53.216  1.00  0.00     0.007 C 
HETATM   10  N3  UNL     1      25.905   1.244  52.503  1.00  0.00    -0.284 NA
HETATM   11  H25 UNL     1      26.807   1.454  52.042  1.00  0.00     0.155 HD
ENDROOT
BRANCH   6  12
HETATM   12  N1  UNL     1      22.340  -0.141  52.289  1.00  0.00     0.090 N 
HETATM   13  H10 UNL     1      21.796   0.567  51.747  1.00  0.00     0.316 HD
BRANCH  12  14
HETATM   14  C7  UNL     1      21.539  -0.594  53.379  1.00  0.00     0.300 C 
BRANCH  14  15
HETATM   15  C8  UNL     1      20.187   0.141  53.397  1.00  0.00     0.301 C 
BRANCH  15  16
HETATM   16  N2  UNL     1      19.908   0.696  52.087  1.00  0.00     0.081 N 
HETATM   17  C9  UNL     1      19.637   2.114  52.203  1.00  0.00     0.309 C 
HETATM   18  C10 UNL     1      18.737   0.032  51.554  1.00  0.00     0.309 C 
ENDBRANCH  15  16
ENDBRANCH  14  15
ENDBRANCH  12  14
ENDBRANCH   6  12
BRANCH   9  19
HETATM   19  C14 UNL     1      28.571   0.424  53.612  1.00  0.00     0.100 A 
HETATM   20  C15 UNL     1      29.262  -0.995  53.402  1.00  0.00     0.056 A 
HETATM   21  C16 UNL     1      29.292   0.062  53.699  1.00  0.00    -0.036 A 
HETATM   22  C17 UNL     1      29.298   0.890  53.926  1.00  0.00     0.019 A 
HETATM   23  C18 UNL     1      29.285   1.904  54.201  1.00  0.00     0.179 A 
HETATM   24  O1  UNL     1      28.385   2.708  54.191  1.00  0.00    -0.291 OA
ENDBRANCH   9  19
TORSDOF 5
ENDMDL
MODEL 5
REMARK VINA RESULT:      -7.5      2.073      4.308
REMARK  5 active torsions:
REMARK  status: ('A' for Active; 'I' for Inactive)
REMARK    1  A    between atoms: C6_6  and  N1_7 
REMARK    2  A    between atoms: N1_7  and  C7_8 
REMARK    3  A    between atoms: C7_8  and  C8_9 
REMARK    4  A    between atoms: C8_9  and  N2_10 
REMARK    5  A    between atoms: C13_15  and  C14_16 
ROOT
HETATM    1  C1  UNL     1      22.364  -1.355  54.957  1.00  0.00     0.030 C 
HETATM    2  C2  UNL     1      22.774  -0.447  53.783  1.00  0.00     0.019 A 
HETATM    3  C3  UNL     1      21.653  -0.273  53.035  1.00  0.00     0.012 C 
HETATM    4  C4  UNL     1      21.059   0.382  51.813  1.00  0.00     0.009 C 
HETATM    5  C5  UNL     1      22.178   1.268  51.271  1.00  0.00     0.036 C 
HETATM    6  C6  UNL     1      22.514   2.350  52.250  1.00  0.00     0.224 C 
HETATM    7  C11 UNL     1      23.953   2.742  52.233  1.00  0.00     0.064 C 
HETATM    8  C12 UNL     1      24.796   1.614  52.596  1.00  0.00    -0.004 C 
HETATM    9  C13 UNL     1      25.181   0.385  52.978  1.00  0.00     0.007 C 
HETATM   10  N3  UNL     1      23.694   0.327  53.007  1.00  0.00    -0.284 NA
HETATM   11  H25 UNL     1      24.047  -0.344  53.712  1.00  0.00     0.155 HD
ENDROOT
BRANCH   6  12
HETATM   12  N1  UNL     1      21.631   3.443  52.167  1.00  0.00     0.090 N 
HETATM   13  H10 UNL     1      21.034   3.404  51.311  1.00  0.00     0.316 HD
BRANCH  12  14
HETATM   14  C7  UNL     1      22.233   4.734  52.244  1.00  0.00     0.300 C 
BRANCH  14  15
HETATM   15  C8  UNL     1      21.739   5.629  51.094  1.00  0.00     0.301 C 
BRANCH  15  16
HETATM   16  N2  UNL     1      22.866   6.092  50.308  1.00  0.00     0.081 N 
HETATM   17  C9  UNL     1      23.252   5.072  49.355  1.00  0.00     0.309 C 
HETATM   18  C10 UNL     1      23.973   6.343  51.208  1.00  0.00     0.309 C 
ENDBRANCH  15  16
ENDBRANCH  14  15
ENDBRANCH  12  14
ENDBRANCH   6  12
BRANCH   9  19
HETATM   19  C14 UNL     1      26.581  -0.456  53.263  1.00  0.00     0.100 A 
HETATM   20  C15 UNL     1      26.795  -1.727  52.329  1.00  0.00     0.056 A 
HETATM   21  C16 UNL     1      27.113  -1.053  53.136  1.00  0.00    -0.036 A 
HETATM   22  C17 UNL     1      27.348  -0.518  53.764  1.00  0.00     0.019 A 
HETATM   23  C18 UNL     1      27.617   0.149  54.530  1.00  0.00     0.179 A 
HETATM   24  O1  UNL     1      27.049   1.124  54.958  1.00  0.00    -0.291 OA
ENDBRANCH   9  19
TORSDOF 5
ENDMDL
MODEL 6
REMARK VINA RESULT:      -6.9      2.642      4.833
REMARK  5 active torsions:
REMARK  status: ('A' for Active; 'I' for Inactive)
REMARK    1  A    between atoms: C6_6  and  N1_7 
REMARK    2  A    between atoms: N1_7  and  C7_8 
REMARK    3  A    between atoms: C7_8  and  C8_9 
REMARK    4  A    between atoms: C8_9  and  N2_10 
REMARK    5  A    between atoms: C13_15  and  C14_16 
ROOT
HETATM    1  C1  UNL     1      26.549   3.272  49.537  1.00  0.00     0.030 C 
HETATM    2  C2  UNL     1      25.725   3.069  50.822  1.00  0.00     0.019 A 
HETATM    3  C3  UNL     1      24.939   4.171  50.942  1.00  0.00     0.012 C 
HETATM    4  C4  UNL     1      23.882   4.865  51.764  1.00  0.00     0.009 C 
HETATM    5  C5  UNL     1      23.506   3.850  52.841  1.00  0.00     0.036 C 
HETATM    6  C6  UNL     1      22.882   2.636  52.225  1.00  0.00     0.224 C 
HETATM    7  C11 UNL     1      23.175   1.375  52.965  1.00  0.00     0.064 C 
HETATM    8  C12 UNL     1      24.605   1.111  52.981  1.00  0.00    -0.004 C 
HETATM    9  C13 UNL     1      25.923   1.230  52.749  1.00  0.00     0.007 C 
HETATM   10  N3  UNL     1      25.317   2.363  51.999  1.00  0.00    -0.284 NA
HETATM   11  H25 UNL     1      26.188   2.095  51.509  1.00  0.00     0.155 HD
ENDROOT
BRANCH   6  12
HETATM   12  N1  UNL     1      21.514   2.819  51.944  1.00  0.00     0.090 N 
HETATM   13  H10 UNL     1      20.918   2.088  52.390  1.00  0.00     0.316 HD
BRANCH  12  14
HETATM   14  C7  UNL     1      21.171   2.907  50.562  1.00  0.00     0.300 C 
BRANCH  14  15
HETATM   15  C8  UNL     1      22.103   2.019  49.718  1.00  0.00     0.301 C 
BRANCH  15  16
HETATM   16  N2  UNL     1      22.667   2.790  48.627  1.00  0.00     0.081 N 
HETATM   17  C9  UNL     1      22.015   4.081  48.551  1.00  0.00     0.309 C 
HETATM   18  C10 UNL     1      22.433   2.068  47.394  1.00  0.00     0.309 C 
ENDBRANCH  15  16
ENDBRANCH  14  15
ENDBRANCH  12  14
ENDBRANCH   6  12
BRANCH   9  19
HETATM   19  C14 UNL     1      27.335   0.446  53.122  1.00  0.00     0.100 A 
HETATM   20  C15 UNL     1      27.346  -1.108  52.773  1.00  0.00     0.056 A 
HETATM   21  C16 UNL     1      27.823  -0.200  53.167  1.00  0.00    -0.036 A 
HETATM   22  C17 UNL     1      28.181   0.518  53.471  1.00  0.00     0.019 A 
HETATM   23  C18 UNL     1      28.602   1.407  53.840  1.00  0.00     0.179 A 
HETATM   24  O1  UNL     1      28.142   2.521  53.915  1.00  0.00    -0.291 OA
ENDBRANCH   9  19
TORSDOF 5
ENDMDL
MODEL 7
REMARK VINA RESULT:      -6.8      2.836      5.828
REMARK  5 active torsions:
REMARK  status: ('A' for Active; 'I' for Inactive)
REMARK    1  A    between atoms: C6_6  and  N1_7 
REMARK    2  A    between atoms: N1_7  and  C7_8 
REMARK    3  A    between atoms: C7_8  and  C8_9 
REMARK    4  A    between atoms: C8_9  and  N2_10 
REMARK    5  A    between atoms: C13_15  and  C14_16 
ROOT
HETATM    1  C1  UNL     1      26.487   3.236  49.463  1.00  0.00     0.030 C 
HETATM    2  C2  UNL     1      25.630   3.038  50.727  1.00  0.00     0.019 A 
HETATM    3  C3  UNL     1      24.857   4.150  50.833  1.00  0.00     0.012 C 
HETATM    4  C4  UNL     1      23.790   4.855  51.634  1.00  0.00     0.009 C 
HETATM    5  C5  UNL     1      23.374   3.840  52.696  1.00  0.00     0.036 C 
HETATM    6  C6  UNL     1      22.748   2.638  52.059  1.00  0.00     0.224 C 
HETATM    7  C11 UNL     1      23.005   1.369  52.799  1.00  0.00     0.064 C 
HETATM    8  C12 UNL     1      24.431   1.085  52.848  1.00  0.00    -0.004 C 
HETATM    9  C13 UNL     1      25.756   1.186  52.648  1.00  0.00     0.007 C 
HETATM   10  N3  UNL     1      25.184   2.332  51.889  1.00  0.00    -0.284 NA
HETATM   11  H25 UNL     1      26.063   2.053  51.419  1.00  0.00     0.155 HD
ENDROOT
BRANCH   6  12
HETATM   12  N1  UNL     1      21.390   2.843  51.747  1.00  0.00     0.090 N 
HETATM   13  H10 UNL     1      20.834   3.136  52.579  1.00  0.00     0.316 HD
BRANCH  12  14
HETATM   14  C7  UNL     1      20.727   1.747  51.119  1.00  0.00     0.300 C 
BRANCH  14  15
HETATM   15  C8  UNL     1      19.458   1.365  51.902  1.00  0.00     0.301 C 
BRANCH  15  16
HETATM   16  N2  UNL     1      18.987   0.061  51.475  1.00  0.00     0.081 N 
HETATM   17  C9  UNL     1      17.974   0.218  50.452  1.00  0.00     0.309 C 
HETATM   18  C10 UNL     1      18.406  -0.608  52.619  1.00  0.00     0.309 C 
ENDBRANCH  15  16
ENDBRANCH  14  15
ENDBRANCH  12  14
ENDBRANCH   6  12
BRANCH   9  19
HETATM   19  C14 UNL     1      27.147   0.380  53.050  1.00  0.00     0.100 A 
HETATM   20  C15 UNL     1      27.139  -1.174  52.707  1.00  0.00     0.056 A 
HETATM   21  C16 UNL     1      27.623  -0.273  53.107  1.00  0.00    -0.036 A 
HETATM   22  C17 UNL     1      27.988   0.440  53.415  1.00  0.00     0.019 A 
HETATM   23  C18 UNL     1      28.416   1.323  53.788  1.00  0.00     0.179 A 
HETATM   24  O1  UNL     1      27.974   2.445  53.851  1.00  0.00    -0.291 OA
ENDBRANCH   9  19
TORSDOF 5
ENDMDL
MODEL 8
REMARK VINA RESULT:      -6.8      1.973      2.792
REMARK  5 active torsions:
REMARK  status: ('A' for Active; 'I' for Inactive)
REMARK    1  A    between atoms: C6_6  and  N1_7 
REMARK    2  A    between atoms: N1_7  and  C7_8 
REMARK    3  A    between atoms: C7_8  and  C8_9 
REMARK    4  A    between atoms: C8_9  and  N2_10 
REMARK    5  A    between atoms: C13_15  and  C14_16 
ROOT
HETATM    1  C1  UNL     1      26.773  -0.656  52.138  1.00  0.00     0.030 C 
HETATM    2  C2  UNL     1      25.598   0.339  52.176  1.00  0.00     0.019 A 
HETATM    3  C3  UNL     1      26.099   1.527  51.746  1.00  0.00     0.012 C 
HETATM    4  C4  UNL     1      25.794   2.973  51.444  1.00  0.00     0.009 C 
HETATM    5  C5  UNL     1      24.283   3.091  51.623  1.00  0.00     0.036 C 
HETATM    6  C6  UNL     1      23.565   2.252  50.611  1.00  0.00     0.224 C 
HETATM    7  C11 UNL     1      22.279   1.686  51.111  1.00  0.00     0.064 C 
HETATM    8  C12 UNL     1      22.512   0.809  52.248  1.00  0.00    -0.004 C 
HETATM    9  C13 UNL     1      23.143   0.103  53.201  1.00  0.00     0.007 C 
HETATM   10  N3  UNL     1      24.246   0.734  52.425  1.00  0.00    -0.284 NA
HETATM   11  H25 UNL     1      24.608  -0.152  52.819  1.00  0.00     0.155 HD
ENDROOT
BRANCH   6  12
HETATM   12  N1  UNL     1      23.451   2.896  49.365  1.00  0.00     0.090 N 
HETATM   13  H10 UNL     1      24.237   3.560  49.189  1.00  0.00     0.316 HD
BRANCH  12  14
HETATM   14  C7  UNL     1      22.219   3.576  49.129  1.00  0.00     0.300 C 
BRANCH  14  15
HETATM   15  C8  UNL     1      22.446   5.098  49.073  1.00  0.00     0.301 C 
BRANCH  15  16
HETATM   16  N2  UNL     1      21.365   5.784  49.754  1.00  0.00     0.081 N 
HETATM   17  C9  UNL     1      21.884   6.499  50.902  1.00  0.00     0.309 C 
HETATM   18  C10 UNL     1      20.411   4.793  50.204  1.00  0.00     0.309 C 
ENDBRANCH  15  16
ENDBRANCH  14  15
ENDBRANCH  12  14
ENDBRANCH   6  12
BRANCH   9  19
HETATM   19  C14 UNL     1      22.773  -0.909  54.460  1.00  0.00     0.100 A 
HETATM   20  C15 UNL     1      21.254  -1.385  54.507  1.00  0.00     0.056 A 
HETATM   21  C16 UNL     1      22.277  -1.371  54.905  1.00  0.00    -0.036 A 
HETATM   22  C17 UNL     1      23.082  -1.351  55.204  1.00  0.00     0.019 A 
HETATM   23  C18 UNL     1      24.072  -1.311  55.553  1.00  0.00     0.179 A 
HETATM   24  O1  UNL     1      25.034  -0.722  55.124  1.00  0.00    -0.291 OA
ENDBRANCH   9  19
TORSDOF 5
ENDMDL
MODEL 9
REMARK VINA RESULT:      -6.7      2.762      6.331
REMARK  5 active torsions:
REMARK  status: ('A' for Active; 'I' for Inactive)
REMARK    1  A    between atoms: C6_6  and  N1_7 
REMARK    2  A    between atoms: N1_7  and  C7_8 
REMARK    3  A    between atoms: C7_8  and  C8_9 
REMARK    4  A    between atoms: C8_9  and  N2_10 
REMARK    5  A    between atoms: C13_15  and  C14_16 
ROOT
HETATM    1  C1  UNL     1      21.107   0.680  50.006  1.00  0.00     0.030 C 
HETATM    2  C2  UNL     1      22.311   1.252  50.777  1.00  0.00     0.019 A 
HETATM    3  C3  UNL     1      22.266   0.688  52.012  1.00  0.00     0.012 C 
HETATM    4  C4  UNL     1      22.928   0.595  53.365  1.00  0.00     0.009 C 
HETATM    5  C5  UNL     1      24.211   1.410  53.221  1.00  0.00     0.036 C 
HETATM    6  C6  UNL     1      25.127   0.777  52.220  1.00  0.00     0.224 C 
HETATM    7  C11 UNL     1      25.950   1.761  51.460  1.00  0.00     0.064 C 
HETATM    8  C12 UNL     1      25.098   2.657  50.694  1.00  0.00    -0.004 C 
HETATM    9  C13 UNL     1      24.004   3.223  50.158  1.00  0.00     0.007 C 
HETATM   10  N3  UNL     1      23.474   2.071  50.937  1.00  0.00    -0.284 NA
HETATM   11  H25 UNL     1      22.824   2.241  50.150  1.00  0.00     0.155 HD
ENDROOT
BRANCH   6  12
HETATM   12  N1  UNL     1      25.879  -0.278  52.773  1.00  0.00     0.090 N 
HETATM   13  H10 UNL     1      25.508  -0.584  53.699  1.00  0.00     0.316 HD
BRANCH  12  14
HETATM   14  C7  UNL     1      27.280  -0.042  52.898  1.00  0.00     0.300 C 
BRANCH  14  15
HETATM   15  C8  UNL     1      27.653   0.226  54.367  1.00  0.00     0.301 C 
BRANCH  15  16
HETATM   16  N2  UNL     1      28.989   0.784  54.445  1.00  0.00     0.081 N 
HETATM   17  C9  UNL     1      28.992   2.127  53.903  1.00  0.00     0.309 C 
HETATM   18  C10 UNL     1      29.873  -0.048  53.657  1.00  0.00     0.309 C 
ENDBRANCH  15  16
ENDBRANCH  14  15
ENDBRANCH  12  14
ENDBRANCH   6  12
BRANCH   9  19
HETATM   19  C14 UNL     1      23.610   4.485  49.158  1.00  0.00     0.100 A 
HETATM   20  C15 UNL     1      24.213   5.893  49.594  1.00  0.00     0.056 A 
HETATM   21  C16 UNL     1      23.619   5.260  48.921  1.00  0.00    -0.036 A 
HETATM   22  C17 UNL     1      23.159   4.752  48.404  1.00  0.00     0.019 A 
HETATM   23  C18 UNL     1      22.600   4.114  47.785  1.00  0.00     0.179 A 
HETATM   24  O1  UNL     1      22.391   2.927  47.864  1.00  0.00    -0.291 OA
ENDBRANCH   9  19
TORSDOF 5
ENDMDL
