MODEL 1
REMARK VINA RESULT:      -7.7      0.000      0.000
REMARK  9 active torsions:
REMARK  status: ('A' for Active; 'I' for Inactive)
REMARK    1  A    between atoms: C6_6  and  N1_7 
REMARK    2  A    between atoms: N1_7  and  C7_8 
REMARK    3  A    between atoms: N1_7  and  C11_17 
REMARK    4  A    between atoms: C7_8  and  N2_9 
REMARK    5  A    between atoms: N2_9  and  C8_10 
REMARK    6  A    between atoms: C8_10  and  C9_11 
REMARK    7  A    between atoms: C9_11  and  C10_12 
REMARK    8  A    between atoms: C10_12  and  S1_13 
REMARK    9  A    between atoms: S1_13  and  N3_14 
ROOT
HETATM    1  N1  UNL     1      26.478   1.493  52.035  1.00  0.00    -0.328 N 
ENDROOT
BRANCH   1   2
HETATM    2  C6  UNL     1      25.216   0.944  52.400  1.00  0.00     0.038 A 
HETATM    3  C5  UNL     1      25.086  -0.036  53.386  1.00  0.00     0.031 A 
HETATM    4  C4  UNL     1      23.875  -0.581  53.754  1.00  0.00     0.018 A 
HETATM    5  C3  UNL     1      22.744  -0.143  53.126  1.00  0.00     0.018 A 
HETATM    6  C2  UNL     1      21.432  -0.524  53.312  1.00  0.00     0.039 A 
HETATM    7  C16 UNL     1      22.807   0.824  52.146  1.00  0.00     0.091 A 
HETATM    8  C1  UNL     1      20.925  -1.537  54.271  1.00  0.00     0.071 C 
HETATM    9  N6  UNL     1      20.722   0.210  52.446  1.00  0.00    -0.277 N 
HETATM   10  N5  UNL     1      21.521   1.008  51.754  1.00  0.00    -0.172 NA
HETATM   11  C17 UNL     1      19.271   0.087  52.345  1.00  0.00     0.179 C 
HETATM   12  C15 UNL     1      24.038   1.353  51.796  1.00  0.00     0.064 A 
ENDBRANCH   1   2
BRANCH   1  13
HETATM   13  C7  UNL     1      26.653   2.182  50.752  1.00  0.00     0.252 C 
BRANCH  13  14
HETATM   14  N2  UNL     1      26.504   3.612  50.881  1.00  0.00    -0.376 N 
HETATM   15  H8  UNL     1      26.744   4.225  51.680  1.00  0.00     0.161 HD
BRANCH  14  16
HETATM   16  C8  UNL     1      25.937   3.999  49.620  1.00  0.00     0.137 C 
BRANCH  16  17
HETATM   17  C9  UNL     1      24.776   4.634  49.718  1.00  0.00    -0.115 C 
BRANCH  17  18
HETATM   18  C10 UNL     1      23.515   5.018  49.870  1.00  0.00     0.226 C 
BRANCH  18  19
HETATM   19  S1  UNL     1      23.037   5.671  51.400  1.00  0.00     0.224 S 
HETATM   20  O1  UNL     1      21.805   6.518  51.194  1.00  0.00    -0.210 OA
HETATM   21  O2  UNL     1      22.788   4.562  52.376  1.00  0.00    -0.210 OA
BRANCH  19  22
HETATM   22  N3  UNL     1      24.297   6.687  52.012  1.00  0.00    -0.228 NA
HETATM   23  H11 UNL     1      25.053   6.132  52.474  1.00  0.00     0.136 HD
HETATM   24  H12 UNL     1      23.921   7.366  52.726  1.00  0.00     0.136 HD
ENDBRANCH  19  22
ENDBRANCH  18  19
ENDBRANCH  17  18
ENDBRANCH  16  17
ENDBRANCH  14  16
ENDBRANCH  13  14
ENDBRANCH   1  13
BRANCH   1  25
HETATM   25  C11 UNL     1      27.549   1.346  52.963  1.00  0.00     0.069 C 
HETATM   26  C12 UNL     1      27.795   2.429  53.684  1.00  0.00     0.114 C 
HETATM   27  N4  UNL     1      28.926   2.349  54.302  1.00  0.00    -0.256 NA
HETATM   28  C13 UNL     1      29.365   0.989  54.238  1.00  0.00     0.120 C 
HETATM   29  C14 UNL     1      28.531   0.335  53.415  1.00  0.00     0.051 C 
ENDBRANCH   1  25
TORSDOF 9
ENDMDL
MODEL 2
REMARK VINA RESULT:      -7.6      3.809      7.965
REMARK  9 active torsions:
REMARK  status: ('A' for Active; 'I' for Inactive)
REMARK    1  A    between atoms: C6_6  and  N1_7 
REMARK    2  A    between atoms: N1_7  and  C7_8 
REMARK    3  A    between atoms: N1_7  and  C11_17 
REMARK    4  A    between atoms: C7_8  and  N2_9 
REMARK    5  A    between atoms: N2_9  and  C8_10 
REMARK    6  A    between atoms: C8_10  and  C9_11 
REMARK    7  A    between atoms: C9_11  and  C10_12 
REMARK    8  A    between atoms: C10_12  and  S1_13 
REMARK    9  A    between atoms: S1_13  and  N3_14 
ROOT
HETATM    1  N1  UNL     1      24.305   2.775  50.320  1.00  0.00    -0.328 N 
ENDROOT
BRANCH   1   2
HETATM    2  C6  UNL     1      25.098   3.823  49.771  1.00  0.00     0.038 A 
HETATM    3  C5  UNL     1      24.577   5.092  49.508  1.00  0.00     0.031 A 
HETATM    4  C4  UNL     1      25.326   6.120  48.976  1.00  0.00     0.018 A 
HETATM    5  C3  UNL     1      26.641   5.890  48.691  1.00  0.00     0.018 A 
HETATM    6  C2  UNL     1      27.588   6.742  48.163  1.00  0.00     0.039 A 
HETATM    7  C16 UNL     1      27.213   4.658  48.929  1.00  0.00     0.091 A 
HETATM    8  C1  UNL     1      27.391   8.157  47.765  1.00  0.00     0.071 C 
HETATM    9  N6  UNL     1      28.713   6.020  48.086  1.00  0.00    -0.277 N 
HETATM   10  N5  UNL     1      28.504   4.792  48.535  1.00  0.00    -0.172 NA
HETATM   11  C17 UNL     1      29.955   6.587  47.568  1.00  0.00     0.179 C 
HETATM   12  C15 UNL     1      26.436   3.644  49.464  1.00  0.00     0.064 A 
ENDBRANCH   1   2
BRANCH   1  13
HETATM   13  C7  UNL     1      24.661   2.161  51.603  1.00  0.00     0.252 C 
BRANCH  13  14
HETATM   14  N2  UNL     1      24.931   3.149  52.620  1.00  0.00    -0.376 N 
HETATM   15  H8  UNL     1      24.721   4.164  52.619  1.00  0.00     0.161 HD
BRANCH  14  16
HETATM   16  C8  UNL     1      25.570   2.389  53.657  1.00  0.00     0.137 C 
BRANCH  16  17
HETATM   17  C9  UNL     1      26.769   1.923  53.329  1.00  0.00    -0.115 C 
BRANCH  17  18
HETATM   18  C10 UNL     1      27.827   1.234  52.922  1.00  0.00     0.226 C 
BRANCH  18  19
HETATM   19  S1  UNL     1      29.012   0.781  54.099  1.00  0.00     0.224 S 
HETATM   20  O1  UNL     1      28.337  -0.053  55.160  1.00  0.00    -0.210 OA
HETATM   21  O2  UNL     1      30.131   0.035  53.439  1.00  0.00    -0.210 OA
BRANCH  19  22
HETATM   22  N3  UNL     1      29.650   2.203  54.852  1.00  0.00    -0.228 NA
HETATM   23  H11 UNL     1      28.890   2.827  55.207  1.00  0.00     0.136 HD
HETATM   24  H12 UNL     1      30.228   2.763  54.171  1.00  0.00     0.136 HD
ENDBRANCH  19  22
ENDBRANCH  18  19
ENDBRANCH  17  18
ENDBRANCH  16  17
ENDBRANCH  14  16
ENDBRANCH  13  14
ENDBRANCH   1  13
BRANCH   1  25
HETATM   25  C11 UNL     1      23.165   2.358  49.576  1.00  0.00     0.069 C 
HETATM   26  C12 UNL     1      22.307   1.621  50.265  1.00  0.00     0.114 C 
HETATM   27  N4  UNL     1      21.445   1.042  49.498  1.00  0.00    -0.256 NA
HETATM   28  C13 UNL     1      21.528   1.652  48.207  1.00  0.00     0.120 C 
HETATM   29  C14 UNL     1      22.586   2.477  48.219  1.00  0.00     0.051 C 
ENDBRANCH   1  25
TORSDOF 9
ENDMDL
MODEL 3
REMARK VINA RESULT:      -7.6      1.586      1.694
REMARK  9 active torsions:
REMARK  status: ('A' for Active; 'I' for Inactive)
REMARK    1  A    between atoms: C6_6  and  N1_7 
REMARK    2  A    between atoms: N1_7  and  C7_8 
REMARK    3  A    between atoms: N1_7  and  C11_17 
REMARK    4  A    between atoms: C7_8  and  N2_9 
REMARK    5  A    between atoms: N2_9  and  C8_10 
REMARK    6  A    between atoms: C8_10  and  C9_11 
REMARK    7  A    between atoms: C9_11  and  C10_12 
REMARK    8  A    between atoms: C10_12  and  S1_13 
REMARK    9  A    between atoms: S1_13  and  N3_14 
ROOT
HETATM    1  N1  UNL     1      26.459   1.529  52.002  1.00  0.00    -0.328 N 
ENDROOT
BRANCH   1   2
HETATM    2  C6  UNL     1      25.198   0.978  52.367  1.00  0.00     0.038 A 
HETATM    3  C5  UNL     1      25.071   0.000  53.356  1.00  0.00     0.031 A 
HETATM    4  C4  UNL     1      23.861  -0.547  53.724  1.00  0.00     0.018 A 
HETATM    5  C3  UNL     1      22.729  -0.113  53.095  1.00  0.00     0.018 A 
HETATM    6  C2  UNL     1      21.417  -0.497  53.281  1.00  0.00     0.039 A 
HETATM    7  C16 UNL     1      22.790   0.851  52.112  1.00  0.00     0.091 A 
HETATM    8  C1  UNL     1      20.913  -1.508  54.242  1.00  0.00     0.071 C 
HETATM    9  N6  UNL     1      20.706   0.233  52.413  1.00  0.00    -0.277 N 
HETATM   10  N5  UNL     1      21.504   1.031  51.719  1.00  0.00    -0.172 NA
HETATM   11  C17 UNL     1      19.256   0.106  52.312  1.00  0.00     0.179 C 
HETATM   12  C15 UNL     1      24.020   1.383  51.761  1.00  0.00     0.064 A 
ENDBRANCH   1   2
BRANCH   1  13
HETATM   13  C7  UNL     1      26.629   2.229  50.725  1.00  0.00     0.252 C 
BRANCH  13  14
HETATM   14  N2  UNL     1      26.390   3.647  50.848  1.00  0.00    -0.376 N 
HETATM   15  H8  UNL     1      26.557   4.271  51.659  1.00  0.00     0.161 HD
BRANCH  14  16
HETATM   16  C8  UNL     1      25.857   4.005  49.564  1.00  0.00     0.137 C 
BRANCH  16  17
HETATM   17  C9  UNL     1      26.263   5.187  49.117  1.00  0.00    -0.115 C 
BRANCH  17  18
HETATM   18  C10 UNL     1      26.594   6.456  48.920  1.00  0.00     0.226 C 
BRANCH  18  19
HETATM   19  S1  UNL     1      25.823   7.663  49.892  1.00  0.00     0.224 S 
HETATM   20  O1  UNL     1      25.036   8.576  48.984  1.00  0.00    -0.210 OA
HETATM   21  O2  UNL     1      24.945   7.012  50.917  1.00  0.00    -0.210 OA
BRANCH  19  22
HETATM   22  N3  UNL     1      27.027   8.608  50.699  1.00  0.00    -0.228 NA
HETATM   23  H11 UNL     1      27.990   8.247  50.517  1.00  0.00     0.136 HD
HETATM   24  H12 UNL     1      26.877   8.598  51.744  1.00  0.00     0.136 HD
ENDBRANCH  19  22
ENDBRANCH  18  19
ENDBRANCH  17  18
ENDBRANCH  16  17
ENDBRANCH  14  16
ENDBRANCH  13  14
ENDBRANCH   1  13
BRANCH   1  25
HETATM   25  C11 UNL     1      27.535   1.372  52.923  1.00  0.00     0.069 C 
HETATM   26  C12 UNL     1      27.772   2.442  53.668  1.00  0.00     0.114 C 
HETATM   27  N4  UNL     1      28.905   2.359  54.280  1.00  0.00    -0.256 NA
HETATM   28  C13 UNL     1      29.357   1.006  54.186  1.00  0.00     0.120 C 
HETATM   29  C14 UNL     1      28.528   0.362  53.350  1.00  0.00     0.051 C 
ENDBRANCH   1  25
TORSDOF 9
ENDMDL
MODEL 4
REMARK VINA RESULT:      -7.3      1.725      2.408
REMARK  9 active torsions:
REMARK  status: ('A' for Active; 'I' for Inactive)
REMARK    1  A    between atoms: C6_6  and  N1_7 
REMARK    2  A    between atoms: N1_7  and  C7_8 
REMARK    3  A    between atoms: N1_7  and  C11_17 
REMARK    4  A    between atoms: C7_8  and  N2_9 
REMARK    5  A    between atoms: N2_9  and  C8_10 
REMARK    6  A    between atoms: C8_10  and  C9_11 
REMARK    7  A    between atoms: C9_11  and  C10_12 
REMARK    8  A    between atoms: C10_12  and  S1_13 
REMARK    9  A    between atoms: S1_13  and  N3_14 
ROOT
HETATM    1  N1  UNL     1      25.027   1.413  52.481  1.00  0.00    -0.328 N 
ENDROOT
BRANCH   1   2
HETATM    2  C6  UNL     1      23.657   1.111  52.236  1.00  0.00     0.038 A 
HETATM    3  C5  UNL     1      23.012   1.480  51.054  1.00  0.00     0.031 A 
HETATM    4  C4  UNL     1      21.687   1.199  50.798  1.00  0.00     0.018 A 
HETATM    5  C3  UNL     1      20.968   0.524  51.743  1.00  0.00     0.018 A 
HETATM    6  C2  UNL     1      19.647   0.128  51.725  1.00  0.00     0.039 A 
HETATM    7  C16 UNL     1      21.549   0.132  52.929  1.00  0.00     0.091 A 
HETATM    8  C1  UNL     1      18.665   0.350  50.636  1.00  0.00     0.071 C 
HETATM    9  N6  UNL     1      19.447  -0.494  52.894  1.00  0.00    -0.277 N 
HETATM   10  N5  UNL     1      20.560  -0.498  53.611  1.00  0.00    -0.172 NA
HETATM   11  C17 UNL     1      18.149  -1.062  53.247  1.00  0.00     0.179 C 
HETATM   12  C15 UNL     1      22.883   0.429  53.160  1.00  0.00     0.064 A 
ENDBRANCH   1   2
BRANCH   1  13
HETATM   13  C7  UNL     1      25.510   2.796  52.427  1.00  0.00     0.252 C 
BRANCH  13  14
HETATM   14  N2  UNL     1      26.754   2.907  51.702  1.00  0.00    -0.376 N 
HETATM   15  H8  UNL     1      27.724   2.913  52.065  1.00  0.00     0.161 HD
BRANCH  14  16
HETATM   16  C8  UNL     1      26.331   3.008  50.334  1.00  0.00     0.137 C 
BRANCH  16  17
HETATM   17  C9  UNL     1      25.896   4.213  49.986  1.00  0.00    -0.115 C 
BRANCH  17  18
HETATM   18  C10 UNL     1      25.618   5.503  49.849  1.00  0.00     0.226 C 
BRANCH  18  19
HETATM   19  S1  UNL     1      24.138   6.097  50.522  1.00  0.00     0.224 S 
HETATM   20  O1  UNL     1      23.556   7.113  49.570  1.00  0.00    -0.210 OA
HETATM   21  O2  UNL     1      23.192   4.961  50.763  1.00  0.00    -0.210 OA
BRANCH  19  22
HETATM   22  N3  UNL     1      24.466   6.888  52.026  1.00  0.00    -0.228 NA
HETATM   23  H11 UNL     1      25.410   7.337  52.030  1.00  0.00     0.136 HD
HETATM   24  H12 UNL     1      24.437   6.202  52.827  1.00  0.00     0.136 HD
ENDBRANCH  19  22
ENDBRANCH  18  19
ENDBRANCH  17  18
ENDBRANCH  16  17
ENDBRANCH  14  16
ENDBRANCH  13  14
ENDBRANCH   1  13
BRANCH   1  25
HETATM   25  C11 UNL     1      25.895   0.324  52.778  1.00  0.00     0.069 C 
HETATM   26  C12 UNL     1      26.279   0.265  54.044  1.00  0.00     0.114 C 
HETATM   27  N4  UNL     1      27.263  -0.553  54.211  1.00  0.00    -0.256 NA
HETATM   28  C13 UNL     1      27.384  -1.342  53.024  1.00  0.00     0.120 C 
HETATM   29  C14 UNL     1      26.546  -0.826  52.111  1.00  0.00     0.051 C 
ENDBRANCH   1  25
TORSDOF 9
ENDMDL
MODEL 5
REMARK VINA RESULT:      -7.2      2.412      5.026
REMARK  9 active torsions:
REMARK  status: ('A' for Active; 'I' for Inactive)
REMARK    1  A    between atoms: C6_6  and  N1_7 
REMARK    2  A    between atoms: N1_7  and  C7_8 
REMARK    3  A    between atoms: N1_7  and  C11_17 
REMARK    4  A    between atoms: C7_8  and  N2_9 
REMARK    5  A    between atoms: N2_9  and  C8_10 
REMARK    6  A    between atoms: C8_10  and  C9_11 
REMARK    7  A    between atoms: C9_11  and  C10_12 
REMARK    8  A    between atoms: C10_12  and  S1_13 
REMARK    9  A    between atoms: S1_13  and  N3_14 
ROOT
HETATM    1  N1  UNL     1      25.912   0.308  53.525  1.00  0.00    -0.328 N 
ENDROOT
BRANCH   1   2
HETATM    2  C6  UNL     1      25.575   1.420  52.703  1.00  0.00     0.038 A 
HETATM    3  C5  UNL     1      26.246   1.697  51.511  1.00  0.00     0.031 A 
HETATM    4  C4  UNL     1      25.936   2.769  50.701  1.00  0.00     0.018 A 
HETATM    5  C3  UNL     1      24.923   3.602  51.080  1.00  0.00     0.018 A 
HETATM    6  C2  UNL     1      24.427   4.725  50.453  1.00  0.00     0.039 A 
HETATM    7  C16 UNL     1      24.222   3.380  52.246  1.00  0.00     0.091 A 
HETATM    8  C1  UNL     1      24.897   5.312  49.173  1.00  0.00     0.071 C 
HETATM    9  N6  UNL     1      23.440   5.167  51.242  1.00  0.00    -0.277 N 
HETATM   10  N5  UNL     1      23.310   4.383  52.301  1.00  0.00    -0.172 NA
HETATM   11  C17 UNL     1      22.663   6.357  50.905  1.00  0.00     0.179 C 
HETATM   12  C15 UNL     1      24.556   2.296  53.041  1.00  0.00     0.064 A 
ENDBRANCH   1   2
BRANCH   1  13
HETATM   13  C7  UNL     1      24.877  -0.415  54.271  1.00  0.00     0.252 C 
BRANCH  13  14
HETATM   14  N2  UNL     1      23.806  -0.864  53.413  1.00  0.00    -0.376 N 
HETATM   15  H8  UNL     1      23.827  -1.082  52.400  1.00  0.00     0.161 HD
BRANCH  14  16
HETATM   16  C8  UNL     1      22.682  -0.942  54.302  1.00  0.00     0.137 C 
BRANCH  16  17
HETATM   17  C9  UNL     1      21.655  -0.178  53.950  1.00  0.00    -0.115 C 
BRANCH  17  18
HETATM   18  C10 UNL     1      20.634   0.663  53.862  1.00  0.00     0.226 C 
BRANCH  18  19
HETATM   19  S1  UNL     1      20.397   1.509  52.371  1.00  0.00     0.224 S 
HETATM   20  O1  UNL     1      21.558   1.201  51.457  1.00  0.00    -0.210 OA
HETATM   21  O2  UNL     1      19.090   1.110  51.757  1.00  0.00    -0.210 OA
BRANCH  19  22
HETATM   22  N3  UNL     1      20.381   3.214  52.671  1.00  0.00    -0.228 NA
HETATM   23  H11 UNL     1      21.336   3.578  52.889  1.00  0.00     0.136 HD
HETATM   24  H12 UNL     1      19.758   3.447  53.490  1.00  0.00     0.136 HD
ENDBRANCH  19  22
ENDBRANCH  18  19
ENDBRANCH  17  18
ENDBRANCH  16  17
ENDBRANCH  14  16
ENDBRANCH  13  14
ENDBRANCH   1  13
BRANCH   1  25
HETATM   25  C11 UNL     1      27.285  -0.067  53.588  1.00  0.00     0.069 C 
HETATM   26  C12 UNL     1      27.550  -1.250  53.054  1.00  0.00     0.114 C 
HETATM   27  N4  UNL     1      28.729  -1.668  53.371  1.00  0.00    -0.256 NA
HETATM   28  C13 UNL     1      29.451  -0.565  53.927  1.00  0.00     0.120 C 
HETATM   29  C14 UNL     1      28.584   0.449  54.075  1.00  0.00     0.051 C 
ENDBRANCH   1  25
TORSDOF 9
ENDMDL
MODEL 6
REMARK VINA RESULT:      -7.2      2.450      5.616
REMARK  9 active torsions:
REMARK  status: ('A' for Active; 'I' for Inactive)
REMARK    1  A    between atoms: C6_6  and  N1_7 
REMARK    2  A    between atoms: N1_7  and  C7_8 
REMARK    3  A    between atoms: N1_7  and  C11_17 
REMARK    4  A    between atoms: C7_8  and  N2_9 
REMARK    5  A    between atoms: N2_9  and  C8_10 
REMARK    6  A    between atoms: C8_10  and  C9_11 
REMARK    7  A    between atoms: C9_11  and  C10_12 
REMARK    8  A    between atoms: C10_12  and  S1_13 
REMARK    9  A    between atoms: S1_13  and  N3_14 
ROOT
HETATM    1  N1  UNL     1      25.710  -0.008  53.250  1.00  0.00    -0.328 N 
ENDROOT
BRANCH   1   2
HETATM    2  C6  UNL     1      25.502   1.206  52.536  1.00  0.00     0.038 A 
HETATM    3  C5  UNL     1      24.372   2.002  52.732  1.00  0.00     0.031 A 
HETATM    4  C4  UNL     1      24.151   3.180  52.051  1.00  0.00     0.018 A 
HETATM    5  C3  UNL     1      25.081   3.592  51.140  1.00  0.00     0.018 A 
HETATM    6  C2  UNL     1      25.093   4.717  50.343  1.00  0.00     0.039 A 
HETATM    7  C16 UNL     1      26.218   2.850  50.903  1.00  0.00     0.091 A 
HETATM    8  C1  UNL     1      24.059   5.780  50.286  1.00  0.00     0.071 C 
HETATM    9  N6  UNL     1      26.228   4.641  49.637  1.00  0.00    -0.277 N 
HETATM   10  N5  UNL     1      26.899   3.546  49.959  1.00  0.00    -0.172 NA
HETATM   11  C17 UNL     1      26.598   5.669  48.668  1.00  0.00     0.179 C 
HETATM   12  C15 UNL     1      26.414   1.669  51.602  1.00  0.00     0.064 A 
ENDBRANCH   1   2
BRANCH   1  13
HETATM   13  C7  UNL     1      24.581  -0.881  53.588  1.00  0.00     0.252 C 
BRANCH  13  14
HETATM   14  N2  UNL     1      24.330  -0.916  55.009  1.00  0.00    -0.376 N 
HETATM   15  H8  UNL     1      24.947  -0.627  55.790  1.00  0.00     0.161 HD
BRANCH  14  16
HETATM   16  C8  UNL     1      23.002  -1.454  55.097  1.00  0.00     0.137 C 
BRANCH  16  17
HETATM   17  C9  UNL     1      22.051  -0.625  54.685  1.00  0.00    -0.115 C 
BRANCH  17  18
HETATM   18  C10 UNL     1      21.057   0.242  54.543  1.00  0.00     0.226 C 
BRANCH  18  19
HETATM   19  S1  UNL     1      20.400   0.482  52.960  1.00  0.00     0.224 S 
HETATM   20  O1  UNL     1      19.195  -0.413  52.803  1.00  0.00    -0.210 OA
HETATM   21  O2  UNL     1      20.046   1.924  52.765  1.00  0.00    -0.210 OA
BRANCH  19  22
HETATM   22  N3  UNL     1      21.573   0.023  51.773  1.00  0.00    -0.228 NA
HETATM   23  H11 UNL     1      21.123  -0.297  50.886  1.00  0.00     0.136 HD
HETATM   24  H12 UNL     1      22.177  -0.767  52.125  1.00  0.00     0.136 HD
ENDBRANCH  19  22
ENDBRANCH  18  19
ENDBRANCH  17  18
ENDBRANCH  16  17
ENDBRANCH  14  16
ENDBRANCH  13  14
ENDBRANCH   1  13
BRANCH   1  25
HETATM   25  C11 UNL     1      27.048  -0.332  53.616  1.00  0.00     0.069 C 
HETATM   26  C12 UNL     1      27.485   0.302  54.693  1.00  0.00     0.114 C 
HETATM   27  N4  UNL     1      28.764   0.196  54.827  1.00  0.00    -0.256 NA
HETATM   28  C13 UNL     1      29.215  -0.832  53.941  1.00  0.00     0.120 C 
HETATM   29  C14 UNL     1      28.173  -1.186  53.173  1.00  0.00     0.051 C 
ENDBRANCH   1  25
TORSDOF 9
ENDMDL
MODEL 7
REMARK VINA RESULT:      -7.1      3.039      5.416
REMARK  9 active torsions:
REMARK  status: ('A' for Active; 'I' for Inactive)
REMARK    1  A    between atoms: C6_6  and  N1_7 
REMARK    2  A    between atoms: N1_7  and  C7_8 
REMARK    3  A    between atoms: N1_7  and  C11_17 
REMARK    4  A    between atoms: C7_8  and  N2_9 
REMARK    5  A    between atoms: N2_9  and  C8_10 
REMARK    6  A    between atoms: C8_10  and  C9_11 
REMARK    7  A    between atoms: C9_11  and  C10_12 
REMARK    8  A    between atoms: C10_12  and  S1_13 
REMARK    9  A    between atoms: S1_13  and  N3_14 
ROOT
HETATM    1  N1  UNL     1      23.778   1.906  51.852  1.00  0.00    -0.328 N 
ENDROOT
BRANCH   1   2
HETATM    2  C6  UNL     1      22.452   1.409  51.703  1.00  0.00     0.038 A 
HETATM    3  C5  UNL     1      21.744   1.521  50.504  1.00  0.00     0.031 A 
HETATM    4  C4  UNL     1      20.460   1.048  50.339  1.00  0.00     0.018 A 
HETATM    5  C3  UNL     1      19.848   0.438  51.396  1.00  0.00     0.018 A 
HETATM    6  C2  UNL     1      18.586  -0.113  51.483  1.00  0.00     0.039 A 
HETATM    7  C16 UNL     1      20.495   0.296  52.605  1.00  0.00     0.091 A 
HETATM    8  C1  UNL     1      17.564  -0.172  50.410  1.00  0.00     0.071 C 
HETATM    9  N6  UNL     1      18.486  -0.576  52.735  1.00  0.00    -0.277 N 
HETATM   10  N5  UNL     1      19.604  -0.342  53.405  1.00  0.00    -0.172 NA
HETATM   11  C17 UNL     1      17.276  -1.238  53.213  1.00  0.00     0.179 C 
HETATM   12  C15 UNL     1      21.785   0.782  52.743  1.00  0.00     0.064 A 
ENDBRANCH   1   2
BRANCH   1  13
HETATM   13  C7  UNL     1      24.697   1.309  52.826  1.00  0.00     0.252 C 
BRANCH  13  14
HETATM   14  N2  UNL     1      25.314   0.106  52.320  1.00  0.00    -0.376 N 
HETATM   15  H8  UNL     1      25.434  -0.206  51.339  1.00  0.00     0.161 HD
BRANCH  14  16
HETATM   16  C8  UNL     1      25.733  -0.576  53.512  1.00  0.00     0.137 C 
BRANCH  16  17
HETATM   17  C9  UNL     1      26.751   0.001  54.139  1.00  0.00    -0.115 C 
BRANCH  17  18
HETATM   18  C10 UNL     1      27.842   0.318  54.825  1.00  0.00     0.226 C 
BRANCH  18  19
HETATM   19  S1  UNL     1      29.028   1.319  54.058  1.00  0.00     0.224 S 
HETATM   20  O1  UNL     1      28.373   2.035  52.902  1.00  0.00    -0.210 OA
HETATM   21  O2  UNL     1      29.604   2.283  55.050  1.00  0.00    -0.210 OA
BRANCH  19  22
HETATM   22  N3  UNL     1      30.300   0.328  53.430  1.00  0.00    -0.228 NA
HETATM   23  H11 UNL     1      31.202   0.851  53.364  1.00  0.00     0.136 HD
HETATM   24  H12 UNL     1      30.064  -0.021  52.463  1.00  0.00     0.136 HD
ENDBRANCH  19  22
ENDBRANCH  18  19
ENDBRANCH  17  18
ENDBRANCH  16  17
ENDBRANCH  14  16
ENDBRANCH  13  14
ENDBRANCH   1  13
BRANCH   1  25
HETATM   25  C11 UNL     1      24.166   2.996  51.021  1.00  0.00     0.069 C 
HETATM   26  C12 UNL     1      23.970   4.188  51.562  1.00  0.00     0.114 C 
HETATM   27  N4  UNL     1      24.071   5.135  50.691  1.00  0.00    -0.256 NA
HETATM   28  C13 UNL     1      24.670   4.585  49.514  1.00  0.00     0.120 C 
HETATM   29  C14 UNL     1      24.746   3.256  49.684  1.00  0.00     0.051 C 
ENDBRANCH   1  25
TORSDOF 9
ENDMDL
MODEL 8
REMARK VINA RESULT:      -7.1      1.714      5.463
REMARK  9 active torsions:
REMARK  status: ('A' for Active; 'I' for Inactive)
REMARK    1  A    between atoms: C6_6  and  N1_7 
REMARK    2  A    between atoms: N1_7  and  C7_8 
REMARK    3  A    between atoms: N1_7  and  C11_17 
REMARK    4  A    between atoms: C7_8  and  N2_9 
REMARK    5  A    between atoms: N2_9  and  C8_10 
REMARK    6  A    between atoms: C8_10  and  C9_11 
REMARK    7  A    between atoms: C9_11  and  C10_12 
REMARK    8  A    between atoms: C10_12  and  S1_13 
REMARK    9  A    between atoms: S1_13  and  N3_14 
ROOT
HETATM    1  N1  UNL     1      23.173   0.750  52.272  1.00  0.00    -0.328 N 
ENDROOT
BRANCH   1   2
HETATM    2  C6  UNL     1      24.530   0.856  52.692  1.00  0.00     0.038 A 
HETATM    3  C5  UNL     1      25.048   2.027  53.248  1.00  0.00     0.031 A 
HETATM    4  C4  UNL     1      26.358   2.151  53.661  1.00  0.00     0.018 A 
HETATM    5  C3  UNL     1      27.191   1.077  53.521  1.00  0.00     0.018 A 
HETATM    6  C2  UNL     1      28.523   0.950  53.854  1.00  0.00     0.039 A 
HETATM    7  C16 UNL     1      26.737  -0.106  52.981  1.00  0.00     0.091 A 
HETATM    8  C1  UNL     1      29.393   1.987  54.461  1.00  0.00     0.071 C 
HETATM    9  N6  UNL     1      28.857  -0.300  53.511  1.00  0.00    -0.277 N 
HETATM   10  N5  UNL     1      27.813  -0.932  52.996  1.00  0.00    -0.172 NA
HETATM   11  C17 UNL     1      30.208  -0.816  53.713  1.00  0.00     0.179 C 
HETATM   12  C15 UNL     1      25.416  -0.202  52.574  1.00  0.00     0.064 A 
ENDBRANCH   1   2
BRANCH   1  13
HETATM   13  C7  UNL     1      22.718   1.399  51.039  1.00  0.00     0.252 C 
BRANCH  13  14
HETATM   14  N2  UNL     1      23.027   2.809  51.024  1.00  0.00    -0.376 N 
HETATM   15  H8  UNL     1      22.888   3.518  51.767  1.00  0.00     0.161 HD
BRANCH  14  16
HETATM   16  C8  UNL     1      23.585   3.010  49.716  1.00  0.00     0.137 C 
BRANCH  16  17
HETATM   17  C9  UNL     1      23.814   4.281  49.412  1.00  0.00    -0.115 C 
BRANCH  17  18
HETATM   18  C10 UNL     1      24.212   5.544  49.324  1.00  0.00     0.226 C 
BRANCH  18  19
HETATM   19  S1  UNL     1      24.139   6.525  50.748  1.00  0.00     0.224 S 
HETATM   20  O1  UNL     1      23.086   7.587  50.541  1.00  0.00    -0.210 OA
HETATM   21  O2  UNL     1      23.836   5.673  51.943  1.00  0.00    -0.210 OA
BRANCH  19  22
HETATM   22  N3  UNL     1      25.662   7.310  50.986  1.00  0.00    -0.228 NA
HETATM   23  H11 UNL     1      25.574   8.148  51.606  1.00  0.00     0.136 HD
HETATM   24  H12 UNL     1      26.066   7.637  50.068  1.00  0.00     0.136 HD
ENDBRANCH  19  22
ENDBRANCH  18  19
ENDBRANCH  17  18
ENDBRANCH  16  17
ENDBRANCH  14  16
ENDBRANCH  13  14
ENDBRANCH   1  13
BRANCH   1  25
HETATM   25  C11 UNL     1      22.290  -0.008  53.094  1.00  0.00     0.069 C 
HETATM   26  C12 UNL     1      21.044  -0.059  52.649  1.00  0.00     0.114 C 
HETATM   27  N4  UNL     1      20.231  -0.510  53.545  1.00  0.00    -0.256 NA
HETATM   28  C13 UNL     1      21.013  -1.091  54.593  1.00  0.00     0.120 C 
HETATM   29  C14 UNL     1      22.299  -0.800  54.345  1.00  0.00     0.051 C 
ENDBRANCH   1  25
TORSDOF 9
ENDMDL
MODEL 9
REMARK VINA RESULT:      -7.0      3.270      7.499
REMARK  9 active torsions:
REMARK  status: ('A' for Active; 'I' for Inactive)
REMARK    1  A    between atoms: C6_6  and  N1_7 
REMARK    2  A    between atoms: N1_7  and  C7_8 
REMARK    3  A    between atoms: N1_7  and  C11_17 
REMARK    4  A    between atoms: C7_8  and  N2_9 
REMARK    5  A    between atoms: N2_9  and  C8_10 
REMARK    6  A    between atoms: C8_10  and  C9_11 
REMARK    7  A    between atoms: C9_11  and  C10_12 
REMARK    8  A    between atoms: C10_12  and  S1_13 
REMARK    9  A    between atoms: S1_13  and  N3_14 
ROOT
HETATM    1  N1  UNL     1      22.853   3.094  51.699  1.00  0.00    -0.328 N 
ENDROOT
BRANCH   1   2
HETATM    2  C6  UNL     1      23.881   3.806  51.017  1.00  0.00     0.038 A 
HETATM    3  C5  UNL     1      24.825   3.165  50.214  1.00  0.00     0.031 A 
HETATM    4  C4  UNL     1      25.828   3.834  49.546  1.00  0.00     0.018 A 
HETATM    5  C3  UNL     1      25.903   5.192  49.673  1.00  0.00     0.018 A 
HETATM    6  C2  UNL     1      26.800   6.078  49.113  1.00  0.00     0.039 A 
HETATM    7  C16 UNL     1      24.999   5.882  50.451  1.00  0.00     0.091 A 
HETATM    8  C1  UNL     1      27.932   5.752  48.212  1.00  0.00     0.071 C 
HETATM    9  N6  UNL     1      26.430   7.286  49.558  1.00  0.00    -0.277 N 
HETATM   10  N5  UNL     1      25.371   7.183  50.346  1.00  0.00    -0.172 NA
HETATM   11  C17 UNL     1      27.150   8.497  49.176  1.00  0.00     0.179 C 
HETATM   12  C15 UNL     1      24.002   5.183  51.111  1.00  0.00     0.064 A 
ENDBRANCH   1   2
BRANCH   1  13
HETATM   13  C7  UNL     1      23.184   2.104  52.728  1.00  0.00     0.252 C 
BRANCH  13  14
HETATM   14  N2  UNL     1      23.293   0.772  52.182  1.00  0.00    -0.376 N 
HETATM   15  H8  UNL     1      22.816   0.361  51.359  1.00  0.00     0.161 HD
BRANCH  14  16
HETATM   16  C8  UNL     1      24.233   0.132  53.058  1.00  0.00     0.137 C 
BRANCH  16  17
HETATM   17  C9  UNL     1      25.491   0.183  52.637  1.00  0.00    -0.115 C 
BRANCH  17  18
HETATM   18  C10 UNL     1      26.808   0.191  52.482  1.00  0.00     0.226 C 
BRANCH  18  19
HETATM   19  S1  UNL     1      27.785   0.746  53.799  1.00  0.00     0.224 S 
HETATM   20  O1  UNL     1      26.978   1.731  54.609  1.00  0.00    -0.210 OA
HETATM   21  O2  UNL     1      28.231  -0.418  54.632  1.00  0.00    -0.210 OA
BRANCH  19  22
HETATM   22  N3  UNL     1      29.178   1.563  53.180  1.00  0.00    -0.228 NA
HETATM   23  H11 UNL     1      29.820   1.870  53.946  1.00  0.00     0.136 HD
HETATM   24  H12 UNL     1      28.900   2.423  52.636  1.00  0.00     0.136 HD
ENDBRANCH  19  22
ENDBRANCH  18  19
ENDBRANCH  17  18
ENDBRANCH  16  17
ENDBRANCH  14  16
ENDBRANCH  13  14
ENDBRANCH   1  13
BRANCH   1  25
HETATM   25  C11 UNL     1      21.506   3.386  51.341  1.00  0.00     0.069 C 
HETATM   26  C12 UNL     1      20.683   3.502  52.372  1.00  0.00     0.114 C 
HETATM   27  N4  UNL     1      19.446   3.491  52.004  1.00  0.00    -0.256 NA
HETATM   28  C13 UNL     1      19.408   3.674  50.586  1.00  0.00     0.120 C 
HETATM   29  C14 UNL     1      20.673   3.615  50.139  1.00  0.00     0.051 C 
ENDBRANCH   1  25
TORSDOF 9
ENDMDL
