MODEL 1
REMARK VINA RESULT:      -7.9      0.000      0.000
REMARK  7 active torsions:
REMARK  status: ('A' for Active; 'I' for Inactive)
REMARK    1  A    between atoms: O1_2  and  C2_3 
REMARK    2  A    between atoms: C8_10  and  C9_11 
REMARK       I    between atoms: C9_11  and  N2_13 
REMARK    3  A    between atoms: N2_13  and  C10_14 
REMARK    4  A    between atoms: C13_17  and  N3_18 
REMARK    5  A    between atoms: C20_27  and  C21_28 
REMARK    6  A    between atoms: C21_28  and  C22_29 
REMARK    7  A    between atoms: C22_29  and  O3_30 
ROOT
HETATM    1  C9  UNL     1      30.597   5.948  47.978  1.00  0.00     0.250 C 
HETATM    2  O2  UNL     1      30.357   5.497  49.106  1.00  0.00    -0.268 OA
HETATM    3  N2  UNL     1      29.400   6.469  47.367  1.00  0.00    -0.322 N 
HETATM    4  H9  UNL     1      29.429   6.884  46.410  1.00  0.00     0.169 HD
ENDROOT
BRANCH   1   5
HETATM    5  C8  UNL     1      31.918   5.972  47.310  1.00  0.00     0.015 C 
HETATM    6  C7  UNL     1      32.960   6.754  47.433  1.00  0.00     0.109 C 
HETATM    7  N1  UNL     1      33.877   7.758  47.809  1.00  0.00    -0.307 NA
HETATM    8  C6  UNL     1      34.990   7.395  48.385  1.00  0.00     0.207 C 
HETATM    9  C5  UNL     1      35.404   6.067  48.687  1.00  0.00     0.013 C 
HETATM   10  C4  UNL     1      35.098   4.856  48.570  1.00  0.00     0.003 C 
HETATM   11  C3  UNL     1      34.416   3.624  48.233  1.00  0.00     0.032 C 
HETATM   12  C2  UNL     1      33.302   3.283  47.555  1.00  0.00     0.046 C 
HETATM   13  C23 UNL     1      32.098   3.551  46.754  1.00  0.00     0.077 C 
HETATM   14  C20 UNL     1      32.053   4.987  46.264  1.00  0.00     0.052 C 
BRANCH  12  15
HETATM   15  O1  UNL     1      33.168   1.886  47.593  1.00  0.00    -0.360 OA
HETATM   16  C1  UNL     1      32.214   1.209  46.798  1.00  0.00     0.209 C 
ENDBRANCH  12  15
BRANCH  14  17
HETATM   17  C21 UNL     1      33.162   5.281  45.353  1.00  0.00     0.007 C 
BRANCH  17  18
HETATM   18  C22 UNL     1      33.184   4.940  44.081  1.00  0.00     0.128 C 
BRANCH  18  19
HETATM   19  O3  UNL     1      33.143   4.328  42.844  1.00  0.00    -0.373 OA
HETATM   20  H27 UNL     1      32.261   3.954  42.505  1.00  0.00     0.216 HD
ENDBRANCH  18  19
ENDBRANCH  17  18
ENDBRANCH  14  17
ENDBRANCH   1   5
BRANCH   3  21
HETATM   21  C10 UNL     1      28.230   6.350  48.192  1.00  0.00     0.052 A 
HETATM   22  C11 UNL     1      27.874   5.011  48.378  1.00  0.00     0.035 A 
HETATM   23  C12 UNL     1      26.747   4.785  49.168  1.00  0.00     0.052 A 
HETATM   24  C13 UNL     1      26.049   5.835  49.718  1.00  0.00     0.125 A 
HETATM   25  N5  UNL     1      26.438   7.117  49.505  1.00  0.00    -0.241 NA
HETATM   26  C19 UNL     1      27.515   7.380  48.752  1.00  0.00     0.148 A 
BRANCH  24  27
HETATM   27  N3  UNL     1      24.887   5.703  50.541  1.00  0.00    -0.362 N 
HETATM   28  C14 UNL     1      24.156   6.827  51.110  1.00  0.00     0.154 C 
HETATM   29  C15 UNL     1      22.689   6.655  50.787  1.00  0.00     0.291 C 
HETATM   30  N4  UNL     1      22.564   5.655  49.774  1.00  0.00     0.087 N 
HETATM   31  C16 UNL     1      21.352   5.717  49.003  1.00  0.00     0.310 C 
HETATM   32  C17 UNL     1      22.867   4.338  50.289  1.00  0.00     0.291 C 
HETATM   33  C18 UNL     1      24.242   4.468  50.943  1.00  0.00     0.154 C 
ENDBRANCH  24  27
ENDBRANCH   3  21
TORSDOF 7
ENDMDL
MODEL 2
REMARK VINA RESULT:      -7.4      5.458      9.147
REMARK  7 active torsions:
REMARK  status: ('A' for Active; 'I' for Inactive)
REMARK    1  A    between atoms: O1_2  and  C2_3 
REMARK    2  A    between atoms: C8_10  and  C9_11 
REMARK       I    between atoms: C9_11  and  N2_13 
REMARK    3  A    between atoms: N2_13  and  C10_14 
REMARK    4  A    between atoms: C13_17  and  N3_18 
REMARK    5  A    between atoms: C20_27  and  C21_28 
REMARK    6  A    between atoms: C21_28  and  C22_29 
REMARK    7  A    between atoms: C22_29  and  O3_30 
ROOT
HETATM    1  C9  UNL     1      25.615   5.939  49.291  1.00  0.00     0.250 C 
HETATM    2  O2  UNL     1      25.375   6.570  48.253  1.00  0.00    -0.268 OA
HETATM    3  N2  UNL     1      26.361   6.747  50.222  1.00  0.00    -0.322 N 
HETATM    4  H9  UNL     1      26.649   6.363  51.149  1.00  0.00     0.169 HD
ENDROOT
BRANCH   1   5
HETATM    5  C8  UNL     1      25.208   4.545  49.581  1.00  0.00     0.015 C 
HETATM    6  C7  UNL     1      25.841   3.528  50.106  1.00  0.00     0.109 C 
HETATM    7  N1  UNL     1      26.793   2.666  50.689  1.00  0.00    -0.307 NA
HETATM    8  C6  UNL     1      26.562   2.210  51.890  1.00  0.00     0.207 C 
HETATM    9  C5  UNL     1      25.428   2.486  52.705  1.00  0.00     0.013 C 
HETATM   10  C4  UNL     1      24.319   3.072  52.740  1.00  0.00     0.003 C 
HETATM   11  C3  UNL     1      23.148   3.847  52.387  1.00  0.00     0.032 C 
HETATM   12  C2  UNL     1      22.700   4.485  51.288  1.00  0.00     0.046 C 
HETATM   13  C23 UNL     1      22.766   4.927  49.887  1.00  0.00     0.077 C 
HETATM   14  C20 UNL     1      23.877   4.227  49.124  1.00  0.00     0.052 C 
BRANCH  12  15
HETATM   15  O1  UNL     1      21.465   5.079  51.591  1.00  0.00    -0.360 OA
HETATM   16  C1  UNL     1      20.514   5.371  50.585  1.00  0.00     0.209 C 
ENDBRANCH  12  15
BRANCH  14  17
HETATM   17  C21 UNL     1      23.642   2.784  49.034  1.00  0.00     0.007 C 
BRANCH  17  18
HETATM   18  C22 UNL     1      22.538   2.242  48.564  1.00  0.00     0.128 C 
BRANCH  18  19
HETATM   19  O3  UNL     1      21.465   1.448  48.211  1.00  0.00    -0.373 OA
HETATM   20  H27 UNL     1      21.280   1.274  47.227  1.00  0.00     0.216 HD
ENDBRANCH  18  19
ENDBRANCH  17  18
ENDBRANCH  14  17
ENDBRANCH   1   5
BRANCH   3  21
HETATM   21  C10 UNL     1      26.646   8.071  49.742  1.00  0.00     0.052 A 
HETATM   22  C11 UNL     1      27.866   8.112  49.061  1.00  0.00     0.035 A 
HETATM   23  C12 UNL     1      28.236   9.357  48.551  1.00  0.00     0.052 A 
HETATM   24  C13 UNL     1      27.431  10.458  48.724  1.00  0.00     0.125 A 
HETATM   25  N5  UNL     1      26.255  10.363  49.395  1.00  0.00    -0.241 NA
HETATM   26  C19 UNL     1      25.861   9.186  49.901  1.00  0.00     0.148 A 
BRANCH  24  27
HETATM   27  N3  UNL     1      27.724  11.770  48.237  1.00  0.00    -0.362 N 
HETATM   28  C14 UNL     1      28.644  12.696  48.885  1.00  0.00     0.154 C 
HETATM   29  C15 UNL     1      29.618  13.207  47.847  1.00  0.00     0.291 C 
HETATM   30  N4  UNL     1      29.521  12.374  46.689  1.00  0.00     0.087 N 
HETATM   31  C16 UNL     1      30.678  12.382  45.836  1.00  0.00     0.310 C 
HETATM   32  C17 UNL     1      28.273  12.582  45.990  1.00  0.00     0.291 C 
HETATM   33  C18 UNL     1      27.184  12.398  47.047  1.00  0.00     0.154 C 
ENDBRANCH  24  27
ENDBRANCH   3  21
TORSDOF 7
ENDMDL
MODEL 3
REMARK VINA RESULT:      -7.3      2.820      4.500
REMARK  7 active torsions:
REMARK  status: ('A' for Active; 'I' for Inactive)
REMARK    1  A    between atoms: O1_2  and  C2_3 
REMARK    2  A    between atoms: C8_10  and  C9_11 
REMARK       I    between atoms: C9_11  and  N2_13 
REMARK    3  A    between atoms: N2_13  and  C10_14 
REMARK    4  A    between atoms: C13_17  and  N3_18 
REMARK    5  A    between atoms: C20_27  and  C21_28 
REMARK    6  A    between atoms: C21_28  and  C22_29 
REMARK    7  A    between atoms: C22_29  and  O3_30 
ROOT
HETATM    1  C9  UNL     1      27.128   7.411  48.073  1.00  0.00     0.250 C 
HETATM    2  O2  UNL     1      26.068   7.195  47.472  1.00  0.00    -0.268 OA
HETATM    3  N2  UNL     1      27.149   6.726  49.341  1.00  0.00    -0.322 N 
HETATM    4  H9  UNL     1      27.973   6.807  49.976  1.00  0.00     0.169 HD
ENDROOT
BRANCH   1   5
HETATM    5  C8  UNL     1      28.250   8.250  47.593  1.00  0.00     0.015 C 
HETATM    6  C7  UNL     1      28.496   9.533  47.676  1.00  0.00     0.109 C 
HETATM    7  N1  UNL     1      28.448  10.918  47.938  1.00  0.00    -0.307 NA
HETATM    8  C6  UNL     1      29.359  11.431  48.720  1.00  0.00     0.207 C 
HETATM    9  C5  UNL     1      30.428  10.740  49.357  1.00  0.00     0.013 C 
HETATM   10  C4  UNL     1      30.993   9.625  49.470  1.00  0.00     0.003 C 
HETATM   11  C3  UNL     1      31.348   8.229  49.326  1.00  0.00     0.032 C 
HETATM   12  C2  UNL     1      30.905   7.183  48.601  1.00  0.00     0.046 C 
HETATM   13  C23 UNL     1      30.042   6.522  47.612  1.00  0.00     0.077 C 
HETATM   14  C20 UNL     1      29.223   7.522  46.816  1.00  0.00     0.052 C 
BRANCH  12  15
HETATM   15  O1  UNL     1      31.676   6.057  48.927  1.00  0.00    -0.360 OA
HETATM   16  C1  UNL     1      31.856   4.990  48.017  1.00  0.00     0.209 C 
ENDBRANCH  12  15
BRANCH  14  17
HETATM   17  C21 UNL     1      30.076   8.402  46.014  1.00  0.00     0.007 C 
BRANCH  17  18
HETATM   18  C22 UNL     1      30.754   8.011  44.956  1.00  0.00     0.128 C 
BRANCH  18  19
HETATM   19  O3  UNL     1      31.262   7.728  43.702  1.00  0.00    -0.373 OA
HETATM   20  H27 UNL     1      31.435   8.491  43.054  1.00  0.00     0.216 HD
ENDBRANCH  18  19
ENDBRANCH  17  18
ENDBRANCH  14  17
ENDBRANCH   1   5
BRANCH   3  21
HETATM   21  C10 UNL     1      25.961   5.964  49.607  1.00  0.00     0.052 A 
HETATM   22  C11 UNL     1      26.127   4.623  49.248  1.00  0.00     0.035 A 
HETATM   23  C12 UNL     1      25.027   3.793  49.468  1.00  0.00     0.052 A 
HETATM   24  C13 UNL     1      23.863   4.292  50.006  1.00  0.00     0.125 A 
HETATM   25  N5  UNL     1      23.755   5.604  50.336  1.00  0.00    -0.241 NA
HETATM   26  C19 UNL     1      24.788   6.436  50.142  1.00  0.00     0.148 A 
BRANCH  24  27
HETATM   27  N3  UNL     1      22.689   3.521  50.269  1.00  0.00    -0.362 N 
HETATM   28  C14 UNL     1      22.290   2.350  49.498  1.00  0.00     0.154 C 
HETATM   29  C15 UNL     1      22.003   1.220  50.462  1.00  0.00     0.291 C 
HETATM   30  N4  UNL     1      22.531   1.574  51.742  1.00  0.00     0.087 N 
HETATM   31  C16 UNL     1      22.804   0.464  52.614  1.00  0.00     0.310 C 
HETATM   32  C17 UNL     1      21.764   2.633  52.358  1.00  0.00     0.291 C 
HETATM   33  C18 UNL     1      21.713   3.751  51.317  1.00  0.00     0.154 C 
ENDBRANCH  24  27
ENDBRANCH   3  21
TORSDOF 7
ENDMDL
MODEL 4
REMARK VINA RESULT:      -7.3      2.128      3.887
REMARK  7 active torsions:
REMARK  status: ('A' for Active; 'I' for Inactive)
REMARK    1  A    between atoms: O1_2  and  C2_3 
REMARK    2  A    between atoms: C8_10  and  C9_11 
REMARK       I    between atoms: C9_11  and  N2_13 
REMARK    3  A    between atoms: N2_13  and  C10_14 
REMARK    4  A    between atoms: C13_17  and  N3_18 
REMARK    5  A    between atoms: C20_27  and  C21_28 
REMARK    6  A    between atoms: C21_28  and  C22_29 
REMARK    7  A    between atoms: C22_29  and  O3_30 
ROOT
HETATM    1  C9  UNL     1      30.827   5.711  48.197  1.00  0.00     0.250 C 
HETATM    2  O2  UNL     1      30.468   5.404  49.340  1.00  0.00    -0.268 OA
HETATM    3  N2  UNL     1      29.718   6.222  47.430  1.00  0.00    -0.322 N 
HETATM    4  H9  UNL     1      29.850   6.525  46.440  1.00  0.00     0.169 HD
ENDROOT
BRANCH   1   5
HETATM    5  C8  UNL     1      32.197   5.591  47.648  1.00  0.00     0.015 C 
HETATM    6  C7  UNL     1      32.690   4.930  46.631  1.00  0.00     0.109 C 
HETATM    7  N1  UNL     1      32.881   4.114  45.497  1.00  0.00    -0.307 NA
HETATM    8  C6  UNL     1      33.272   4.679  44.387  1.00  0.00     0.207 C 
HETATM    9  C5  UNL     1      33.539   6.062  44.179  1.00  0.00     0.013 C 
HETATM   10  C4  UNL     1      33.604   7.181  44.744  1.00  0.00     0.003 C 
HETATM   11  C3  UNL     1      33.578   8.240  45.731  1.00  0.00     0.032 C 
HETATM   12  C2  UNL     1      33.369   8.327  47.059  1.00  0.00     0.046 C 
HETATM   13  C23 UNL     1      33.093   7.789  48.400  1.00  0.00     0.077 C 
HETATM   14  C20 UNL     1      33.195   6.275  48.434  1.00  0.00     0.052 C 
BRANCH  12  15
HETATM   15  O1  UNL     1      33.467   9.674  47.438  1.00  0.00    -0.360 OA
HETATM   16  C1  UNL     1      32.598  10.659  46.913  1.00  0.00     0.209 C 
ENDBRANCH  12  15
BRANCH  14  17
HETATM   17  C21 UNL     1      34.555   5.818  48.138  1.00  0.00     0.007 C 
BRANCH  17  18
HETATM   18  C22 UNL     1      35.497   5.664  49.045  1.00  0.00     0.128 C 
BRANCH  18  19
HETATM   19  O3  UNL     1      36.511   5.780  49.975  1.00  0.00    -0.373 OA
HETATM   20  H27 UNL     1      37.037   6.648  50.029  1.00  0.00     0.216 HD
ENDBRANCH  18  19
ENDBRANCH  17  18
ENDBRANCH  14  17
ENDBRANCH   1   5
BRANCH   3  21
HETATM   21  C10 UNL     1      28.480   6.258  48.157  1.00  0.00     0.052 A 
HETATM   22  C11 UNL     1      28.127   7.568  48.495  1.00  0.00     0.035 A 
HETATM   23  C12 UNL     1      26.934   7.713  49.205  1.00  0.00     0.052 A 
HETATM   24  C13 UNL     1      26.173   6.617  49.538  1.00  0.00     0.125 A 
HETATM   25  N5  UNL     1      26.563   5.366  49.185  1.00  0.00    -0.241 NA
HETATM   26  C19 UNL     1      27.702   5.181  48.502  1.00  0.00     0.148 A 
BRANCH  24  27
HETATM   27  N3  UNL     1      24.940   6.667  50.259  1.00  0.00    -0.362 N 
HETATM   28  C14 UNL     1      24.251   7.901  50.615  1.00  0.00     0.154 C 
HETATM   29  C15 UNL     1      22.807   7.784  50.181  1.00  0.00     0.291 C 
HETATM   30  N4  UNL     1      22.693   6.672  49.290  1.00  0.00     0.087 N 
HETATM   31  C16 UNL     1      21.559   6.713  48.408  1.00  0.00     0.310 C 
HETATM   32  C17 UNL     1      22.850   5.416  49.988  1.00  0.00     0.291 C 
HETATM   33  C18 UNL     1      24.171   5.539  50.747  1.00  0.00     0.154 C 
ENDBRANCH  24  27
ENDBRANCH   3  21
TORSDOF 7
ENDMDL
MODEL 5
REMARK VINA RESULT:      -7.2      8.282     13.235
REMARK  7 active torsions:
REMARK  status: ('A' for Active; 'I' for Inactive)
REMARK    1  A    between atoms: O1_2  and  C2_3 
REMARK    2  A    between atoms: C8_10  and  C9_11 
REMARK       I    between atoms: C9_11  and  N2_13 
REMARK    3  A    between atoms: N2_13  and  C10_14 
REMARK    4  A    between atoms: C13_17  and  N3_18 
REMARK    5  A    between atoms: C20_27  and  C21_28 
REMARK    6  A    between atoms: C21_28  and  C22_29 
REMARK    7  A    between atoms: C22_29  and  O3_30 
ROOT
HETATM    1  C9  UNL     1      20.183   2.868  51.586  1.00  0.00     0.250 C 
HETATM    2  O2  UNL     1      20.770   3.034  52.663  1.00  0.00    -0.268 OA
HETATM    3  N2  UNL     1      20.859   1.884  50.778  1.00  0.00    -0.322 N 
HETATM    4  H9  UNL     1      20.494   1.629  49.834  1.00  0.00     0.169 HD
ENDROOT
BRANCH   1   5
HETATM    5  C8  UNL     1      18.950   3.561  51.147  1.00  0.00     0.015 C 
HETATM    6  C7  UNL     1      18.744   4.615  50.400  1.00  0.00     0.109 C 
HETATM    7  N1  UNL     1      18.879   5.754  49.578  1.00  0.00    -0.307 NA
HETATM    8  C6  UNL     1      18.407   5.698  48.363  1.00  0.00     0.207 C 
HETATM    9  C5  UNL     1      17.751   4.594  47.749  1.00  0.00     0.013 C 
HETATM   10  C4  UNL     1      17.318   3.433  47.944  1.00  0.00     0.003 C 
HETATM   11  C3  UNL     1      16.962   2.170  48.556  1.00  0.00     0.032 C 
HETATM   12  C2  UNL     1      17.050   1.626  49.785  1.00  0.00     0.046 C 
HETATM   13  C23 UNL     1      17.389   1.621  51.216  1.00  0.00     0.077 C 
HETATM   14  C20 UNL     1      17.745   3.010  51.718  1.00  0.00     0.052 C 
BRANCH  12  15
HETATM   15  O1  UNL     1      16.529   0.324  49.735  1.00  0.00    -0.360 OA
HETATM   16  C1  UNL     1      16.455  -0.493  50.887  1.00  0.00     0.209 C 
ENDBRANCH  12  15
BRANCH  14  17
HETATM   17  C21 UNL     1      16.606   3.926  51.622  1.00  0.00     0.007 C 
BRANCH  17  18
HETATM   18  C22 UNL     1      15.816   4.232  52.630  1.00  0.00     0.128 C 
BRANCH  18  19
HETATM   19  O3  UNL     1      15.226   4.568  53.833  1.00  0.00    -0.373 OA
HETATM   20  H27 UNL     1      15.590   5.356  54.360  1.00  0.00     0.216 HD
ENDBRANCH  18  19
ENDBRANCH  17  18
ENDBRANCH  14  17
ENDBRANCH   1   5
BRANCH   3  21
HETATM   21  C10 UNL     1      22.032   1.334  51.398  1.00  0.00     0.052 A 
HETATM   22  C11 UNL     1      21.710   0.257  52.230  1.00  0.00     0.035 A 
HETATM   23  C12 UNL     1      22.783  -0.352  52.880  1.00  0.00     0.052 A 
HETATM   24  C13 UNL     1      24.069   0.101  52.696  1.00  0.00     0.125 A 
HETATM   25  N5  UNL     1      24.327   1.151  51.877  1.00  0.00    -0.241 NA
HETATM   26  C19 UNL     1      23.325   1.766  51.231  1.00  0.00     0.148 A 
BRANCH  24  27
HETATM   27  N3  UNL     1      25.229  -0.459  53.316  1.00  0.00    -0.362 N 
HETATM   28  C14 UNL     1      26.252  -1.214  52.603  1.00  0.00     0.154 C 
HETATM   29  C15 UNL     1      27.604  -0.634  52.955  1.00  0.00     0.291 C 
HETATM   30  N4  UNL     1      27.401   0.634  53.582  1.00  0.00     0.087 N 
HETATM   31  C16 UNL     1      28.525   1.529  53.522  1.00  0.00     0.310 C 
HETATM   32  C17 UNL     1      26.837   0.487  54.905  1.00  0.00     0.291 C 
HETATM   33  C18 UNL     1      25.592  -0.379  54.717  1.00  0.00     0.154 C 
ENDBRANCH  24  27
ENDBRANCH   3  21
TORSDOF 7
ENDMDL
MODEL 6
REMARK VINA RESULT:      -7.2      6.702      9.646
REMARK  7 active torsions:
REMARK  status: ('A' for Active; 'I' for Inactive)
REMARK    1  A    between atoms: O1_2  and  C2_3 
REMARK    2  A    between atoms: C8_10  and  C9_11 
REMARK       I    between atoms: C9_11  and  N2_13 
REMARK    3  A    between atoms: N2_13  and  C10_14 
REMARK    4  A    between atoms: C13_17  and  N3_18 
REMARK    5  A    between atoms: C20_27  and  C21_28 
REMARK    6  A    between atoms: C21_28  and  C22_29 
REMARK    7  A    between atoms: C22_29  and  O3_30 
ROOT
HETATM    1  C9  UNL     1      23.940   5.461  50.676  1.00  0.00     0.250 C 
HETATM    2  O2  UNL     1      23.955   5.220  51.890  1.00  0.00    -0.268 OA
HETATM    3  N2  UNL     1      24.472   4.351  49.925  1.00  0.00    -0.322 N 
HETATM    4  H9  UNL     1      24.534   4.393  48.884  1.00  0.00     0.169 HD
ENDROOT
BRANCH   1   5
HETATM    5  C8  UNL     1      23.451   6.704  50.037  1.00  0.00     0.015 C 
HETATM    6  C7  UNL     1      24.042   7.825  49.710  1.00  0.00     0.109 C 
HETATM    7  N1  UNL     1      24.965   8.870  49.497  1.00  0.00    -0.307 NA
HETATM    8  C6  UNL     1      25.239   9.212  48.268  1.00  0.00     0.207 C 
HETATM    9  C5  UNL     1      24.701   8.641  47.080  1.00  0.00     0.013 C 
HETATM   10  C4  UNL     1      23.878   7.803  46.638  1.00  0.00     0.003 C 
HETATM   11  C3  UNL     1      22.856   6.782  46.538  1.00  0.00     0.032 C 
HETATM   12  C2  UNL     1      22.081   6.095  47.399  1.00  0.00     0.046 C 
HETATM   13  C23 UNL     1      21.567   5.733  48.729  1.00  0.00     0.077 C 
HETATM   14  C20 UNL     1      22.028   6.707  49.798  1.00  0.00     0.052 C 
BRANCH  12  15
HETATM   15  O1  UNL     1      21.276   5.210  46.665  1.00  0.00    -0.360 OA
HETATM   16  C1  UNL     1      21.775   3.977  46.184  1.00  0.00     0.209 C 
ENDBRANCH  12  15
BRANCH  14  17
HETATM   17  C21 UNL     1      21.499   8.054  49.564  1.00  0.00     0.007 C 
BRANCH  17  18
HETATM   18  C22 UNL     1      20.241   8.395  49.745  1.00  0.00     0.128 C 
BRANCH  18  19
HETATM   19  O3  UNL     1      18.883   8.639  49.683  1.00  0.00    -0.373 OA
HETATM   20  H27 UNL     1      18.546   9.430  49.141  1.00  0.00     0.216 HD
ENDBRANCH  18  19
ENDBRANCH  17  18
ENDBRANCH  14  17
ENDBRANCH   1   5
BRANCH   3  21
HETATM   21  C10 UNL     1      24.884   3.244  50.743  1.00  0.00     0.052 A 
HETATM   22  C11 UNL     1      26.277   3.171  50.835  1.00  0.00     0.035 A 
HETATM   23  C12 UNL     1      26.782   2.127  51.611  1.00  0.00     0.052 A 
HETATM   24  C13 UNL     1      25.937   1.240  52.235  1.00  0.00     0.125 A 
HETATM   25  N5  UNL     1      24.591   1.356  52.112  1.00  0.00    -0.241 NA
HETATM   26  C19 UNL     1      24.063   2.344  51.377  1.00  0.00     0.148 A 
BRANCH  24  27
HETATM   27  N3  UNL     1      26.360   0.144  53.050  1.00  0.00    -0.362 N 
HETATM   28  C14 UNL     1      26.612  -1.200  52.546  1.00  0.00     0.154 C 
HETATM   29  C15 UNL     1      27.972  -1.646  53.034  1.00  0.00     0.291 C 
HETATM   30  N4  UNL     1      28.672  -0.501  53.527  1.00  0.00     0.087 N 
HETATM   31  C16 UNL     1      30.104  -0.627  53.552  1.00  0.00     0.310 C 
HETATM   32  C17 UNL     1      28.101  -0.025  54.767  1.00  0.00     0.291 C 
HETATM   33  C18 UNL     1      26.613   0.167  54.478  1.00  0.00     0.154 C 
ENDBRANCH  24  27
ENDBRANCH   3  21
TORSDOF 7
ENDMDL
MODEL 7
REMARK VINA RESULT:      -6.7      1.642      2.134
REMARK  7 active torsions:
REMARK  status: ('A' for Active; 'I' for Inactive)
REMARK    1  A    between atoms: O1_2  and  C2_3 
REMARK    2  A    between atoms: C8_10  and  C9_11 
REMARK       I    between atoms: C9_11  and  N2_13 
REMARK    3  A    between atoms: N2_13  and  C10_14 
REMARK    4  A    between atoms: C13_17  and  N3_18 
REMARK    5  A    between atoms: C20_27  and  C21_28 
REMARK    6  A    between atoms: C21_28  and  C22_29 
REMARK    7  A    between atoms: C22_29  and  O3_30 
ROOT
HETATM    1  C9  UNL     1      31.072   7.209  47.029  1.00  0.00     0.250 C 
HETATM    2  O2  UNL     1      30.144   7.549  46.284  1.00  0.00    -0.268 OA
HETATM    3  N2  UNL     1      30.610   7.047  48.385  1.00  0.00    -0.322 N 
HETATM    4  H9  UNL     1      31.270   6.766  49.143  1.00  0.00     0.169 HD
ENDROOT
BRANCH   1   5
HETATM    5  C8  UNL     1      32.479   6.986  46.627  1.00  0.00     0.015 C 
HETATM    6  C7  UNL     1      33.578   7.670  46.827  1.00  0.00     0.109 C 
HETATM    7  N1  UNL     1      34.539   8.626  47.215  1.00  0.00    -0.307 NA
HETATM    8  C6  UNL     1      35.481   8.257  48.039  1.00  0.00     0.207 C 
HETATM    9  C5  UNL     1      35.662   6.965  48.608  1.00  0.00     0.013 C 
HETATM   10  C4  UNL     1      35.225   5.789  48.619  1.00  0.00     0.003 C 
HETATM   11  C3  UNL     1      34.457   4.592  48.347  1.00  0.00     0.032 C 
HETATM   12  C2  UNL     1      33.441   4.254  47.530  1.00  0.00     0.046 C 
HETATM   13  C23 UNL     1      32.436   4.501  46.485  1.00  0.00     0.077 C 
HETATM   14  C20 UNL     1      32.661   5.829  45.785  1.00  0.00     0.052 C 
BRANCH  12  15
HETATM   15  O1  UNL     1      33.122   2.905  47.750  1.00  0.00    -0.360 OA
HETATM   16  C1  UNL     1      32.471   2.124  46.767  1.00  0.00     0.209 C 
ENDBRANCH  12  15
BRANCH  14  17
HETATM   17  C21 UNL     1      33.938   5.851  45.066  1.00  0.00     0.007 C 
BRANCH  17  18
HETATM   18  C22 UNL     1      34.166   5.200  43.945  1.00  0.00     0.128 C 
BRANCH  18  19
HETATM   19  O3  UNL     1      34.135   4.448  42.786  1.00  0.00    -0.373 OA
HETATM   20  H27 UNL     1      34.916   3.832  42.575  1.00  0.00     0.216 HD
ENDBRANCH  18  19
ENDBRANCH  17  18
ENDBRANCH  14  17
ENDBRANCH   1   5
BRANCH   3  21
HETATM   21  C10 UNL     1      29.207   7.309  48.553  1.00  0.00     0.052 A 
HETATM   22  C11 UNL     1      28.983   8.620  48.984  1.00  0.00     0.035 A 
HETATM   23  C12 UNL     1      27.648   8.977  49.177  1.00  0.00     0.052 A 
HETATM   24  C13 UNL     1      26.636   8.073  48.950  1.00  0.00     0.125 A 
HETATM   25  N5  UNL     1      26.909   6.811  48.534  1.00  0.00    -0.241 NA
HETATM   26  C19 UNL     1      28.178   6.426  48.335  1.00  0.00     0.148 A 
BRANCH  24  27
HETATM   27  N3  UNL     1      25.243   8.348  49.118  1.00  0.00    -0.362 N 
HETATM   28  C14 UNL     1      24.444   9.121  48.177  1.00  0.00     0.154 C 
HETATM   29  C15 UNL     1      23.198   8.330  47.846  1.00  0.00     0.291 C 
HETATM   30  N4  UNL     1      23.387   6.985  48.293  1.00  0.00     0.087 N 
HETATM   31  C16 UNL     1      22.565   6.005  47.635  1.00  0.00     0.310 C 
HETATM   32  C17 UNL     1      23.366   6.898  49.735  1.00  0.00     0.291 C 
HETATM   33  C18 UNL     1      24.397   7.919  50.215  1.00  0.00     0.154 C 
ENDBRANCH  24  27
ENDBRANCH   3  21
TORSDOF 7
ENDMDL
MODEL 8
REMARK VINA RESULT:      -6.5      6.486      9.940
REMARK  7 active torsions:
REMARK  status: ('A' for Active; 'I' for Inactive)
REMARK    1  A    between atoms: O1_2  and  C2_3 
REMARK    2  A    between atoms: C8_10  and  C9_11 
REMARK       I    between atoms: C9_11  and  N2_13 
REMARK    3  A    between atoms: N2_13  and  C10_14 
REMARK    4  A    between atoms: C13_17  and  N3_18 
REMARK    5  A    between atoms: C20_27  and  C21_28 
REMARK    6  A    between atoms: C21_28  and  C22_29 
REMARK    7  A    between atoms: C22_29  and  O3_30 
ROOT
HETATM    1  C9  UNL     1      23.905   6.099  49.939  1.00  0.00     0.250 C 
HETATM    2  O2  UNL     1      24.301   6.038  51.110  1.00  0.00    -0.268 OA
HETATM    3  N2  UNL     1      24.252   4.902  49.215  1.00  0.00    -0.322 N 
HETATM    4  H9  UNL     1      23.994   4.793  48.210  1.00  0.00     0.169 HD
ENDROOT
BRANCH   1   5
HETATM    5  C8  UNL     1      23.169   7.226  49.322  1.00  0.00     0.015 C 
HETATM    6  C7  UNL     1      23.547   8.223  48.563  1.00  0.00     0.109 C 
HETATM    7  N1  UNL     1      24.276   9.146  47.784  1.00  0.00    -0.307 NA
HETATM    8  C6  UNL     1      24.007   9.228  46.510  1.00  0.00     0.207 C 
HETATM    9  C5  UNL     1      23.034   8.478  45.791  1.00  0.00     0.013 C 
HETATM   10  C4  UNL     1      22.119   7.627  45.905  1.00  0.00     0.003 C 
HETATM   11  C3  UNL     1      21.169   6.674  46.441  1.00  0.00     0.032 C 
HETATM   12  C2  UNL     1      20.837   6.216  47.664  1.00  0.00     0.046 C 
HETATM   13  C23 UNL     1      20.932   6.149  49.130  1.00  0.00     0.077 C 
HETATM   14  C20 UNL     1      21.776   7.277  49.695  1.00  0.00     0.052 C 
BRANCH  12  15
HETATM   15  O1  UNL     1      19.818   5.262  47.520  1.00  0.00    -0.360 OA
HETATM   16  C1  UNL     1      18.546   5.438  48.112  1.00  0.00     0.209 C 
ENDBRANCH  12  15
BRANCH  14  17
HETATM   17  C21 UNL     1      21.171   8.586  49.435  1.00  0.00     0.007 C 
BRANCH  17  18
HETATM   18  C22 UNL     1      19.937   8.909  49.763  1.00  0.00     0.128 C 
BRANCH  18  19
HETATM   19  O3  UNL     1      18.765   9.389  50.315  1.00  0.00    -0.373 OA
HETATM   20  H27 UNL     1      18.246  10.110  49.823  1.00  0.00     0.216 HD
ENDBRANCH  18  19
ENDBRANCH  17  18
ENDBRANCH  14  17
ENDBRANCH   1   5
BRANCH   3  21
HETATM   21  C10 UNL     1      24.961   3.933  50.006  1.00  0.00     0.052 A 
HETATM   22  C11 UNL     1      24.079   3.060  50.649  1.00  0.00     0.035 A 
HETATM   23  C12 UNL     1      24.669   2.076  51.443  1.00  0.00     0.052 A 
HETATM   24  C13 UNL     1      26.036   1.996  51.568  1.00  0.00     0.125 A 
HETATM   25  N5  UNL     1      26.847   2.871  50.922  1.00  0.00    -0.241 NA
HETATM   26  C19 UNL     1      26.323   3.831  50.147  1.00  0.00     0.148 A 
BRANCH  24  27
HETATM   27  N3  UNL     1      26.729   1.024  52.355  1.00  0.00    -0.362 N 
HETATM   28  C14 UNL     1      27.405   1.321  53.612  1.00  0.00     0.154 C 
HETATM   29  C15 UNL     1      26.939   0.326  54.651  1.00  0.00     0.291 C 
HETATM   30  N4  UNL     1      25.775  -0.337  54.150  1.00  0.00     0.087 N 
HETATM   31  C16 UNL     1      24.925  -0.916  55.156  1.00  0.00     0.310 C 
HETATM   32  C17 UNL     1      26.101  -1.235  53.067  1.00  0.00     0.291 C 
HETATM   33  C18 UNL     1      26.880  -0.388  52.061  1.00  0.00     0.154 C 
ENDBRANCH  24  27
ENDBRANCH   3  21
TORSDOF 7
ENDMDL
MODEL 9
REMARK VINA RESULT:      -6.5      4.448      9.967
REMARK  7 active torsions:
REMARK  status: ('A' for Active; 'I' for Inactive)
REMARK    1  A    between atoms: O1_2  and  C2_3 
REMARK    2  A    between atoms: C8_10  and  C9_11 
REMARK       I    between atoms: C9_11  and  N2_13 
REMARK    3  A    between atoms: N2_13  and  C10_14 
REMARK    4  A    between atoms: C13_17  and  N3_18 
REMARK    5  A    between atoms: C20_27  and  C21_28 
REMARK    6  A    between atoms: C21_28  and  C22_29 
REMARK    7  A    between atoms: C22_29  and  O3_30 
ROOT
HETATM    1  C9  UNL     1      24.226   5.965  48.444  1.00  0.00     0.250 C 
HETATM    2  O2  UNL     1      24.509   6.908  47.694  1.00  0.00    -0.268 OA
HETATM    3  N2  UNL     1      25.349   5.618  49.279  1.00  0.00    -0.322 N 
HETATM    4  H9  UNL     1      25.279   4.837  49.969  1.00  0.00     0.169 HD
ENDROOT
BRANCH   1   5
HETATM    5  C8  UNL     1      22.925   5.260  48.512  1.00  0.00     0.015 C 
HETATM    6  C7  UNL     1      22.450   4.215  47.885  1.00  0.00     0.109 C 
HETATM    7  N1  UNL     1      22.257   3.094  47.051  1.00  0.00    -0.307 NA
HETATM    8  C6  UNL     1      22.090   1.928  47.611  1.00  0.00     0.207 C 
HETATM    9  C5  UNL     1      22.076   1.642  49.006  1.00  0.00     0.013 C 
HETATM   10  C4  UNL     1      22.131   2.157  50.149  1.00  0.00     0.003 C 
HETATM   11  C3  UNL     1      22.218   3.103  51.241  1.00  0.00     0.032 C 
HETATM   12  C2  UNL     1      22.287   4.443  51.364  1.00  0.00     0.046 C 
HETATM   13  C23 UNL     1      22.319   5.825  50.861  1.00  0.00     0.077 C 
HETATM   14  C20 UNL     1      21.970   5.898  49.385  1.00  0.00     0.052 C 
BRANCH  12  15
HETATM   15  O1  UNL     1      22.368   4.762  52.728  1.00  0.00    -0.360 OA
HETATM   16  C1  UNL     1      23.582   4.657  53.446  1.00  0.00     0.209 C 
ENDBRANCH  12  15
BRANCH  14  17
HETATM   17  C21 UNL     1      20.595   5.457  49.133  1.00  0.00     0.007 C 
BRANCH  17  18
HETATM   18  C22 UNL     1      19.552   6.260  49.124  1.00  0.00     0.128 C 
BRANCH  18  19
HETATM   19  O3  UNL     1      18.433   7.021  48.848  1.00  0.00    -0.373 OA
HETATM   20  H27 UNL     1      18.293   7.895  49.348  1.00  0.00     0.216 HD
ENDBRANCH  18  19
ENDBRANCH  17  18
ENDBRANCH  14  17
ENDBRANCH   1   5
BRANCH   3  21
HETATM   21  C10 UNL     1      26.511   6.432  49.053  1.00  0.00     0.052 A 
HETATM   22  C11 UNL     1      27.515   5.713  48.397  1.00  0.00     0.035 A 
HETATM   23  C12 UNL     1      28.690   6.416  48.128  1.00  0.00     0.052 A 
HETATM   24  C13 UNL     1      28.824   7.734  48.498  1.00  0.00     0.125 A 
HETATM   25  N5  UNL     1      27.818   8.385  49.135  1.00  0.00    -0.241 NA
HETATM   26  C19 UNL     1      26.671   7.748  49.412  1.00  0.00     0.148 A 
BRANCH  24  27
HETATM   27  N3  UNL     1      29.985   8.535  48.264  1.00  0.00    -0.362 N 
HETATM   28  C14 UNL     1      30.561   8.773  46.947  1.00  0.00     0.154 C 
HETATM   29  C15 UNL     1      30.759  10.263  46.774  1.00  0.00     0.291 C 
HETATM   30  N4  UNL     1      30.021  10.936  47.797  1.00  0.00     0.087 N 
HETATM   31  C16 UNL     1      29.679  12.301  47.501  1.00  0.00     0.310 C 
HETATM   32  C17 UNL     1      30.625  10.749  49.097  1.00  0.00     0.291 C 
HETATM   33  C18 UNL     1      30.774   9.236  49.258  1.00  0.00     0.154 C 
ENDBRANCH  24  27
ENDBRANCH   3  21
TORSDOF 7
ENDMDL
