MODEL 1
REMARK VINA RESULT:      -9.2      0.000      0.000
REMARK  6 active torsions:
REMARK  status: ('A' for Active; 'I' for Inactive)
REMARK    1  A    between atoms: C2_2  and  C3_3 
REMARK    2  A    between atoms: C2_2  and  C8_10 
REMARK    3  A    between atoms: C3_3  and  N1_4 
REMARK    4  A    between atoms: C8_10  and  N2_11 
REMARK    5  A    between atoms: C15_20  and  N5_21 
REMARK    6  A    between atoms: N5_21  and  C16_22 
ROOT
HETATM    1  N2  UNL     1      23.168   2.568  49.793  1.00  0.00    -0.320 N 
HETATM    2  C9  UNL     1      21.937   2.273  49.335  1.00  0.00     0.097 A 
HETATM    3  C10 UNL     1      21.074   1.410  49.991  1.00  0.00     0.050 A 
HETATM    4  C11 UNL     1      21.550   0.851  51.174  1.00  0.00     0.075 A 
HETATM    5  N3  UNL     1      20.700   0.018  51.798  1.00  0.00    -0.258 NA
HETATM    6  C12 UNL     1      21.112  -0.545  52.948  1.00  0.00     0.142 A 
HETATM    7  C13 UNL     1      22.357  -0.319  53.520  1.00  0.00     0.089 A 
HETATM    8  C14 UNL     1      22.713  -0.954  54.734  1.00  0.00     0.103 C 
HETATM    9  N4  UNL     1      23.023  -1.481  55.724  1.00  0.00    -0.191 NA
HETATM   10  C15 UNL     1      23.192   0.544  52.838  1.00  0.00     0.073 A 
HETATM   11  C22 UNL     1      22.811   1.146  51.655  1.00  0.00     0.089 A 
HETATM   12  C23 UNL     1      23.615   2.012  50.950  1.00  0.00     0.262 A 
HETATM   13  O2  UNL     1      24.750   2.236  51.448  1.00  0.00    -0.267 OA
ENDROOT
BRANCH  10  14
HETATM   14  N5  UNL     1      24.475   0.827  53.358  1.00  0.00    -0.354 N 
HETATM   15  H18 UNL     1      24.283   1.727  53.871  1.00  0.00     0.166 HD
BRANCH  14  16
HETATM   16  C16 UNL     1      25.745   0.235  53.322  1.00  0.00     0.034 A 
HETATM   17  C17 UNL     1      25.867  -1.028  52.748  1.00  0.00     0.032 A 
HETATM   18  C18 UNL     1      27.153  -1.537  52.751  1.00  0.00     0.046 A 
HETATM   19  C19 UNL     1      28.233  -0.861  53.276  1.00  0.00     0.138 A 
HETATM   20  F1  UNL     1      29.431  -1.520  53.192  1.00  0.00    -0.204 F 
HETATM   21  C20 UNL     1      28.059   0.389  53.834  1.00  0.00     0.074 A 
HETATM   22 CL1  UNL     1      29.500   1.164  54.474  1.00  0.00    -0.081 Cl
HETATM   23  C21 UNL     1      26.794   0.937  53.853  1.00  0.00     0.056 A 
ENDBRANCH  14  16
ENDBRANCH  10  14
BRANCH   1  24
HETATM   24  C8  UNL     1      24.048   3.467  49.106  1.00  0.00     0.166 C 
BRANCH  24  25
HETATM   25  C2  UNL     1      24.005   4.792  49.740  1.00  0.00    -0.043 C 
HETATM   26  C1  UNL     1      22.884   5.397  50.022  1.00  0.00     0.017 C 
BRANCH  25  27
HETATM   27  C3  UNL     1      25.327   5.349  50.013  1.00  0.00     0.307 C 
BRANCH  27  28
HETATM   28  N1  UNL     1      26.064   5.487  48.776  1.00  0.00     0.096 N 
HETATM   29  C4  UNL     1      27.323   4.831  48.873  1.00  0.00     0.299 C 
HETATM   30  C5  UNL     1      28.494   5.563  48.306  1.00  0.00     0.198 C 
HETATM   31  O1  UNL     1      28.364   6.917  48.547  1.00  0.00    -0.388 OA
HETATM   32  C6  UNL     1      27.297   7.369  47.757  1.00  0.00     0.198 C 
HETATM   33  C7  UNL     1      26.050   6.852  48.395  1.00  0.00     0.299 C 
ENDBRANCH  27  28
ENDBRANCH  25  27
ENDBRANCH  24  25
ENDBRANCH   1  24
TORSDOF 6
ENDMDL
MODEL 2
REMARK VINA RESULT:      -8.8      2.199      2.561
REMARK  6 active torsions:
REMARK  status: ('A' for Active; 'I' for Inactive)
REMARK    1  A    between atoms: C2_2  and  C3_3 
REMARK    2  A    between atoms: C2_2  and  C8_10 
REMARK    3  A    between atoms: C3_3  and  N1_4 
REMARK    4  A    between atoms: C8_10  and  N2_11 
REMARK    5  A    between atoms: C15_20  and  N5_21 
REMARK    6  A    between atoms: N5_21  and  C16_22 
ROOT
HETATM    1  N2  UNL     1      21.609   1.598  50.400  1.00  0.00    -0.320 N 
HETATM    2  C9  UNL     1      20.398   1.042  50.587  1.00  0.00     0.097 A 
HETATM    3  C10 UNL     1      20.116   0.184  51.638  1.00  0.00     0.050 A 
HETATM    4  C11 UNL     1      21.168  -0.080  52.512  1.00  0.00     0.075 A 
HETATM    5  N3  UNL     1      20.875  -0.912  53.526  1.00  0.00    -0.258 NA
HETATM    6  C12 UNL     1      21.857  -1.196  54.400  1.00  0.00     0.142 A 
HETATM    7  C13 UNL     1      23.146  -0.685  54.313  1.00  0.00     0.089 A 
HETATM    8  C14 UNL     1      24.121  -1.036  55.276  1.00  0.00     0.103 C 
HETATM    9  N4  UNL     1      24.936  -1.328  56.054  1.00  0.00    -0.191 NA
HETATM   10  C15 UNL     1      23.392   0.164  53.252  1.00  0.00     0.073 A 
HETATM   11  C22 UNL     1      22.415   0.485  52.331  1.00  0.00     0.089 A 
HETATM   12  C23 UNL     1      22.624   1.328  51.264  1.00  0.00     0.262 A 
HETATM   13  O2  UNL     1      23.785   1.807  51.162  1.00  0.00    -0.267 OA
ENDROOT
BRANCH  10  14
HETATM   14  N5  UNL     1      24.679   0.727  53.096  1.00  0.00    -0.354 N 
HETATM   15  H18 UNL     1      24.428   1.722  52.857  1.00  0.00     0.166 HD
BRANCH  14  16
HETATM   16  C16 UNL     1      26.005   0.284  53.184  1.00  0.00     0.034 A 
HETATM   17  C17 UNL     1      26.319  -0.966  52.658  1.00  0.00     0.032 A 
HETATM   18  C18 UNL     1      27.649  -1.324  52.783  1.00  0.00     0.046 A 
HETATM   19  C19 UNL     1      28.596  -0.519  53.378  1.00  0.00     0.138 A 
HETATM   20  F1  UNL     1      29.863  -1.038  53.413  1.00  0.00    -0.204 F 
HETATM   21  C20 UNL     1      28.234   0.712  53.885  1.00  0.00     0.074 A 
HETATM   22 CL1  UNL     1      29.518   1.659  54.622  1.00  0.00    -0.081 Cl
HETATM   23  C21 UNL     1      26.918   1.111  53.782  1.00  0.00     0.056 A 
ENDBRANCH  14  16
ENDBRANCH  10  14
BRANCH   1  24
HETATM   24  C8  UNL     1      21.887   2.488  49.310  1.00  0.00     0.166 C 
BRANCH  24  25
HETATM   25  C2  UNL     1      20.972   3.637  49.358  1.00  0.00    -0.043 C 
HETATM   26  C1  UNL     1      19.938   3.742  48.569  1.00  0.00     0.017 C 
BRANCH  25  27
HETATM   27  C3  UNL     1      21.340   4.631  50.362  1.00  0.00     0.307 C 
BRANCH  27  28
HETATM   28  N1  UNL     1      22.636   5.189  50.045  1.00  0.00     0.096 N 
HETATM   29  C4  UNL     1      23.408   5.353  51.230  1.00  0.00     0.299 C 
HETATM   30  C5  UNL     1      24.172   6.630  51.348  1.00  0.00     0.198 C 
HETATM   31  O1  UNL     1      23.435   7.670  50.815  1.00  0.00    -0.388 OA
HETATM   32  C6  UNL     1      23.381   7.462  49.429  1.00  0.00     0.198 C 
HETATM   33  C7  UNL     1      22.447   6.318  49.210  1.00  0.00     0.299 C 
ENDBRANCH  27  28
ENDBRANCH  25  27
ENDBRANCH  24  25
ENDBRANCH   1  24
TORSDOF 6
ENDMDL
MODEL 3
REMARK VINA RESULT:      -8.7      3.024      6.876
REMARK  6 active torsions:
REMARK  status: ('A' for Active; 'I' for Inactive)
REMARK    1  A    between atoms: C2_2  and  C3_3 
REMARK    2  A    between atoms: C2_2  and  C8_10 
REMARK    3  A    between atoms: C3_3  and  N1_4 
REMARK    4  A    between atoms: C8_10  and  N2_11 
REMARK    5  A    between atoms: C15_20  and  N5_21 
REMARK    6  A    between atoms: N5_21  and  C16_22 
ROOT
HETATM    1  N2  UNL     1      22.711   1.372  52.146  1.00  0.00    -0.320 N 
HETATM    2  C9  UNL     1      21.805   0.458  51.750  1.00  0.00     0.097 A 
HETATM    3  C10 UNL     1      21.153   0.522  50.530  1.00  0.00     0.050 A 
HETATM    4  C11 UNL     1      21.488   1.599  49.712  1.00  0.00     0.075 A 
HETATM    5  N3  UNL     1      20.848   1.644  48.531  1.00  0.00    -0.258 NA
HETATM    6  C12 UNL     1      21.139   2.664  47.704  1.00  0.00     0.142 A 
HETATM    7  C13 UNL     1      22.054   3.666  48.000  1.00  0.00     0.089 A 
HETATM    8  C14 UNL     1      22.302   4.705  47.072  1.00  0.00     0.103 C 
HETATM    9  N4  UNL     1      22.504   5.573  46.324  1.00  0.00    -0.191 NA
HETATM   10  C15 UNL     1      22.683   3.572  49.226  1.00  0.00     0.073 A 
HETATM   11  C22 UNL     1      22.416   2.543  50.106  1.00  0.00     0.089 A 
HETATM   12  C23 UNL     1      23.024   2.416  51.334  1.00  0.00     0.262 A 
HETATM   13  O2  UNL     1      23.860   3.312  51.627  1.00  0.00    -0.267 OA
ENDROOT
BRANCH  10  14
HETATM   14  N5  UNL     1      23.630   4.553  49.599  1.00  0.00    -0.354 N 
HETATM   15  H18 UNL     1      23.086   5.078  50.333  1.00  0.00     0.166 HD
BRANCH  14  16
HETATM   16  C16 UNL     1      24.937   4.900  49.236  1.00  0.00     0.034 A 
HETATM   17  C17 UNL     1      25.940   3.946  49.389  1.00  0.00     0.032 A 
HETATM   18  C18 UNL     1      27.199   4.369  49.004  1.00  0.00     0.046 A 
HETATM   19  C19 UNL     1      27.454   5.629  48.508  1.00  0.00     0.138 A 
HETATM   20  F1  UNL     1      28.761   5.872  48.178  1.00  0.00    -0.204 F 
HETATM   21  C20 UNL     1      26.426   6.539  48.375  1.00  0.00     0.074 A 
HETATM   22 CL1  UNL     1      26.859   8.116  47.732  1.00  0.00    -0.081 Cl
HETATM   23  C21 UNL     1      25.152   6.161  48.746  1.00  0.00     0.056 A 
ENDBRANCH  14  16
ENDBRANCH  10  14
BRANCH   1  24
HETATM   24  C8  UNL     1      23.382   1.290  53.411  1.00  0.00     0.166 C 
BRANCH  24  25
HETATM   25  C2  UNL     1      24.155   0.044  53.488  1.00  0.00    -0.043 C 
HETATM   26  C1  UNL     1      23.688  -1.037  54.052  1.00  0.00     0.017 C 
BRANCH  25  27
HETATM   27  C3  UNL     1      25.479   0.142  52.879  1.00  0.00     0.307 C 
BRANCH  27  28
HETATM   28  N1  UNL     1      26.446  -0.551  53.701  1.00  0.00     0.096 N 
HETATM   29  C4  UNL     1      27.028   0.344  54.643  1.00  0.00     0.299 C 
HETATM   30  C5  UNL     1      28.504   0.230  54.836  1.00  0.00     0.198 C 
HETATM   31  O1  UNL     1      29.116  -0.047  53.629  1.00  0.00    -0.388 OA
HETATM   32  C6  UNL     1      28.744  -1.352  53.275  1.00  0.00     0.198 C 
HETATM   33  C7  UNL     1      27.314  -1.283  52.852  1.00  0.00     0.299 C 
ENDBRANCH  27  28
ENDBRANCH  25  27
ENDBRANCH  24  25
ENDBRANCH   1  24
TORSDOF 6
ENDMDL
MODEL 4
REMARK VINA RESULT:      -8.6      2.241      3.619
REMARK  6 active torsions:
REMARK  status: ('A' for Active; 'I' for Inactive)
REMARK    1  A    between atoms: C2_2  and  C3_3 
REMARK    2  A    between atoms: C2_2  and  C8_10 
REMARK    3  A    between atoms: C3_3  and  N1_4 
REMARK    4  A    between atoms: C8_10  and  N2_11 
REMARK    5  A    between atoms: C15_20  and  N5_21 
REMARK    6  A    between atoms: N5_21  and  C16_22 
ROOT
HETATM    1  N2  UNL     1      25.940   5.571  49.409  1.00  0.00    -0.320 N 
HETATM    2  C9  UNL     1      24.921   6.428  49.603  1.00  0.00     0.097 A 
HETATM    3  C10 UNL     1      23.822   6.129  50.392  1.00  0.00     0.050 A 
HETATM    4  C11 UNL     1      23.823   4.871  50.991  1.00  0.00     0.075 A 
HETATM    5  N3  UNL     1      22.751   4.599  51.755  1.00  0.00    -0.258 NA
HETATM    6  C12 UNL     1      22.706   3.397  52.357  1.00  0.00     0.142 A 
HETATM    7  C13 UNL     1      23.696   2.429  52.234  1.00  0.00     0.089 A 
HETATM    8  C14 UNL     1      23.570   1.189  52.903  1.00  0.00     0.103 C 
HETATM    9  N4  UNL     1      23.472   0.159  53.436  1.00  0.00    -0.191 NA
HETATM   10  C15 UNL     1      24.774   2.761  51.438  1.00  0.00     0.073 A 
HETATM   11  C22 UNL     1      24.863   3.982  50.800  1.00  0.00     0.089 A 
HETATM   12  C23 UNL     1      25.923   4.347  50.002  1.00  0.00     0.262 A 
HETATM   13  O2  UNL     1      26.835   3.488  49.874  1.00  0.00    -0.267 OA
ENDROOT
BRANCH  10  14
HETATM   14  N5  UNL     1      25.823   1.830  51.264  1.00  0.00    -0.354 N 
HETATM   15  H18 UNL     1      25.782   1.682  50.222  1.00  0.00     0.166 HD
BRANCH  14  16
HETATM   16  C16 UNL     1      26.753   1.175  52.083  1.00  0.00     0.034 A 
HETATM   17  C17 UNL     1      26.765  -0.217  52.084  1.00  0.00     0.032 A 
HETATM   18  C18 UNL     1      27.714  -0.783  52.916  1.00  0.00     0.046 A 
HETATM   19  C19 UNL     1      28.583  -0.041  53.686  1.00  0.00     0.138 A 
HETATM   20  F1  UNL     1      29.455  -0.771  54.449  1.00  0.00    -0.204 F 
HETATM   21  C20 UNL     1      28.531   1.338  53.650  1.00  0.00     0.074 A 
HETATM   22 CL1  UNL     1      29.682   2.188  54.669  1.00  0.00    -0.081 Cl
HETATM   23  C21 UNL     1      27.600   1.946  52.834  1.00  0.00     0.056 A 
ENDBRANCH  14  16
ENDBRANCH  10  14
BRANCH   1  24
HETATM   24  C8  UNL     1      27.073   5.896  48.592  1.00  0.00     0.166 C 
BRANCH  24  25
HETATM   25  C2  UNL     1      27.033   7.317  48.224  1.00  0.00    -0.043 C 
HETATM   26  C1  UNL     1      26.420   7.747  47.155  1.00  0.00     0.017 C 
BRANCH  25  27
HETATM   27  C3  UNL     1      27.742   8.182  49.164  1.00  0.00     0.307 C 
BRANCH  27  28
HETATM   28  N1  UNL     1      28.867   8.804  48.501  1.00  0.00     0.096 N 
HETATM   29  C4  UNL     1      30.065   8.090  48.784  1.00  0.00     0.299 C 
HETATM   30  C5  UNL     1      31.269   8.918  49.091  1.00  0.00     0.198 C 
HETATM   31  O1  UNL     1      30.901  10.030  49.823  1.00  0.00    -0.388 OA
HETATM   32  C6  UNL     1      30.162  10.856  48.963  1.00  0.00     0.198 C 
HETATM   33  C7  UNL     1      28.837  10.194  48.777  1.00  0.00     0.299 C 
ENDBRANCH  27  28
ENDBRANCH  25  27
ENDBRANCH  24  25
ENDBRANCH   1  24
TORSDOF 6
ENDMDL
MODEL 5
REMARK VINA RESULT:      -8.5      1.768      2.168
REMARK  6 active torsions:
REMARK  status: ('A' for Active; 'I' for Inactive)
REMARK    1  A    between atoms: C2_2  and  C3_3 
REMARK    2  A    between atoms: C2_2  and  C8_10 
REMARK    3  A    between atoms: C3_3  and  N1_4 
REMARK    4  A    between atoms: C8_10  and  N2_11 
REMARK    5  A    between atoms: C15_20  and  N5_21 
REMARK    6  A    between atoms: N5_21  and  C16_22 
ROOT
HETATM    1  N2  UNL     1      22.473   4.886  49.979  1.00  0.00    -0.320 N 
HETATM    2  C9  UNL     1      21.221   5.291  50.262  1.00  0.00     0.097 A 
HETATM    3  C10 UNL     1      20.381   4.601  51.122  1.00  0.00     0.050 A 
HETATM    4  C11 UNL     1      20.906   3.445  51.694  1.00  0.00     0.075 A 
HETATM    5  N3  UNL     1      20.078   2.790  52.527  1.00  0.00    -0.258 NA
HETATM    6  C12 UNL     1      20.539   1.668  53.107  1.00  0.00     0.142 A 
HETATM    7  C13 UNL     1      21.811   1.151  52.894  1.00  0.00     0.089 A 
HETATM    8  C14 UNL     1      22.217  -0.038  53.545  1.00  0.00     0.103 C 
HETATM    9  N4  UNL     1      22.559  -1.022  54.064  1.00  0.00    -0.191 NA
HETATM   10  C15 UNL     1      22.619   1.862  52.030  1.00  0.00     0.073 A 
HETATM   11  C22 UNL     1      22.189   3.019  51.412  1.00  0.00     0.089 A 
HETATM   12  C23 UNL     1      22.967   3.753  50.547  1.00  0.00     0.262 A 
HETATM   13  O2  UNL     1      24.126   3.307  50.337  1.00  0.00    -0.267 OA
ENDROOT
BRANCH  10  14
HETATM   14  N5  UNL     1      23.929   1.400  51.763  1.00  0.00    -0.354 N 
HETATM   15  H18 UNL     1      23.852   1.179  50.736  1.00  0.00     0.166 HD
BRANCH  14  16
HETATM   16  C16 UNL     1      25.112   1.212  52.489  1.00  0.00     0.034 A 
HETATM   17  C17 UNL     1      25.527   2.227  53.348  1.00  0.00     0.032 A 
HETATM   18  C18 UNL     1      26.702   1.959  54.027  1.00  0.00     0.046 A 
HETATM   19  C19 UNL     1      27.413   0.788  53.876  1.00  0.00     0.138 A 
HETATM   20  F1  UNL     1      28.553   0.696  54.630  1.00  0.00    -0.204 F 
HETATM   21  C20 UNL     1      26.959  -0.188  53.013  1.00  0.00     0.074 A 
HETATM   22 CL1  UNL     1      27.938  -1.641  52.894  1.00  0.00    -0.081 Cl
HETATM   23  C21 UNL     1      25.791   0.036  52.313  1.00  0.00     0.056 A 
ENDBRANCH  14  16
ENDBRANCH  10  14
BRANCH   1  24
HETATM   24  C8  UNL     1      23.333   5.612  49.091  1.00  0.00     0.166 C 
BRANCH  24  25
HETATM   25  C2  UNL     1      24.020   6.683  49.824  1.00  0.00    -0.043 C 
HETATM   26  C1  UNL     1      23.414   7.777  50.198  1.00  0.00     0.017 C 
BRANCH  25  27
HETATM   27  C3  UNL     1      25.429   6.399  50.084  1.00  0.00     0.307 C 
BRANCH  27  28
HETATM   28  N1  UNL     1      26.116   6.153  48.835  1.00  0.00     0.096 N 
HETATM   29  C4  UNL     1      26.971   5.021  48.954  1.00  0.00     0.299 C 
HETATM   30  C5  UNL     1      28.325   5.151  48.340  1.00  0.00     0.198 C 
HETATM   31  O1  UNL     1      28.800   6.436  48.513  1.00  0.00    -0.388 OA
HETATM   32  C6  UNL     1      28.010   7.273  47.711  1.00  0.00     0.198 C 
HETATM   33  C7  UNL     1      26.681   7.373  48.386  1.00  0.00     0.299 C 
ENDBRANCH  27  28
ENDBRANCH  25  27
ENDBRANCH  24  25
ENDBRANCH   1  24
TORSDOF 6
ENDMDL
MODEL 6
REMARK VINA RESULT:      -8.4      2.296      3.506
REMARK  6 active torsions:
REMARK  status: ('A' for Active; 'I' for Inactive)
REMARK    1  A    between atoms: C2_2  and  C3_3 
REMARK    2  A    between atoms: C2_2  and  C8_10 
REMARK    3  A    between atoms: C3_3  and  N1_4 
REMARK    4  A    between atoms: C8_10  and  N2_11 
REMARK    5  A    between atoms: C15_20  and  N5_21 
REMARK    6  A    between atoms: N5_21  and  C16_22 
ROOT
HETATM    1  N2  UNL     1      23.813   2.966  50.150  1.00  0.00    -0.320 N 
HETATM    2  C9  UNL     1      22.612   2.502  49.759  1.00  0.00     0.097 A 
HETATM    3  C10 UNL     1      21.950   1.475  50.412  1.00  0.00     0.050 A 
HETATM    4  C11 UNL     1      22.599   0.935  51.520  1.00  0.00     0.075 A 
HETATM    5  N3  UNL     1      21.942  -0.058  52.143  1.00  0.00    -0.258 NA
HETATM    6  C12 UNL     1      22.526  -0.611  53.220  1.00  0.00     0.142 A 
HETATM    7  C13 UNL     1      23.762  -0.218  53.720  1.00  0.00     0.089 A 
HETATM    8  C14 UNL     1      24.306  -0.854  54.861  1.00  0.00     0.103 C 
HETATM    9  N4  UNL     1      24.772  -1.378  55.790  1.00  0.00    -0.191 NA
HETATM   10  C15 UNL     1      24.394   0.806  53.043  1.00  0.00     0.073 A 
HETATM   11  C22 UNL     1      23.831   1.403  51.933  1.00  0.00     0.089 A 
HETATM   12  C23 UNL     1      24.431   2.426  51.234  1.00  0.00     0.262 A 
HETATM   13  O2  UNL     1      25.553   2.802  51.667  1.00  0.00    -0.267 OA
ENDROOT
BRANCH  10  14
HETATM   14  N5  UNL     1      25.654   1.263  53.491  1.00  0.00    -0.354 N 
HETATM   15  H18 UNL     1      25.396   2.218  53.853  1.00  0.00     0.166 HD
BRANCH  14  16
HETATM   16  C16 UNL     1      26.963   0.767  53.536  1.00  0.00     0.034 A 
HETATM   17  C17 UNL     1      27.989   1.644  53.881  1.00  0.00     0.032 A 
HETATM   18  C18 UNL     1      29.248   1.074  53.905  1.00  0.00     0.046 A 
HETATM   19  C19 UNL     1      29.483  -0.253  53.614  1.00  0.00     0.138 A 
HETATM   20  F1  UNL     1      30.794  -0.643  53.688  1.00  0.00    -0.204 F 
HETATM   21  C20 UNL     1      28.432  -1.081  53.278  1.00  0.00     0.074 A 
HETATM   22 CL1  UNL     1      28.840  -2.754  52.926  1.00  0.00    -0.081 Cl
HETATM   23  C21 UNL     1      27.158  -0.556  53.241  1.00  0.00     0.056 A 
ENDBRANCH  14  16
ENDBRANCH  10  14
BRANCH   1  24
HETATM   24  C8  UNL     1      24.485   4.033  49.467  1.00  0.00     0.166 C 
BRANCH  24  25
HETATM   25  C2  UNL     1      23.929   5.326  49.889  1.00  0.00    -0.043 C 
HETATM   26  C1  UNL     1      24.305   5.926  50.986  1.00  0.00     0.017 C 
BRANCH  25  27
HETATM   27  C3  UNL     1      22.926   5.855  48.969  1.00  0.00     0.307 C 
BRANCH  27  28
HETATM   28  N1  UNL     1      21.723   6.192  49.699  1.00  0.00     0.096 N 
HETATM   29  C4  UNL     1      20.635   5.387  49.258  1.00  0.00     0.299 C 
HETATM   30  C5  UNL     1      19.331   6.088  49.068  1.00  0.00     0.198 C 
HETATM   31  O1  UNL     1      19.547   7.353  48.557  1.00  0.00    -0.388 OA
HETATM   32  C6  UNL     1      20.161   8.102  49.573  1.00  0.00     0.198 C 
HETATM   33  C7  UNL     1      21.564   7.599  49.677  1.00  0.00     0.299 C 
ENDBRANCH  27  28
ENDBRANCH  25  27
ENDBRANCH  24  25
ENDBRANCH   1  24
TORSDOF 6
ENDMDL
MODEL 7
REMARK VINA RESULT:      -8.4      3.471      5.180
REMARK  6 active torsions:
REMARK  status: ('A' for Active; 'I' for Inactive)
REMARK    1  A    between atoms: C2_2  and  C3_3 
REMARK    2  A    between atoms: C2_2  and  C8_10 
REMARK    3  A    between atoms: C3_3  and  N1_4 
REMARK    4  A    between atoms: C8_10  and  N2_11 
REMARK    5  A    between atoms: C15_20  and  N5_21 
REMARK    6  A    between atoms: N5_21  and  C16_22 
ROOT
HETATM    1  N2  UNL     1      24.841   3.417  51.501  1.00  0.00    -0.320 N 
HETATM    2  C9  UNL     1      26.125   3.014  51.531  1.00  0.00     0.097 A 
HETATM    3  C10 UNL     1      26.533   1.842  52.146  1.00  0.00     0.050 A 
HETATM    4  C11 UNL     1      25.530   1.082  52.743  1.00  0.00     0.075 A 
HETATM    5  N3  UNL     1      25.944  -0.053  53.333  1.00  0.00    -0.258 NA
HETATM    6  C12 UNL     1      25.013  -0.823  53.921  1.00  0.00     0.142 A 
HETATM    7  C13 UNL     1      23.659  -0.515  53.956  1.00  0.00     0.089 A 
HETATM    8  C14 UNL     1      22.743  -1.382  54.598  1.00  0.00     0.103 C 
HETATM    9  N4  UNL     1      21.982  -2.080  55.135  1.00  0.00    -0.191 NA
HETATM   10  C15 UNL     1      23.288   0.662  53.336  1.00  0.00     0.073 A 
HETATM   11  C22 UNL     1      24.209   1.484  52.718  1.00  0.00     0.089 A 
HETATM   12  C23 UNL     1      23.876   2.662  52.089  1.00  0.00     0.262 A 
HETATM   13  O2  UNL     1      22.653   2.965  52.105  1.00  0.00    -0.267 OA
ENDROOT
BRANCH  10  14
HETATM   14  N5  UNL     1      21.927   1.045  53.326  1.00  0.00    -0.354 N 
HETATM   15  H18 UNL     1      21.939   1.822  54.037  1.00  0.00     0.166 HD
BRANCH  14  16
HETATM   16  C16 UNL     1      20.760   0.649  52.660  1.00  0.00     0.034 A 
HETATM   17  C17 UNL     1      20.598   1.030  51.330  1.00  0.00     0.032 A 
HETATM   18  C18 UNL     1      19.422   0.595  50.748  1.00  0.00     0.046 A 
HETATM   19  C19 UNL     1      18.478  -0.154  51.417  1.00  0.00     0.138 A 
HETATM   20  F1  UNL     1      17.375  -0.494  50.681  1.00  0.00    -0.204 F 
HETATM   21  C20 UNL     1      18.685  -0.506  52.735  1.00  0.00     0.074 A 
HETATM   22 CL1  UNL     1      17.422  -1.462  53.494  1.00  0.00    -0.081 Cl
HETATM   23  C21 UNL     1      19.846  -0.095  53.357  1.00  0.00     0.056 A 
ENDBRANCH  14  16
ENDBRANCH  10  14
BRANCH   1  24
HETATM   24  C8  UNL     1      24.432   4.631  50.856  1.00  0.00     0.166 C 
BRANCH  24  25
HETATM   25  C2  UNL     1      24.406   4.440  49.400  1.00  0.00    -0.043 C 
HETATM   26  C1  UNL     1      23.902   3.372  48.843  1.00  0.00     0.017 C 
BRANCH  25  27
HETATM   27  C3  UNL     1      24.996   5.550  48.657  1.00  0.00     0.307 C 
BRANCH  27  28
HETATM   28  N1  UNL     1      26.295   5.870  49.208  1.00  0.00     0.096 N 
HETATM   29  C4  UNL     1      26.537   7.270  49.123  1.00  0.00     0.299 C 
HETATM   30  C5  UNL     1      27.905   7.677  48.685  1.00  0.00     0.198 C 
HETATM   31  O1  UNL     1      28.370   6.803  47.721  1.00  0.00    -0.388 OA
HETATM   32  C6  UNL     1      28.597   5.576  48.361  1.00  0.00     0.198 C 
HETATM   33  C7  UNL     1      27.251   4.991  48.642  1.00  0.00     0.299 C 
ENDBRANCH  27  28
ENDBRANCH  25  27
ENDBRANCH  24  25
ENDBRANCH   1  24
TORSDOF 6
ENDMDL
MODEL 8
REMARK VINA RESULT:      -8.2      1.782      2.914
REMARK  6 active torsions:
REMARK  status: ('A' for Active; 'I' for Inactive)
REMARK    1  A    between atoms: C2_2  and  C3_3 
REMARK    2  A    between atoms: C2_2  and  C8_10 
REMARK    3  A    between atoms: C3_3  and  N1_4 
REMARK    4  A    between atoms: C8_10  and  N2_11 
REMARK    5  A    between atoms: C15_20  and  N5_21 
REMARK    6  A    between atoms: N5_21  and  C16_22 
ROOT
HETATM    1  N2  UNL     1      24.445   4.907  49.660  1.00  0.00    -0.320 N 
HETATM    2  C9  UNL     1      23.632   4.872  48.588  1.00  0.00     0.097 A 
HETATM    3  C10 UNL     1      22.667   3.896  48.404  1.00  0.00     0.050 A 
HETATM    4  C11 UNL     1      22.573   2.932  49.405  1.00  0.00     0.075 A 
HETATM    5  N3  UNL     1      21.630   1.994  49.211  1.00  0.00    -0.258 NA
HETATM    6  C12 UNL     1      21.498   1.041  50.151  1.00  0.00     0.142 A 
HETATM    7  C13 UNL     1      22.276   0.971  51.300  1.00  0.00     0.089 A 
HETATM    8  C14 UNL     1      22.072  -0.066  52.240  1.00  0.00     0.103 C 
HETATM    9  N4  UNL     1      21.923  -0.922  53.014  1.00  0.00    -0.191 NA
HETATM   10  C15 UNL     1      23.230   1.959  51.449  1.00  0.00     0.073 A 
HETATM   11  C22 UNL     1      23.400   2.957  50.510  1.00  0.00     0.089 A 
HETATM   12  C23 UNL     1      24.338   3.957  50.626  1.00  0.00     0.262 A 
HETATM   13  O2  UNL     1      25.057   3.918  51.660  1.00  0.00    -0.267 OA
ENDROOT
BRANCH  10  14
HETATM   14  N5  UNL     1      24.060   1.958  52.593  1.00  0.00    -0.354 N 
HETATM   15  H18 UNL     1      23.589   2.698  53.176  1.00  0.00     0.166 HD
BRANCH  14  16
HETATM   16  C16 UNL     1      25.203   1.272  53.024  1.00  0.00     0.034 A 
HETATM   17  C17 UNL     1      26.034   1.895  53.951  1.00  0.00     0.032 A 
HETATM   18  C18 UNL     1      27.137   1.148  54.326  1.00  0.00     0.046 A 
HETATM   19  C19 UNL     1      27.402  -0.110  53.830  1.00  0.00     0.138 A 
HETATM   20  F1  UNL     1      28.539  -0.700  54.315  1.00  0.00    -0.204 F 
HETATM   21  C20 UNL     1      26.547  -0.684  52.913  1.00  0.00     0.074 A 
HETATM   22 CL1  UNL     1      26.976  -2.290  52.345  1.00  0.00    -0.081 Cl
HETATM   23  C21 UNL     1      25.433   0.024  52.510  1.00  0.00     0.056 A 
ENDBRANCH  14  16
ENDBRANCH  10  14
BRANCH   1  24
HETATM   24  C8  UNL     1      25.437   5.927  49.840  1.00  0.00     0.166 C 
BRANCH  24  25
HETATM   25  C2  UNL     1      26.537   5.727  48.888  1.00  0.00    -0.043 C 
HETATM   26  C1  UNL     1      27.227   4.620  48.837  1.00  0.00     0.017 C 
BRANCH  25  27
HETATM   27  C3  UNL     1      26.775   6.880  48.023  1.00  0.00     0.307 C 
BRANCH  27  28
HETATM   28  N1  UNL     1      28.084   7.433  48.294  1.00  0.00     0.096 N 
HETATM   29  C4  UNL     1      27.972   8.589  49.117  1.00  0.00     0.299 C 
HETATM   30  C5  UNL     1      28.832   9.750  48.743  1.00  0.00     0.198 C 
HETATM   31  O1  UNL     1      28.918   9.848  47.368  1.00  0.00    -0.388 OA
HETATM   32  C6  UNL     1      29.668   8.747  46.928  1.00  0.00     0.198 C 
HETATM   33  C7  UNL     1      28.784   7.551  47.068  1.00  0.00     0.299 C 
ENDBRANCH  27  28
ENDBRANCH  25  27
ENDBRANCH  24  25
ENDBRANCH   1  24
TORSDOF 6
ENDMDL
MODEL 9
REMARK VINA RESULT:      -8.1      3.487      6.976
REMARK  6 active torsions:
REMARK  status: ('A' for Active; 'I' for Inactive)
REMARK    1  A    between atoms: C2_2  and  C3_3 
REMARK    2  A    between atoms: C2_2  and  C8_10 
REMARK    3  A    between atoms: C3_3  and  N1_4 
REMARK    4  A    between atoms: C8_10  and  N2_11 
REMARK    5  A    between atoms: C15_20  and  N5_21 
REMARK    6  A    between atoms: N5_21  and  C16_22 
ROOT
HETATM    1  N2  UNL     1      23.665   1.241  52.418  1.00  0.00    -0.320 N 
HETATM    2  C9  UNL     1      22.608   0.416  52.542  1.00  0.00     0.097 A 
HETATM    3  C10 UNL     1      21.619   0.306  51.578  1.00  0.00     0.050 A 
HETATM    4  C11 UNL     1      21.774   1.105  50.448  1.00  0.00     0.075 A 
HETATM    5  N3  UNL     1      20.807   0.984  49.523  1.00  0.00    -0.258 NA
HETATM    6  C12 UNL     1      20.912   1.733  48.411  1.00  0.00     0.142 A 
HETATM    7  C13 UNL     1      21.955   2.619  48.168  1.00  0.00     0.089 A 
HETATM    8  C14 UNL     1      21.989   3.372  46.970  1.00  0.00     0.103 C 
HETATM    9  N4  UNL     1      22.023   4.006  45.995  1.00  0.00    -0.191 NA
HETATM   10  C15 UNL     1      22.921   2.705  49.151  1.00  0.00     0.073 A 
HETATM   11  C22 UNL     1      22.854   1.955  50.308  1.00  0.00     0.089 A 
HETATM   12  C23 UNL     1      23.798   2.013  51.307  1.00  0.00     0.262 A 
HETATM   13  O2  UNL     1      24.756   2.809  51.112  1.00  0.00    -0.267 OA
ENDROOT
BRANCH  10  14
HETATM   14  N5  UNL     1      24.015   3.583  48.977  1.00  0.00    -0.354 N 
HETATM   15  H18 UNL     1      24.764   2.904  48.680  1.00  0.00     0.166 HD
BRANCH  14  16
HETATM   16  C16 UNL     1      24.251   4.958  49.105  1.00  0.00     0.034 A 
HETATM   17  C17 UNL     1      25.554   5.421  48.942  1.00  0.00     0.032 A 
HETATM   18  C18 UNL     1      25.699   6.790  49.080  1.00  0.00     0.046 A 
HETATM   19  C19 UNL     1      24.648   7.637  49.357  1.00  0.00     0.138 A 
HETATM   20  F1  UNL     1      24.978   8.962  49.460  1.00  0.00    -0.204 F 
HETATM   21  C20 UNL     1      23.374   7.128  49.510  1.00  0.00     0.074 A 
HETATM   22 CL1  UNL     1      22.107   8.294  49.860  1.00  0.00    -0.081 Cl
HETATM   23  C21 UNL     1      23.182   5.769  49.380  1.00  0.00     0.056 A 
ENDBRANCH  14  16
ENDBRANCH  10  14
BRANCH   1  24
HETATM   24  C8  UNL     1      24.684   1.341  53.422  1.00  0.00     0.166 C 
BRANCH  24  25
HETATM   25  C2  UNL     1      25.415   0.071  53.520  1.00  0.00    -0.043 C 
HETATM   26  C1  UNL     1      25.346  -0.698  54.573  1.00  0.00     0.017 C 
BRANCH  25  27
HETATM   27  C3  UNL     1      26.215  -0.233  52.337  1.00  0.00     0.307 C 
BRANCH  27  28
HETATM   28  N1  UNL     1      27.573   0.223  52.535  1.00  0.00     0.096 N 
HETATM   29  C4  UNL     1      28.224  -0.574  53.519  1.00  0.00     0.299 C 
HETATM   30  C5  UNL     1      29.058   0.161  54.516  1.00  0.00     0.198 C 
HETATM   31  O1  UNL     1      28.456   1.361  54.840  1.00  0.00    -0.388 OA
HETATM   32  C6  UNL     1      28.535   2.176  53.701  1.00  0.00     0.198 C 
HETATM   33  C7  UNL     1      27.553   1.627  52.720  1.00  0.00     0.299 C 
ENDBRANCH  27  28
ENDBRANCH  25  27
ENDBRANCH  24  25
ENDBRANCH   1  24
TORSDOF 6
ENDMDL
