MODEL 1
REMARK VINA RESULT:      -7.2      0.000      0.000
REMARK  6 active torsions:
REMARK  status: ('A' for Active; 'I' for Inactive)
REMARK    1  A    between atoms: C2_2  and  C3_3 
REMARK    2  A    between atoms: C3_3  and  C4_4 
REMARK    3  A    between atoms: C7_7  and  C8_8 
REMARK    4  A    between atoms: C9_9  and  C10_10 
REMARK       I    between atoms: C10_10  and  N1_12 
REMARK    5  A    between atoms: N1_12  and  C11_13 
REMARK    6  A    between atoms: C16_19  and  O3_20 
ROOT
HETATM    1  C4  UNL     1      26.112  -0.752  53.450  1.00  0.00    -0.013 C 
HETATM    2  C5  UNL     1      25.875   0.300  52.428  1.00  0.00     0.012 C 
HETATM    3  C6  UNL     1      24.730   0.934  52.097  1.00  0.00    -0.003 C 
HETATM    4  C7  UNL     1      23.307   0.918  52.515  1.00  0.00     0.042 C 
HETATM    5  C13 UNL     1      22.550   0.482  51.290  1.00  0.00    -0.006 C 
HETATM    6  C14 UNL     1      21.253   0.307  51.102  1.00  0.00    -0.003 C 
HETATM    7  C15 UNL     1      20.239   0.524  52.134  1.00  0.00     0.205 C 
HETATM    8  O2  UNL     1      20.527  -0.435  53.168  1.00  0.00    -0.327 OA
HETATM    9  C16 UNL     1      21.788  -0.568  53.786  1.00  0.00     0.183 C 
HETATM   10  C17 UNL     1      23.018  -0.053  53.601  1.00  0.00     0.007 C 
HETATM   11  C18 UNL     1      23.582  -0.828  54.765  1.00  0.00     0.120 C 
HETATM   12  S1  UNL     1      25.325  -0.445  55.061  1.00  0.00    -0.129 SA
ENDROOT
BRANCH   4  13
HETATM   13  C8  UNL     1      22.854   2.291  52.846  1.00  0.00     0.001 C 
HETATM   14  C9  UNL     1      22.958   3.488  52.312  1.00  0.00     0.072 C 
BRANCH  14  15
HETATM   15  C10 UNL     1      23.632   3.877  51.082  1.00  0.00     0.244 C 
HETATM   16  O1  UNL     1      23.273   3.932  49.885  1.00  0.00    -0.268 OA
HETATM   17  N1  UNL     1      24.975   4.302  51.107  1.00  0.00    -0.337 N 
HETATM   18  H9  UNL     1      25.542   4.358  51.992  1.00  0.00     0.168 HD
BRANCH  17  19
HETATM   19  C11 UNL     1      25.685   4.692  49.960  1.00  0.00     0.064 C 
HETATM   20  C12 UNL     1      26.721   4.571  49.157  1.00  0.00     0.049 C 
ENDBRANCH  17  19
ENDBRANCH  14  15
ENDBRANCH   4  13
BRANCH   9  21
HETATM   21  O3  UNL     1      21.558  -1.487  54.827  1.00  0.00    -0.341 OA
HETATM   22  H17 UNL     1      21.333  -1.046  55.733  1.00  0.00     0.220 HD
ENDBRANCH   9  21
BRANCH   1  23
HETATM   23  C3  UNL     1      26.859  -1.643  52.857  1.00  0.00     0.059 C 
BRANCH  23  24
HETATM   24  C2  UNL     1      27.766  -2.650  52.507  1.00  0.00    -0.026 C 
HETATM   25  C1  UNL     1      28.885  -2.251  53.101  1.00  0.00     0.007 C 
ENDBRANCH  23  24
ENDBRANCH   1  23
TORSDOF 6
ENDMDL
MODEL 2
REMARK VINA RESULT:      -7.1      3.193      5.812
REMARK  6 active torsions:
REMARK  status: ('A' for Active; 'I' for Inactive)
REMARK    1  A    between atoms: C2_2  and  C3_3 
REMARK    2  A    between atoms: C3_3  and  C4_4 
REMARK    3  A    between atoms: C7_7  and  C8_8 
REMARK    4  A    between atoms: C9_9  and  C10_10 
REMARK       I    between atoms: C10_10  and  N1_12 
REMARK    5  A    between atoms: N1_12  and  C11_13 
REMARK    6  A    between atoms: C16_19  and  O3_20 
ROOT
HETATM    1  C4  UNL     1      22.067   1.347  51.505  1.00  0.00    -0.013 C 
HETATM    2  C5  UNL     1      22.428   1.541  50.077  1.00  0.00     0.012 C 
HETATM    3  C6  UNL     1      23.143   2.530  49.499  1.00  0.00    -0.003 C 
HETATM    4  C7  UNL     1      23.844   3.768  49.919  1.00  0.00     0.042 C 
HETATM    5  C13 UNL     1      23.122   4.881  49.209  1.00  0.00    -0.006 C 
HETATM    6  C14 UNL     1      23.337   6.185  49.221  1.00  0.00    -0.003 C 
HETATM    7  C15 UNL     1      24.400   6.833  49.988  1.00  0.00     0.205 C 
HETATM    8  O2  UNL     1      24.101   6.564  51.370  1.00  0.00    -0.327 OA
HETATM    9  C16 UNL     1      23.886   5.270  51.888  1.00  0.00     0.183 C 
HETATM   10  C17 UNL     1      23.762   4.030  51.379  1.00  0.00     0.007 C 
HETATM   11  C18 UNL     1      23.577   3.423  52.748  1.00  0.00     0.120 C 
HETATM   12  S1  UNL     1      23.426   1.622  52.682  1.00  0.00    -0.129 SA
ENDROOT
BRANCH   4  13
HETATM   13  C8  UNL     1      25.241   3.760  49.422  1.00  0.00     0.001 C 
HETATM   14  C9  UNL     1      26.381   3.214  49.783  1.00  0.00     0.072 C 
BRANCH  14  15
HETATM   15  C10 UNL     1      26.653   2.345  50.919  1.00  0.00     0.244 C 
HETATM   16  O1  UNL     1      26.442   1.132  51.143  1.00  0.00    -0.268 OA
HETATM   17  N1  UNL     1      27.281   2.853  52.072  1.00  0.00    -0.337 N 
HETATM   18  H9  UNL     1      27.577   3.859  52.167  1.00  0.00     0.168 HD
BRANCH  17  19
HETATM   19  C11 UNL     1      27.573   2.072  53.202  1.00  0.00     0.064 C 
HETATM   20  C12 UNL     1      28.443   1.459  53.978  1.00  0.00     0.049 C 
ENDBRANCH  17  19
ENDBRANCH  14  15
ENDBRANCH   4  13
BRANCH   9  21
HETATM   21  O3  UNL     1      23.800   5.474  53.278  1.00  0.00    -0.341 OA
HETATM   22  H17 UNL     1      24.506   6.129  53.650  1.00  0.00     0.220 HD
ENDBRANCH   9  21
BRANCH   1  23
HETATM   23  C3  UNL     1      20.804   1.017  51.497  1.00  0.00     0.059 C 
BRANCH  23  24
HETATM   24  C2  UNL     1      19.521   0.534  51.217  1.00  0.00    -0.026 C 
HETATM   25  C1  UNL     1      19.225  -0.155  52.314  1.00  0.00     0.007 C 
ENDBRANCH  23  24
ENDBRANCH   1  23
TORSDOF 6
ENDMDL
MODEL 3
REMARK VINA RESULT:      -6.8      3.093      6.237
REMARK  6 active torsions:
REMARK  status: ('A' for Active; 'I' for Inactive)
REMARK    1  A    between atoms: C2_2  and  C3_3 
REMARK    2  A    between atoms: C3_3  and  C4_4 
REMARK    3  A    between atoms: C7_7  and  C8_8 
REMARK    4  A    between atoms: C9_9  and  C10_10 
REMARK       I    between atoms: C10_10  and  N1_12 
REMARK    5  A    between atoms: N1_12  and  C11_13 
REMARK    6  A    between atoms: C16_19  and  O3_20 
ROOT
HETATM    1  C4  UNL     1      22.775   2.407  50.957  1.00  0.00    -0.013 C 
HETATM    2  C5  UNL     1      22.562   0.947  51.130  1.00  0.00     0.012 C 
HETATM    3  C6  UNL     1      23.131   0.094  52.009  1.00  0.00    -0.003 C 
HETATM    4  C7  UNL     1      24.127   0.152  53.106  1.00  0.00     0.042 C 
HETATM    5  C13 UNL     1      25.256  -0.731  52.650  1.00  0.00    -0.006 C 
HETATM    6  C14 UNL     1      26.395  -1.042  53.246  1.00  0.00    -0.003 C 
HETATM    7  C15 UNL     1      26.794  -0.543  54.562  1.00  0.00     0.205 C 
HETATM    8  O2  UNL     1      26.908   0.884  54.417  1.00  0.00    -0.327 OA
HETATM    9  C16 UNL     1      25.881   1.705  53.908  1.00  0.00     0.183 C 
HETATM   10  C17 UNL     1      24.677   1.512  53.338  1.00  0.00     0.007 C 
HETATM   11  C18 UNL     1      24.439   2.995  53.198  1.00  0.00     0.120 C 
HETATM   12  S1  UNL     1      22.810   3.364  52.504  1.00  0.00    -0.129 SA
ENDROOT
BRANCH   4  13
HETATM   13  C8  UNL     1      23.567  -0.451  54.340  1.00  0.00     0.001 C 
HETATM   14  C9  UNL     1      22.372  -0.637  54.856  1.00  0.00     0.072 C 
BRANCH  14  15
HETATM   15  C10 UNL     1      21.077  -0.262  54.306  1.00  0.00     0.244 C 
HETATM   16  O1  UNL     1      20.526   0.838  54.079  1.00  0.00    -0.268 OA
HETATM   17  N1  UNL     1      20.159  -1.251  53.905  1.00  0.00    -0.337 N 
HETATM   18  H9  UNL     1      20.357  -2.282  53.981  1.00  0.00     0.168 HD
BRANCH  17  19
HETATM   19  C11 UNL     1      18.895  -0.961  53.366  1.00  0.00     0.064 C 
HETATM   20  C12 UNL     1      17.606  -1.211  53.267  1.00  0.00     0.049 C 
ENDBRANCH  17  19
ENDBRANCH  14  15
ENDBRANCH   4  13
BRANCH   9  21
HETATM   21  O3  UNL     1      26.365   3.012  54.107  1.00  0.00    -0.341 OA
HETATM   22  H17 UNL     1      26.079   3.432  55.007  1.00  0.00     0.220 HD
ENDBRANCH   9  21
BRANCH   1  23
HETATM   23  C3  UNL     1      22.882   2.588  49.669  1.00  0.00     0.059 C 
BRANCH  23  24
HETATM   24  C2  UNL     1      22.813   3.023  48.341  1.00  0.00    -0.026 C 
HETATM   25  C1  UNL     1      22.310   1.965  47.715  1.00  0.00     0.007 C 
ENDBRANCH  23  24
ENDBRANCH   1  23
TORSDOF 6
ENDMDL
MODEL 4
REMARK VINA RESULT:      -6.5      2.958      5.690
REMARK  6 active torsions:
REMARK  status: ('A' for Active; 'I' for Inactive)
REMARK    1  A    between atoms: C2_2  and  C3_3 
REMARK    2  A    between atoms: C3_3  and  C4_4 
REMARK    3  A    between atoms: C7_7  and  C8_8 
REMARK    4  A    between atoms: C9_9  and  C10_10 
REMARK       I    between atoms: C10_10  and  N1_12 
REMARK    5  A    between atoms: N1_12  and  C11_13 
REMARK    6  A    between atoms: C16_19  and  O3_20 
ROOT
HETATM    1  C4  UNL     1      24.313   5.129  51.022  1.00  0.00    -0.013 C 
HETATM    2  C5  UNL     1      23.771   4.706  52.340  1.00  0.00     0.012 C 
HETATM    3  C6  UNL     1      23.048   3.612  52.660  1.00  0.00    -0.003 C 
HETATM    4  C7  UNL     1      22.490   2.424  51.968  1.00  0.00     0.042 C 
HETATM    5  C13 UNL     1      21.000   2.547  52.131  1.00  0.00    -0.006 C 
HETATM    6  C14 UNL     1      20.025   1.756  51.716  1.00  0.00    -0.003 C 
HETATM    7  C15 UNL     1      20.236   0.521  50.962  1.00  0.00     0.205 C 
HETATM    8  O2  UNL     1      20.848   0.923  49.723  1.00  0.00    -0.327 OA
HETATM    9  C16 UNL     1      22.014   1.714  49.644  1.00  0.00     0.183 C 
HETATM   10  C17 UNL     1      22.788   2.389  50.513  1.00  0.00     0.007 C 
HETATM   11  C18 UNL     1      23.722   2.844  49.420  1.00  0.00     0.120 C 
HETATM   12  S1  UNL     1      25.112   3.806  50.063  1.00  0.00    -0.129 SA
ENDROOT
BRANCH   4  13
HETATM   13  C8  UNL     1      22.908   1.182  52.662  1.00  0.00     0.001 C 
HETATM   14  C9  UNL     1      24.042   0.578  52.940  1.00  0.00     0.072 C 
BRANCH  14  15
HETATM   15  C10 UNL     1      25.398   0.994  52.610  1.00  0.00     0.244 C 
HETATM   16  O1  UNL     1      26.148   0.782  51.632  1.00  0.00    -0.268 OA
HETATM   17  N1  UNL     1      26.128   1.811  53.494  1.00  0.00    -0.337 N 
HETATM   18  H9  UNL     1      25.742   2.152  54.412  1.00  0.00     0.168 HD
BRANCH  17  19
HETATM   19  C11 UNL     1      27.438   2.250  53.239  1.00  0.00     0.064 C 
HETATM   20  C12 UNL     1      28.678   2.447  53.634  1.00  0.00     0.049 C 
ENDBRANCH  17  19
ENDBRANCH  14  15
ENDBRANCH   4  13
BRANCH   9  21
HETATM   21  O3  UNL     1      22.332   1.709  48.273  1.00  0.00    -0.341 OA
HETATM   22  H17 UNL     1      22.398   0.763  47.861  1.00  0.00     0.220 HD
ENDBRANCH   9  21
BRANCH   1  23
HETATM   23  C3  UNL     1      24.039   6.402  50.932  1.00  0.00     0.059 C 
BRANCH  23  24
HETATM   24  C2  UNL     1      24.026   7.783  50.708  1.00  0.00    -0.026 C 
HETATM   25  C1  UNL     1      22.829   7.978  50.166  1.00  0.00     0.007 C 
ENDBRANCH  23  24
ENDBRANCH   1  23
TORSDOF 6
ENDMDL
MODEL 5
REMARK VINA RESULT:      -6.5      2.575      4.969
REMARK  6 active torsions:
REMARK  status: ('A' for Active; 'I' for Inactive)
REMARK    1  A    between atoms: C2_2  and  C3_3 
REMARK    2  A    between atoms: C3_3  and  C4_4 
REMARK    3  A    between atoms: C7_7  and  C8_8 
REMARK    4  A    between atoms: C9_9  and  C10_10 
REMARK       I    between atoms: C10_10  and  N1_12 
REMARK    5  A    between atoms: N1_12  and  C11_13 
REMARK    6  A    between atoms: C16_19  and  O3_20 
ROOT
HETATM    1  C4  UNL     1      23.804   0.689  52.795  1.00  0.00    -0.013 C 
HETATM    2  C5  UNL     1      24.193   2.082  53.137  1.00  0.00     0.012 C 
HETATM    3  C6  UNL     1      23.993   3.224  52.444  1.00  0.00    -0.003 C 
HETATM    4  C7  UNL     1      23.371   3.635  51.162  1.00  0.00     0.042 C 
HETATM    5  C13 UNL     1      24.499   4.215  50.354  1.00  0.00    -0.006 C 
HETATM    6  C14 UNL     1      24.502   4.737  49.139  1.00  0.00    -0.003 C 
HETATM    7  C15 UNL     1      23.314   4.855  48.295  1.00  0.00     0.205 C 
HETATM    8  O2  UNL     1      22.883   3.506  48.042  1.00  0.00    -0.327 OA
HETATM    9  C16 UNL     1      22.631   2.560  49.057  1.00  0.00     0.183 C 
HETATM   10  C17 UNL     1      22.793   2.503  50.393  1.00  0.00     0.007 C 
HETATM   11  C18 UNL     1      22.217   1.111  50.463  1.00  0.00     0.120 C 
HETATM   12  S1  UNL     1      22.109   0.501  52.162  1.00  0.00    -0.129 SA
ENDROOT
BRANCH   4  13
HETATM   13  C8  UNL     1      22.390   4.723  51.393  1.00  0.00     0.001 C 
HETATM   14  C9  UNL     1      21.098   4.814  51.621  1.00  0.00     0.072 C 
BRANCH  14  15
HETATM   15  C10 UNL     1      20.118   3.743  51.728  1.00  0.00     0.244 C 
HETATM   16  O1  UNL     1      19.716   3.038  52.680  1.00  0.00    -0.268 OA
HETATM   17  N1  UNL     1      19.402   3.316  50.594  1.00  0.00    -0.337 N 
HETATM   18  H9  UNL     1      19.535   3.737  49.639  1.00  0.00     0.168 HD
BRANCH  17  19
HETATM   19  C11 UNL     1      18.442   2.291  50.626  1.00  0.00     0.064 C 
HETATM   20  C12 UNL     1      18.054   1.073  50.308  1.00  0.00     0.049 C 
ENDBRANCH  17  19
ENDBRANCH  14  15
ENDBRANCH   4  13
BRANCH   9  21
HETATM   21  O3  UNL     1      22.080   1.463  48.367  1.00  0.00    -0.341 OA
HETATM   22  H17 UNL     1      22.640   1.156  47.555  1.00  0.00     0.220 HD
ENDBRANCH   9  21
BRANCH   1  23
HETATM   23  C3  UNL     1      24.856  -0.036  53.064  1.00  0.00     0.059 C 
BRANCH  23  24
HETATM   24  C2  UNL     1      26.080  -0.713  53.076  1.00  0.00    -0.026 C 
HETATM   25  C1  UNL     1      26.698  -0.215  52.011  1.00  0.00     0.007 C 
ENDBRANCH  23  24
ENDBRANCH   1  23
TORSDOF 6
ENDMDL
MODEL 6
REMARK VINA RESULT:      -6.4      3.565      7.243
REMARK  6 active torsions:
REMARK  status: ('A' for Active; 'I' for Inactive)
REMARK    1  A    between atoms: C2_2  and  C3_3 
REMARK    2  A    between atoms: C3_3  and  C4_4 
REMARK    3  A    between atoms: C7_7  and  C8_8 
REMARK    4  A    between atoms: C9_9  and  C10_10 
REMARK       I    between atoms: C10_10  and  N1_12 
REMARK    5  A    between atoms: N1_12  and  C11_13 
REMARK    6  A    between atoms: C16_19  and  O3_20 
ROOT
HETATM    1  C4  UNL     1      21.433   3.770  50.388  1.00  0.00    -0.013 C 
HETATM    2  C5  UNL     1      22.177   3.513  49.127  1.00  0.00     0.012 C 
HETATM    3  C6  UNL     1      23.386   3.970  48.735  1.00  0.00    -0.003 C 
HETATM    4  C7  UNL     1      24.457   4.844  49.274  1.00  0.00     0.042 C 
HETATM    5  C13 UNL     1      24.532   5.999  48.314  1.00  0.00    -0.006 C 
HETATM    6  C14 UNL     1      25.319   7.061  48.312  1.00  0.00    -0.003 C 
HETATM    7  C15 UNL     1      26.340   7.326  49.326  1.00  0.00     0.205 C 
HETATM    8  O2  UNL     1      25.625   7.481  50.565  1.00  0.00    -0.327 OA
HETATM    9  C16 UNL     1      24.715   6.529  51.070  1.00  0.00     0.183 C 
HETATM   10  C17 UNL     1      24.155   5.390  50.622  1.00  0.00     0.007 C 
HETATM   11  C18 UNL     1      23.384   5.195  51.904  1.00  0.00     0.120 C 
HETATM   12  S1  UNL     1      22.434   3.657  51.903  1.00  0.00    -0.129 SA
ENDROOT
BRANCH   4  13
HETATM   13  C8  UNL     1      25.763   4.144  49.225  1.00  0.00     0.001 C 
HETATM   14  C9  UNL     1      26.375   3.211  49.920  1.00  0.00     0.072 C 
BRANCH  14  15
HETATM   15  C10 UNL     1      25.898   2.494  51.094  1.00  0.00     0.244 C 
HETATM   16  O1  UNL     1      24.902   1.770  51.314  1.00  0.00    -0.268 OA
HETATM   17  N1  UNL     1      26.620   2.544  52.302  1.00  0.00    -0.337 N 
HETATM   18  H9  UNL     1      27.515   3.086  52.414  1.00  0.00     0.168 HD
BRANCH  17  19
HETATM   19  C11 UNL     1      26.219   1.877  53.471  1.00  0.00     0.064 C 
HETATM   20  C12 UNL     1      26.468   1.037  54.455  1.00  0.00     0.049 C 
ENDBRANCH  17  19
ENDBRANCH  14  15
ENDBRANCH   4  13
BRANCH   9  21
HETATM   21  O3  UNL     1      24.400   7.012  52.354  1.00  0.00    -0.341 OA
HETATM   22  H17 UNL     1      23.518   7.549  52.395  1.00  0.00     0.220 HD
ENDBRANCH   9  21
BRANCH   1  23
HETATM   23  C3  UNL     1      20.206   4.018  50.017  1.00  0.00     0.059 C 
BRANCH  23  24
HETATM   24  C2  UNL     1      18.840   4.301  49.924  1.00  0.00    -0.026 C 
HETATM   25  C1  UNL     1      18.371   3.853  51.084  1.00  0.00     0.007 C 
ENDBRANCH  23  24
ENDBRANCH   1  23
TORSDOF 6
ENDMDL
MODEL 7
REMARK VINA RESULT:      -6.4      7.913     10.253
REMARK  6 active torsions:
REMARK  status: ('A' for Active; 'I' for Inactive)
REMARK    1  A    between atoms: C2_2  and  C3_3 
REMARK    2  A    between atoms: C3_3  and  C4_4 
REMARK    3  A    between atoms: C7_7  and  C8_8 
REMARK    4  A    between atoms: C9_9  and  C10_10 
REMARK       I    between atoms: C10_10  and  N1_12 
REMARK    5  A    between atoms: N1_12  and  C11_13 
REMARK    6  A    between atoms: C16_19  and  O3_20 
ROOT
HETATM    1  C4  UNL     1      30.970   8.530  47.943  1.00  0.00    -0.013 C 
HETATM    2  C5  UNL     1      30.213   7.664  47.001  1.00  0.00     0.012 C 
HETATM    3  C6  UNL     1      28.903   7.340  46.997  1.00  0.00    -0.003 C 
HETATM    4  C7  UNL     1      27.698   7.630  47.812  1.00  0.00     0.042 C 
HETATM    5  C13 UNL     1      27.267   6.295  48.355  1.00  0.00    -0.006 C 
HETATM    6  C14 UNL     1      26.248   5.976  49.133  1.00  0.00    -0.003 C 
HETATM    7  C15 UNL     1      25.277   6.941  49.649  1.00  0.00     0.205 C 
HETATM    8  O2  UNL     1      26.029   7.836  50.488  1.00  0.00    -0.327 OA
HETATM    9  C16 UNL     1      27.181   8.529  50.061  1.00  0.00     0.183 C 
HETATM   10  C17 UNL     1      27.963   8.528  48.966  1.00  0.00     0.007 C 
HETATM   11  C18 UNL     1      28.858   9.603  49.531  1.00  0.00     0.120 C 
HETATM   12  S1  UNL     1      30.151  10.097  48.368  1.00  0.00    -0.129 SA
ENDROOT
BRANCH   4  13
HETATM   13  C8  UNL     1      26.601   8.129  46.947  1.00  0.00     0.001 C 
HETATM   14  C9  UNL     1      26.253   9.278  46.411  1.00  0.00     0.072 C 
BRANCH  14  15
HETATM   15  C10 UNL     1      26.919  10.569  46.518  1.00  0.00     0.244 C 
HETATM   16  O1  UNL     1      27.820  11.129  45.856  1.00  0.00    -0.268 OA
HETATM   17  N1  UNL     1      26.565  11.470  47.540  1.00  0.00    -0.337 N 
HETATM   18  H9  UNL     1      25.823  11.263  48.257  1.00  0.00     0.168 HD
BRANCH  17  19
HETATM   19  C11 UNL     1      27.164  12.730  47.701  1.00  0.00     0.064 C 
HETATM   20  C12 UNL     1      27.566  13.719  48.473  1.00  0.00     0.049 C 
ENDBRANCH  17  19
ENDBRANCH  14  15
ENDBRANCH   4  13
BRANCH   9  21
HETATM   21  O3  UNL     1      27.470   9.395  51.133  1.00  0.00    -0.341 OA
HETATM   22  H17 UNL     1      27.450  10.396  50.880  1.00  0.00     0.220 HD
ENDBRANCH   9  21
BRANCH   1  23
HETATM   23  C3  UNL     1      32.067   7.872  48.207  1.00  0.00     0.059 C 
BRANCH  23  24
HETATM   24  C2  UNL     1      33.342   7.442  48.586  1.00  0.00    -0.026 C 
HETATM   25  C1  UNL     1      33.129   6.181  48.947  1.00  0.00     0.007 C 
ENDBRANCH  23  24
ENDBRANCH   1  23
TORSDOF 6
ENDMDL
MODEL 8
REMARK VINA RESULT:      -6.3      2.798      5.269
REMARK  6 active torsions:
REMARK  status: ('A' for Active; 'I' for Inactive)
REMARK    1  A    between atoms: C2_2  and  C3_3 
REMARK    2  A    between atoms: C3_3  and  C4_4 
REMARK    3  A    between atoms: C7_7  and  C8_8 
REMARK    4  A    between atoms: C9_9  and  C10_10 
REMARK       I    between atoms: C10_10  and  N1_12 
REMARK    5  A    between atoms: N1_12  and  C11_13 
REMARK    6  A    between atoms: C16_19  and  O3_20 
ROOT
HETATM    1  C4  UNL     1      25.774   0.749  52.771  1.00  0.00    -0.013 C 
HETATM    2  C5  UNL     1      24.312   0.485  52.741  1.00  0.00     0.012 C 
HETATM    3  C6  UNL     1      23.325   1.188  52.146  1.00  0.00    -0.003 C 
HETATM    4  C7  UNL     1      23.193   2.419  51.328  1.00  0.00     0.042 C 
HETATM    5  C13 UNL     1      22.345   3.345  52.156  1.00  0.00    -0.006 C 
HETATM    6  C14 UNL     1      21.914   4.568  51.902  1.00  0.00    -0.003 C 
HETATM    7  C15 UNL     1      22.208   5.302  50.671  1.00  0.00     0.205 C 
HETATM    8  O2  UNL     1      23.637   5.475  50.655  1.00  0.00    -0.327 OA
HETATM    9  C16 UNL     1      24.557   4.413  50.787  1.00  0.00     0.183 C 
HETATM   10  C17 UNL     1      24.487   3.098  51.064  1.00  0.00     0.007 C 
HETATM   11  C18 UNL     1      25.982   2.934  50.950  1.00  0.00     0.120 C 
HETATM   12  S1  UNL     1      26.500   1.216  51.170  1.00  0.00    -0.129 SA
ENDROOT
BRANCH   4  13
HETATM   13  C8  UNL     1      22.441   2.128  50.083  1.00  0.00     0.001 C 
HETATM   14  C9  UNL     1      21.222   1.751  49.767  1.00  0.00     0.072 C 
BRANCH  14  15
HETATM   15  C10 UNL     1      20.102   1.467  50.653  1.00  0.00     0.244 C 
HETATM   16  O1  UNL     1      19.118   2.138  51.036  1.00  0.00    -0.268 OA
HETATM   17  N1  UNL     1      19.984   0.209  51.273  1.00  0.00    -0.337 N 
HETATM   18  H9  UNL     1      20.679  -0.568  51.131  1.00  0.00     0.168 HD
BRANCH  17  19
HETATM   19  C11 UNL     1      18.930  -0.133  52.136  1.00  0.00     0.064 C 
HETATM   20  C12 UNL     1      17.765  -0.707  52.353  1.00  0.00     0.049 C 
ENDBRANCH  17  19
ENDBRANCH  14  15
ENDBRANCH   4  13
BRANCH   9  21
HETATM   21  O3  UNL     1      25.805   5.018  50.545  1.00  0.00    -0.341 OA
HETATM   22  H17 UNL     1      25.762   5.823  49.899  1.00  0.00     0.220 HD
ENDBRANCH   9  21
BRANCH   1  23
HETATM   23  C3  UNL     1      26.131   0.558  54.012  1.00  0.00     0.059 C 
BRANCH  23  24
HETATM   24  C2  UNL     1      26.740   0.187  55.215  1.00  0.00    -0.026 C 
HETATM   25  C1  UNL     1      28.027   0.145  54.888  1.00  0.00     0.007 C 
ENDBRANCH  23  24
ENDBRANCH   1  23
TORSDOF 6
ENDMDL
MODEL 9
REMARK VINA RESULT:      -6.2      9.245     12.724
REMARK  6 active torsions:
REMARK  status: ('A' for Active; 'I' for Inactive)
REMARK    1  A    between atoms: C2_2  and  C3_3 
REMARK    2  A    between atoms: C3_3  and  C4_4 
REMARK    3  A    between atoms: C7_7  and  C8_8 
REMARK    4  A    between atoms: C9_9  and  C10_10 
REMARK       I    between atoms: C10_10  and  N1_12 
REMARK    5  A    between atoms: N1_12  and  C11_13 
REMARK    6  A    between atoms: C16_19  and  O3_20 
ROOT
HETATM    1  C4  UNL     1      30.151   6.901  47.748  1.00  0.00    -0.013 C 
HETATM    2  C5  UNL     1      31.014   6.419  48.858  1.00  0.00     0.012 C 
HETATM    3  C6  UNL     1      32.249   5.876  48.812  1.00  0.00    -0.003 C 
HETATM    4  C7  UNL     1      33.254   5.521  47.781  1.00  0.00     0.042 C 
HETATM    5  C13 UNL     1      33.407   4.028  47.888  1.00  0.00    -0.006 C 
HETATM    6  C14 UNL     1      34.179   3.196  47.211  1.00  0.00    -0.003 C 
HETATM    7  C15 UNL     1      35.096   3.609  46.150  1.00  0.00     0.205 C 
HETATM    8  O2  UNL     1      34.266   4.162  45.113  1.00  0.00    -0.327 OA
HETATM    9  C16 UNL     1      33.322   5.188  45.328  1.00  0.00     0.183 C 
HETATM   10  C17 UNL     1      32.821   5.836  46.395  1.00  0.00     0.007 C 
HETATM   11  C18 UNL     1      31.934   6.697  45.531  1.00  0.00     0.120 C 
HETATM   12  S1  UNL     1      31.005   7.910  46.498  1.00  0.00    -0.129 SA
ENDROOT
BRANCH   4  13
HETATM   13  C8  UNL     1      34.567   6.124  48.115  1.00  0.00     0.001 C 
HETATM   14  C9  UNL     1      35.180   7.265  47.891  1.00  0.00     0.072 C 
BRANCH  14  15
HETATM   15  C10 UNL     1      34.698   8.426  47.157  1.00  0.00     0.244 C 
HETATM   16  O1  UNL     1      34.045   9.441  47.486  1.00  0.00    -0.268 OA
HETATM   17  N1  UNL     1      34.953   8.554  45.778  1.00  0.00    -0.337 N 
HETATM   18  H9  UNL     1      35.491   7.838  45.225  1.00  0.00     0.168 HD
BRANCH  17  19
HETATM   19  C11 UNL     1      34.519   9.646  45.009  1.00  0.00     0.064 C 
HETATM   20  C12 UNL     1      34.774  10.642  44.186  1.00  0.00     0.049 C 
ENDBRANCH  17  19
ENDBRANCH  14  15
ENDBRANCH   4  13
BRANCH   9  21
HETATM   21  O3  UNL     1      32.882   5.518  44.032  1.00  0.00    -0.341 OA
HETATM   22  H17 UNL     1      31.870   5.715  43.971  1.00  0.00     0.220 HD
ENDBRANCH   9  21
BRANCH   1  23
HETATM   23  C3  UNL     1      28.962   6.430  48.009  1.00  0.00     0.059 C 
BRANCH  23  24
HETATM   24  C2  UNL     1      27.608   6.223  48.294  1.00  0.00    -0.026 C 
HETATM   25  C1  UNL     1      27.576   4.938  48.634  1.00  0.00     0.007 C 
ENDBRANCH  23  24
ENDBRANCH   1  23
TORSDOF 6
ENDMDL
