MODEL 1
REMARK VINA RESULT:      -8.2      0.000      0.000
REMARK  5 active torsions:
REMARK  status: ('A' for Active; 'I' for Inactive)
REMARK    1  A    between atoms: C2_2  and  C3_3 
REMARK    2  A    between atoms: C3_3  and  C4_4 
REMARK    3  A    between atoms: C12_16  and  O2_17 
REMARK    4  A    between atoms: C14_19  and  N3_21 
REMARK    5  A    between atoms: N3_21  and  C16_22 
ROOT
HETATM    1  C3  UNL     1      25.387   0.478  53.091  1.00  0.00     0.076 C 
HETATM    2  N2  UNL     1      25.770   1.271  54.309  1.00  0.00    -0.358 N 
HETATM    3  C12 UNL     1      26.764   2.159  53.723  1.00  0.00     0.135 C 
HETATM    4  C13 UNL     1      26.396   2.414  52.446  1.00  0.00     0.061 C 
HETATM    5  C14 UNL     1      25.100   1.645  52.237  1.00  0.00     0.075 C 
HETATM    6  C15 UNL     1      24.751   1.412  50.827  1.00  0.00     0.046 C 
HETATM    7  H11 UNL     1      25.621   1.432  55.340  1.00  0.00     0.162 HD
ENDROOT
BRANCH   1   8
HETATM    8  C2  UNL     1      26.710  -0.131  52.696  1.00  0.00     0.030 C 
HETATM    9  C1  UNL     1      26.728  -1.556  52.327  1.00  0.00     0.007 C 
ENDBRANCH   1   8
BRANCH   1  10
HETATM   10  C4  UNL     1      24.371  -0.514  53.367  1.00  0.00     0.144 A 
HETATM   11  C5  UNL     1      24.347  -0.914  54.823  1.00  0.00     0.233 A 
HETATM   12  O1  UNL     1      25.321  -1.271  55.574  1.00  0.00    -0.272 OA
HETATM   13  N1  UNL     1      23.030  -0.865  55.367  1.00  0.00    -0.326 N 
HETATM   14  C6  UNL     1      22.200  -0.507  54.256  1.00  0.00     0.042 A 
HETATM   15  H7  UNL     1      22.747  -1.048  56.353  1.00  0.00     0.169 HD
HETATM   16  C7  UNL     1      20.824  -0.387  54.298  1.00  0.00     0.033 A 
HETATM   17  C11 UNL     1      22.975  -0.344  53.095  1.00  0.00    -0.013 A 
HETATM   18  C8  UNL     1      20.153  -0.090  53.139  1.00  0.00     0.044 A 
HETATM   19  C9  UNL     1      20.812   0.090  51.942  1.00  0.00     0.117 A 
HETATM   20  F1  UNL     1      20.174   0.383  50.784  1.00  0.00    -0.206 F 
HETATM   21  C10 UNL     1      22.180  -0.047  51.991  1.00  0.00     0.052 A 
ENDBRANCH   1  10
BRANCH   5  22
HETATM   22  N3  UNL     1      24.177   2.609  52.908  1.00  0.00    -0.375 N 
HETATM   23  H17 UNL     1      24.187   2.542  53.972  1.00  0.00     0.161 HD
BRANCH  22  24
HETATM   24  C16 UNL     1      23.301   3.620  52.419  1.00  0.00     0.031 A 
HETATM   25  C17 UNL     1      23.770   4.866  51.984  1.00  0.00     0.048 A 
HETATM   26  C18 UNL     1      22.825   5.728  51.529  1.00  0.00     0.118 A 
HETATM   27  N4  UNL     1      21.508   5.499  51.460  1.00  0.00    -0.273 NA
HETATM   28  C19 UNL     1      21.039   4.313  51.871  1.00  0.00     0.118 A 
HETATM   29  C20 UNL     1      21.940   3.393  52.344  1.00  0.00     0.048 A 
ENDBRANCH  22  24
ENDBRANCH   5  22
BRANCH   3  30
HETATM   30  O2  UNL     1      27.958   2.774  54.189  1.00  0.00    -0.346 OA
HETATM   31  H12 UNL     1      28.844   2.299  54.103  1.00  0.00     0.219 HD
ENDBRANCH   3  30
TORSDOF 5
ENDMDL
MODEL 2
REMARK VINA RESULT:      -7.7      3.020      6.138
REMARK  5 active torsions:
REMARK  status: ('A' for Active; 'I' for Inactive)
REMARK    1  A    between atoms: C2_2  and  C3_3 
REMARK    2  A    between atoms: C3_3  and  C4_4 
REMARK    3  A    between atoms: C12_16  and  O2_17 
REMARK    4  A    between atoms: C14_19  and  N3_21 
REMARK    5  A    between atoms: N3_21  and  C16_22 
ROOT
HETATM    1  C3  UNL     1      21.634   3.150  50.986  1.00  0.00     0.076 C 
HETATM    2  N2  UNL     1      20.722   3.887  51.927  1.00  0.00    -0.358 N 
HETATM    3  C12 UNL     1      19.434   3.401  51.453  1.00  0.00     0.135 C 
HETATM    4  C13 UNL     1      19.600   2.128  51.021  1.00  0.00     0.061 C 
HETATM    5  C14 UNL     1      21.070   1.814  51.249  1.00  0.00     0.075 C 
HETATM    6  C15 UNL     1      21.577   0.674  50.466  1.00  0.00     0.046 C 
HETATM    7  H11 UNL     1      20.643   4.564  52.730  1.00  0.00     0.162 HD
ENDROOT
BRANCH   1   8
HETATM    8  C2  UNL     1      21.157   3.651  49.644  1.00  0.00     0.030 C 
HETATM    9  C1  UNL     1      22.157   3.817  48.578  1.00  0.00     0.007 C 
ENDBRANCH   1   8
BRANCH   1  10
HETATM   10  C4  UNL     1      23.032   3.433  51.227  1.00  0.00     0.144 A 
HETATM   11  C5  UNL     1      23.227   4.711  52.007  1.00  0.00     0.233 A 
HETATM   12  O1  UNL     1      22.724   5.869  51.792  1.00  0.00    -0.272 OA
HETATM   13  N1  UNL     1      24.102   4.528  53.118  1.00  0.00    -0.326 N 
HETATM   14  C6  UNL     1      24.526   3.164  53.016  1.00  0.00     0.042 A 
HETATM   15  H7  UNL     1      24.365   5.235  53.838  1.00  0.00     0.169 HD
HETATM   16  C7  UNL     1      25.428   2.546  53.861  1.00  0.00     0.033 A 
HETATM   17  C11 UNL     1      23.935   2.548  51.899  1.00  0.00    -0.013 A 
HETATM   18  C8  UNL     1      25.783   1.245  53.609  1.00  0.00     0.044 A 
HETATM   19  C9  UNL     1      25.266   0.544  52.540  1.00  0.00     0.117 A 
HETATM   20  F1  UNL     1      25.600  -0.740  52.269  1.00  0.00    -0.206 F 
HETATM   21  C10 UNL     1      24.375   1.235  51.752  1.00  0.00     0.052 A 
ENDBRANCH   1  10
BRANCH   5  22
HETATM   22  N3  UNL     1      20.997   1.521  52.712  1.00  0.00    -0.375 N 
HETATM   23  H17 UNL     1      20.819   2.384  53.312  1.00  0.00     0.161 HD
BRANCH  22  24
HETATM   24  C16 UNL     1      21.089   0.320  53.471  1.00  0.00     0.031 A 
HETATM   25  C17 UNL     1      20.074  -0.645  53.467  1.00  0.00     0.048 A 
HETATM   26  C18 UNL     1      20.303  -1.748  54.225  1.00  0.00     0.118 A 
HETATM   27  N4  UNL     1      21.392  -1.993  54.962  1.00  0.00    -0.273 NA
HETATM   28  C19 UNL     1      22.376  -1.083  54.979  1.00  0.00     0.118 A 
HETATM   29  C20 UNL     1      22.210   0.058  54.235  1.00  0.00     0.048 A 
ENDBRANCH  22  24
ENDBRANCH   5  22
BRANCH   3  30
HETATM   30  O2  UNL     1      18.126   3.950  51.362  1.00  0.00    -0.346 OA
HETATM   31  H12 UNL     1      17.881   4.775  51.888  1.00  0.00     0.219 HD
ENDBRANCH   3  30
TORSDOF 5
ENDMDL
MODEL 3
REMARK VINA RESULT:      -7.5      2.611      4.235
REMARK  5 active torsions:
REMARK  status: ('A' for Active; 'I' for Inactive)
REMARK    1  A    between atoms: C2_2  and  C3_3 
REMARK    2  A    between atoms: C3_3  and  C4_4 
REMARK    3  A    between atoms: C12_16  and  O2_17 
REMARK    4  A    between atoms: C14_19  and  N3_21 
REMARK    5  A    between atoms: N3_21  and  C16_22 
ROOT
HETATM    1  C3  UNL     1      24.392   2.670  51.874  1.00  0.00     0.076 C 
HETATM    2  N2  UNL     1      25.528   3.072  52.773  1.00  0.00    -0.358 N 
HETATM    3  C12 UNL     1      26.641   2.486  52.040  1.00  0.00     0.135 C 
HETATM    4  C13 UNL     1      26.350   2.543  50.719  1.00  0.00     0.061 C 
HETATM    5  C14 UNL     1      24.985   3.208  50.635  1.00  0.00     0.075 C 
HETATM    6  C15 UNL     1      24.275   2.983  49.365  1.00  0.00     0.046 C 
HETATM    7  H11 UNL     1      25.823   3.569  53.654  1.00  0.00     0.162 HD
ENDROOT
BRANCH   1   8
HETATM    8  C2  UNL     1      24.511   1.166  51.886  1.00  0.00     0.030 C 
HETATM    9  C1  UNL     1      23.923   0.439  53.023  1.00  0.00     0.007 C 
ENDBRANCH   1   8
BRANCH   1  10
HETATM   10  C4  UNL     1      23.109   3.137  52.352  1.00  0.00     0.144 A 
HETATM   11  C5  UNL     1      23.135   4.603  52.711  1.00  0.00     0.233 A 
HETATM   12  O1  UNL     1      23.973   5.237  53.445  1.00  0.00    -0.272 OA
HETATM   13  N1  UNL     1      22.051   5.316  52.119  1.00  0.00    -0.326 N 
HETATM   14  C6  UNL     1      21.290   4.308  51.444  1.00  0.00     0.042 A 
HETATM   15  H7  UNL     1      21.865   6.340  52.171  1.00  0.00     0.169 HD
HETATM   16  C7  UNL     1      20.110   4.528  50.760  1.00  0.00     0.033 A 
HETATM   17  C11 UNL     1      21.885   3.046  51.615  1.00  0.00    -0.013 A 
HETATM   18  C8  UNL     1      19.460   3.454  50.206  1.00  0.00     0.044 A 
HETATM   19  C9  UNL     1      19.952   2.171  50.314  1.00  0.00     0.117 A 
HETATM   20  F1  UNL     1      19.330   1.094  49.776  1.00  0.00    -0.206 F 
HETATM   21  C10 UNL     1      21.132   2.044  51.009  1.00  0.00     0.052 A 
ENDBRANCH   1  10
BRANCH   5  22
HETATM   22  N3  UNL     1      25.432   4.623  50.804  1.00  0.00    -0.375 N 
HETATM   23  H17 UNL     1      25.770   4.851  51.789  1.00  0.00     0.161 HD
BRANCH  22  24
HETATM   24  C16 UNL     1      25.525   5.728  49.910  1.00  0.00     0.031 A 
HETATM   25  C17 UNL     1      26.559   5.845  48.974  1.00  0.00     0.048 A 
HETATM   26  C18 UNL     1      26.514   6.943  48.176  1.00  0.00     0.118 A 
HETATM   27  N4  UNL     1      25.586   7.906  48.203  1.00  0.00    -0.273 NA
HETATM   28  C19 UNL     1      24.587   7.813  49.091  1.00  0.00     0.118 A 
HETATM   29  C20 UNL     1      24.571   6.728  49.930  1.00  0.00     0.048 A 
ENDBRANCH  22  24
ENDBRANCH   5  22
BRANCH   3  30
HETATM   30  O2  UNL     1      27.888   1.909  52.404  1.00  0.00    -0.346 OA
HETATM   31  H12 UNL     1      27.963   1.333  53.229  1.00  0.00     0.219 HD
ENDBRANCH   3  30
TORSDOF 5
ENDMDL
MODEL 4
REMARK VINA RESULT:      -7.3      9.678     12.004
REMARK  5 active torsions:
REMARK  status: ('A' for Active; 'I' for Inactive)
REMARK    1  A    between atoms: C2_2  and  C3_3 
REMARK    2  A    between atoms: C3_3  and  C4_4 
REMARK    3  A    between atoms: C12_16  and  O2_17 
REMARK    4  A    between atoms: C14_19  and  N3_21 
REMARK    5  A    between atoms: N3_21  and  C16_22 
ROOT
HETATM    1  C3  UNL     1      33.028   6.012  47.941  1.00  0.00     0.076 C 
HETATM    2  N2  UNL     1      32.374   4.924  48.747  1.00  0.00    -0.358 N 
HETATM    3  C12 UNL     1      31.869   5.712  49.862  1.00  0.00     0.135 C 
HETATM    4  C13 UNL     1      31.537   6.937  49.391  1.00  0.00     0.061 C 
HETATM    5  C14 UNL     1      31.849   6.897  47.904  1.00  0.00     0.075 C 
HETATM    6  C15 UNL     1      31.988   8.221  47.275  1.00  0.00     0.046 C 
HETATM    7  H11 UNL     1      32.151   3.897  48.825  1.00  0.00     0.162 HD
ENDROOT
BRANCH   1   8
HETATM    8  C2  UNL     1      34.041   6.550  48.922  1.00  0.00     0.030 C 
HETATM    9  C1  UNL     1      35.403   5.995  48.878  1.00  0.00     0.007 C 
ENDBRANCH   1   8
BRANCH   1  10
HETATM   10  C4  UNL     1      33.631   5.519  46.722  1.00  0.00     0.144 A 
HETATM   11  C5  UNL     1      33.083   4.171  46.321  1.00  0.00     0.233 A 
HETATM   12  O1  UNL     1      32.947   3.114  47.033  1.00  0.00    -0.272 OA
HETATM   13  N1  UNL     1      32.684   4.144  44.953  1.00  0.00    -0.326 N 
HETATM   14  C6  UNL     1      33.037   5.439  44.454  1.00  0.00     0.042 A 
HETATM   15  H7  UNL     1      32.234   3.355  44.441  1.00  0.00     0.169 HD
HETATM   16  C7  UNL     1      32.878   5.858  43.147  1.00  0.00     0.033 A 
HETATM   17  C11 UNL     1      33.619   6.215  45.471  1.00  0.00    -0.013 A 
HETATM   18  C8  UNL     1      33.312   7.113  42.800  1.00  0.00     0.044 A 
HETATM   19  C9  UNL     1      33.900   7.958  43.716  1.00  0.00     0.117 A 
HETATM   20  F1  UNL     1      34.338   9.200  43.400  1.00  0.00    -0.206 F 
HETATM   21  C10 UNL     1      34.018   7.461  44.993  1.00  0.00     0.052 A 
ENDBRANCH   1  10
BRANCH   5  22
HETATM   22  N3  UNL     1      30.624   6.171  47.453  1.00  0.00    -0.375 N 
HETATM   23  H17 UNL     1      30.829   5.338  46.819  1.00  0.00     0.161 HD
BRANCH  22  24
HETATM   24  C16 UNL     1      29.235   6.346  47.718  1.00  0.00     0.031 A 
HETATM   25  C17 UNL     1      28.538   7.489  47.310  1.00  0.00     0.048 A 
HETATM   26  C18 UNL     1      27.215   7.515  47.616  1.00  0.00     0.118 A 
HETATM   27  N4  UNL     1      26.530   6.563  48.259  1.00  0.00    -0.273 NA
HETATM   28  C19 UNL     1      27.179   5.460  48.656  1.00  0.00     0.118 A 
HETATM   29  C20 UNL     1      28.519   5.368  48.381  1.00  0.00     0.048 A 
ENDBRANCH  22  24
ENDBRANCH   5  22
BRANCH   3  30
HETATM   30  O2  UNL     1      31.663   5.472  51.247  1.00  0.00    -0.346 OA
HETATM   31  H12 UNL     1      31.011   4.764  51.551  1.00  0.00     0.219 HD
ENDBRANCH   3  30
TORSDOF 5
ENDMDL
MODEL 5
REMARK VINA RESULT:      -7.3      2.785      5.429
REMARK  5 active torsions:
REMARK  status: ('A' for Active; 'I' for Inactive)
REMARK    1  A    between atoms: C2_2  and  C3_3 
REMARK    2  A    between atoms: C3_3  and  C4_4 
REMARK    3  A    between atoms: C12_16  and  O2_17 
REMARK    4  A    between atoms: C14_19  and  N3_21 
REMARK    5  A    between atoms: N3_21  and  C16_22 
ROOT
HETATM    1  C3  UNL     1      23.432   3.719  50.607  1.00  0.00     0.076 C 
HETATM    2  N2  UNL     1      24.194   3.111  49.463  1.00  0.00    -0.358 N 
HETATM    3  C12 UNL     1      25.536   3.574  49.786  1.00  0.00     0.135 C 
HETATM    4  C13 UNL     1      25.645   3.632  51.134  1.00  0.00     0.061 C 
HETATM    5  C14 UNL     1      24.297   3.172  51.669  1.00  0.00     0.075 C 
HETATM    6  C15 UNL     1      24.029   3.565  53.062  1.00  0.00     0.046 C 
HETATM    7  H11 UNL     1      24.152   2.530  48.585  1.00  0.00     0.162 HD
ENDROOT
BRANCH   1   8
HETATM    8  C2  UNL     1      23.720   5.189  50.419  1.00  0.00     0.030 C 
HETATM    9  C1  UNL     1      22.691   6.151  50.843  1.00  0.00     0.007 C 
ENDBRANCH   1   8
BRANCH   1  10
HETATM   10  C4  UNL     1      22.019   3.413  50.563  1.00  0.00     0.144 A 
HETATM   11  C5  UNL     1      21.555   3.069  49.168  1.00  0.00     0.233 A 
HETATM   12  O1  UNL     1      21.755   3.707  48.075  1.00  0.00    -0.272 OA
HETATM   13  N1  UNL     1      20.799   1.861  49.141  1.00  0.00    -0.326 N 
HETATM   14  C6  UNL     1      20.713   1.465  50.515  1.00  0.00     0.042 A 
HETATM   15  H7  UNL     1      20.405   1.381  48.304  1.00  0.00     0.169 HD
HETATM   16  C7  UNL     1      20.024   0.362  50.982  1.00  0.00     0.033 A 
HETATM   17  C11 UNL     1      21.386   2.386  51.335  1.00  0.00    -0.013 A 
HETATM   18  C8  UNL     1      19.983   0.135  52.335  1.00  0.00     0.044 A 
HETATM   19  C9  UNL     1      20.607   0.975  53.232  1.00  0.00     0.117 A 
HETATM   20  F1  UNL     1      20.581   0.775  54.571  1.00  0.00    -0.206 F 
HETATM   21  C10 UNL     1      21.270   2.047  52.680  1.00  0.00     0.052 A 
ENDBRANCH   1  10
BRANCH   5  22
HETATM   22  N3  UNL     1      24.503   1.701  51.514  1.00  0.00    -0.375 N 
HETATM   23  H17 UNL     1      24.114   1.309  50.601  1.00  0.00     0.161 HD
BRANCH  22  24
HETATM   24  C16 UNL     1      25.135   0.715  52.323  1.00  0.00     0.031 A 
HETATM   25  C17 UNL     1      24.508   0.155  53.443  1.00  0.00     0.048 A 
HETATM   26  C18 UNL     1      25.222  -0.785  54.113  1.00  0.00     0.118 A 
HETATM   27  N4  UNL     1      26.450  -1.218  53.806  1.00  0.00    -0.273 NA
HETATM   28  C19 UNL     1      27.068  -0.697  52.737  1.00  0.00     0.118 A 
HETATM   29  C20 UNL     1      26.403   0.260  52.013  1.00  0.00     0.048 A 
ENDBRANCH  22  24
ENDBRANCH   5  22
BRANCH   3  30
HETATM   30  O2  UNL     1      26.678   3.948  49.027  1.00  0.00    -0.346 OA
HETATM   31  H12 UNL     1      26.891   3.477  48.161  1.00  0.00     0.219 HD
ENDBRANCH   3  30
TORSDOF 5
ENDMDL
MODEL 6
REMARK VINA RESULT:      -7.2      9.105     11.506
REMARK  5 active torsions:
REMARK  status: ('A' for Active; 'I' for Inactive)
REMARK    1  A    between atoms: C2_2  and  C3_3 
REMARK    2  A    between atoms: C3_3  and  C4_4 
REMARK    3  A    between atoms: C12_16  and  O2_17 
REMARK    4  A    between atoms: C14_19  and  N3_21 
REMARK    5  A    between atoms: N3_21  and  C16_22 
ROOT
HETATM    1  C3  UNL     1      31.828   8.221  47.975  1.00  0.00     0.076 C 
HETATM    2  N2  UNL     1      31.669   8.704  49.389  1.00  0.00    -0.358 N 
HETATM    3  C12 UNL     1      30.792   9.844  49.164  1.00  0.00     0.135 C 
HETATM    4  C13 UNL     1      29.985   9.550  48.117  1.00  0.00     0.061 C 
HETATM    5  C14 UNL     1      30.385   8.150  47.679  1.00  0.00     0.075 C 
HETATM    6  C15 UNL     1      29.968   7.797  46.313  1.00  0.00     0.046 C 
HETATM    7  H11 UNL     1      31.919   8.563  50.404  1.00  0.00     0.162 HD
ENDROOT
BRANCH   1   8
HETATM    8  C2  UNL     1      32.428   9.434  47.304  1.00  0.00     0.030 C 
HETATM    9  C1  UNL     1      33.887   9.609  47.379  1.00  0.00     0.007 C 
ENDBRANCH   1   8
BRANCH   1  10
HETATM   10  C4  UNL     1      32.670   7.049  47.876  1.00  0.00     0.144 A 
HETATM   11  C5  UNL     1      32.208   5.939  48.788  1.00  0.00     0.233 A 
HETATM   12  O1  UNL     1      31.918   5.990  50.035  1.00  0.00    -0.272 OA
HETATM   13  N1  UNL     1      32.105   4.694  48.100  1.00  0.00    -0.326 N 
HETATM   14  C6  UNL     1      32.565   4.981  46.775  1.00  0.00     0.042 A 
HETATM   15  H7  UNL     1      31.768   3.786  48.485  1.00  0.00     0.169 HD
HETATM   16  C7  UNL     1      32.687   4.053  45.758  1.00  0.00     0.033 A 
HETATM   17  C11 UNL     1      32.927   6.334  46.662  1.00  0.00    -0.013 A 
HETATM   18  C8  UNL     1      33.194   4.463  44.550  1.00  0.00     0.044 A 
HETATM   19  C9  UNL     1      33.583   5.767  44.329  1.00  0.00     0.117 A 
HETATM   20  F1  UNL     1      34.087   6.196  43.147  1.00  0.00    -0.206 F 
HETATM   21  C10 UNL     1      33.426   6.622  45.395  1.00  0.00     0.052 A 
ENDBRANCH   1  10
BRANCH   5  22
HETATM   22  N3  UNL     1      29.642   7.385  48.725  1.00  0.00    -0.375 N 
HETATM   23  H17 UNL     1      30.137   7.361  49.670  1.00  0.00     0.161 HD
BRANCH  22  24
HETATM   24  C16 UNL     1      28.394   6.700  48.728  1.00  0.00     0.031 A 
HETATM   25  C17 UNL     1      28.308   5.306  48.625  1.00  0.00     0.048 A 
HETATM   26  C18 UNL     1      27.054   4.787  48.657  1.00  0.00     0.118 A 
HETATM   27  N4  UNL     1      25.912   5.474  48.777  1.00  0.00    -0.273 NA
HETATM   28  C19 UNL     1      25.972   6.809  48.878  1.00  0.00     0.118 A 
HETATM   29  C20 UNL     1      27.209   7.401  48.852  1.00  0.00     0.048 A 
ENDBRANCH  22  24
ENDBRANCH   5  22
BRANCH   3  30
HETATM   30  O2  UNL     1      30.617  11.113  49.780  1.00  0.00    -0.346 OA
HETATM   31  H12 UNL     1      30.705  11.960  49.238  1.00  0.00     0.219 HD
ENDBRANCH   3  30
TORSDOF 5
ENDMDL
MODEL 7
REMARK VINA RESULT:      -7.1      9.316     11.309
REMARK  5 active torsions:
REMARK  status: ('A' for Active; 'I' for Inactive)
REMARK    1  A    between atoms: C2_2  and  C3_3 
REMARK    2  A    between atoms: C3_3  and  C4_4 
REMARK    3  A    between atoms: C12_16  and  O2_17 
REMARK    4  A    between atoms: C14_19  and  N3_21 
REMARK    5  A    between atoms: N3_21  and  C16_22 
ROOT
HETATM    1  C3  UNL     1      32.129   7.362  47.182  1.00  0.00     0.076 C 
HETATM    2  N2  UNL     1      32.801   7.292  48.525  1.00  0.00    -0.358 N 
HETATM    3  C12 UNL     1      33.940   8.163  48.277  1.00  0.00     0.135 C 
HETATM    4  C13 UNL     1      33.550   9.126  47.409  1.00  0.00     0.061 C 
HETATM    5  C14 UNL     1      32.087   8.834  47.113  1.00  0.00     0.075 C 
HETATM    6  C15 UNL     1      31.577   9.463  45.884  1.00  0.00     0.046 C 
HETATM    7  H11 UNL     1      32.782   6.896  49.502  1.00  0.00     0.162 HD
ENDROOT
BRANCH   1   8
HETATM    8  C2  UNL     1      33.214   6.839  46.272  1.00  0.00     0.030 C 
HETATM    9  C1  UNL     1      32.825   5.895  45.212  1.00  0.00     0.007 C 
ENDBRANCH   1   8
BRANCH   1  10
HETATM   10  C4  UNL     1      30.917   6.575  47.122  1.00  0.00     0.144 A 
HETATM   11  C5  UNL     1      30.751   5.692  48.335  1.00  0.00     0.233 A 
HETATM   12  O1  UNL     1      31.597   4.892  48.868  1.00  0.00    -0.272 OA
HETATM   13  N1  UNL     1      29.454   5.819  48.912  1.00  0.00    -0.326 N 
HETATM   14  C6  UNL     1      28.762   6.719  48.039  1.00  0.00     0.042 A 
HETATM   15  H7  UNL     1      29.099   5.356  49.777  1.00  0.00     0.169 HD
HETATM   16  C7  UNL     1      27.442   7.104  48.177  1.00  0.00     0.033 A 
HETATM   17  C11 UNL     1      29.600   7.122  46.985  1.00  0.00    -0.013 A 
HETATM   18  C8  UNL     1      26.896   7.933  47.231  1.00  0.00     0.044 A 
HETATM   19  C9  UNL     1      27.625   8.389  46.154  1.00  0.00     0.117 A 
HETATM   20  F1  UNL     1      27.110   9.208  45.207  1.00  0.00    -0.206 F 
HETATM   21  C10 UNL     1      28.930   7.958  46.096  1.00  0.00     0.052 A 
ENDBRANCH   1  10
BRANCH   5  22
HETATM   22  N3  UNL     1      31.501   9.430  48.351  1.00  0.00    -0.375 N 
HETATM   23  H17 UNL     1      31.795   8.931  49.247  1.00  0.00     0.161 HD
BRANCH  22  24
HETATM   24  C16 UNL     1      30.649  10.547  48.586  1.00  0.00     0.031 A 
HETATM   25  C17 UNL     1      31.138  11.858  48.640  1.00  0.00     0.048 A 
HETATM   26  C18 UNL     1      30.210  12.826  48.856  1.00  0.00     0.118 A 
HETATM   27  N4  UNL     1      28.895  12.644  49.018  1.00  0.00    -0.273 NA
HETATM   28  C19 UNL     1      28.407  11.397  48.969  1.00  0.00     0.118 A 
HETATM   29  C20 UNL     1      29.289  10.369  48.754  1.00  0.00     0.048 A 
ENDBRANCH  22  24
ENDBRANCH   5  22
BRANCH   3  30
HETATM   30  O2  UNL     1      35.286   8.209  48.732  1.00  0.00    -0.346 OA
HETATM   31  H12 UNL     1      36.015   7.734  48.220  1.00  0.00     0.219 HD
ENDBRANCH   3  30
TORSDOF 5
ENDMDL
MODEL 8
REMARK VINA RESULT:      -7.1      3.066      4.218
REMARK  5 active torsions:
REMARK  status: ('A' for Active; 'I' for Inactive)
REMARK    1  A    between atoms: C2_2  and  C3_3 
REMARK    2  A    between atoms: C3_3  and  C4_4 
REMARK    3  A    between atoms: C12_16  and  O2_17 
REMARK    4  A    between atoms: C14_19  and  N3_21 
REMARK    5  A    between atoms: N3_21  and  C16_22 
ROOT
HETATM    1  C3  UNL     1      24.147   3.336  51.234  1.00  0.00     0.076 C 
HETATM    2  N2  UNL     1      24.792   4.694  51.268  1.00  0.00    -0.358 N 
HETATM    3  C12 UNL     1      25.670   4.578  50.112  1.00  0.00     0.135 C 
HETATM    4  C13 UNL     1      25.057   3.790  49.198  1.00  0.00     0.061 C 
HETATM    5  C14 UNL     1      23.726   3.406  49.823  1.00  0.00     0.075 C 
HETATM    6  C15 UNL     1      23.091   2.221  49.223  1.00  0.00     0.046 C 
HETATM    7  H11 UNL     1      24.860   5.626  51.754  1.00  0.00     0.162 HD
ENDROOT
BRANCH   1   8
HETATM    8  C2  UNL     1      25.345   2.427  51.365  1.00  0.00     0.030 C 
HETATM    9  C1  UNL     1      25.921   2.237  52.706  1.00  0.00     0.007 C 
ENDBRANCH   1   8
BRANCH   1  10
HETATM   10  C4  UNL     1      23.181   3.149  52.295  1.00  0.00     0.144 A 
HETATM   11  C5  UNL     1      22.083   4.184  52.252  1.00  0.00     0.233 A 
HETATM   12  O1  UNL     1      22.182   5.458  52.162  1.00  0.00    -0.272 OA
HETATM   13  N1  UNL     1      20.789   3.591  52.326  1.00  0.00    -0.326 N 
HETATM   14  C6  UNL     1      21.049   2.192  52.489  1.00  0.00     0.042 A 
HETATM   15  H7  UNL     1      19.868   4.075  52.271  1.00  0.00     0.169 HD
HETATM   16  C7  UNL     1      20.082   1.218  52.654  1.00  0.00     0.033 A 
HETATM   17  C11 UNL     1      22.433   1.948  52.509  1.00  0.00    -0.013 A 
HETATM   18  C8  UNL     1      20.482  -0.080  52.854  1.00  0.00     0.044 A 
HETATM   19  C9  UNL     1      21.814  -0.433  52.893  1.00  0.00     0.117 A 
HETATM   20  F1  UNL     1      22.235  -1.705  53.089  1.00  0.00    -0.206 F 
HETATM   21  C10 UNL     1      22.707   0.599  52.719  1.00  0.00     0.052 A 
ENDBRANCH   1  10
BRANCH   5  22
HETATM   22  N3  UNL     1      22.985   4.669  49.528  1.00  0.00    -0.375 N 
HETATM   23  H17 UNL     1      23.263   5.485  50.156  1.00  0.00     0.161 HD
BRANCH  22  24
HETATM   24  C16 UNL     1      21.999   5.017  48.560  1.00  0.00     0.031 A 
HETATM   25  C17 UNL     1      22.333   5.340  47.239  1.00  0.00     0.048 A 
HETATM   26  C18 UNL     1      21.291   5.637  46.422  1.00  0.00     0.118 A 
HETATM   27  N4  UNL     1      19.996   5.649  46.758  1.00  0.00    -0.273 NA
HETATM   28  C19 UNL     1      19.655   5.342  48.017  1.00  0.00     0.118 A 
HETATM   29  C20 UNL     1      20.660   5.032  48.898  1.00  0.00     0.048 A 
ENDBRANCH  22  24
ENDBRANCH   5  22
BRANCH   3  30
HETATM   30  O2  UNL     1      26.950   5.093  49.771  1.00  0.00    -0.346 OA
HETATM   31  H12 UNL     1      27.647   4.493  49.355  1.00  0.00     0.219 HD
ENDBRANCH   3  30
TORSDOF 5
ENDMDL
MODEL 9
REMARK VINA RESULT:      -6.8     10.495     12.563
REMARK  5 active torsions:
REMARK  status: ('A' for Active; 'I' for Inactive)
REMARK    1  A    between atoms: C2_2  and  C3_3 
REMARK    2  A    between atoms: C3_3  and  C4_4 
REMARK    3  A    between atoms: C12_16  and  O2_17 
REMARK    4  A    between atoms: C14_19  and  N3_21 
REMARK    5  A    between atoms: N3_21  and  C16_22 
ROOT
HETATM    1  C3  UNL     1      33.209   6.051  47.859  1.00  0.00     0.076 C 
HETATM    2  N2  UNL     1      32.164   5.081  48.337  1.00  0.00    -0.358 N 
HETATM    3  C12 UNL     1      31.787   5.721  49.589  1.00  0.00     0.135 C 
HETATM    4  C13 UNL     1      31.900   7.060  49.425  1.00  0.00     0.061 C 
HETATM    5  C14 UNL     1      32.366   7.254  47.990  1.00  0.00     0.075 C 
HETATM    6  C15 UNL     1      32.974   8.566  47.719  1.00  0.00     0.046 C 
HETATM    7  H11 UNL     1      31.634   4.190  48.147  1.00  0.00     0.162 HD
ENDROOT
BRANCH   1   8
HETATM    8  C2  UNL     1      34.209   6.002  48.989  1.00  0.00     0.030 C 
HETATM    9  C1  UNL     1      35.616   6.296  48.675  1.00  0.00     0.007 C 
ENDBRANCH   1   8
BRANCH   1  10
HETATM   10  C4  UNL     1      33.781   5.673  46.585  1.00  0.00     0.144 A 
HETATM   11  C5  UNL     1      33.401   4.268  46.186  1.00  0.00     0.233 A 
HETATM   12  O1  UNL     1      33.474   3.189  46.874  1.00  0.00    -0.272 OA
HETATM   13  N1  UNL     1      32.905   4.209  44.851  1.00  0.00    -0.326 N 
HETATM   14  C6  UNL     1      33.030   5.551  44.366  1.00  0.00     0.042 A 
HETATM   15  H7  UNL     1      32.535   3.372  44.351  1.00  0.00     0.169 HD
HETATM   16  C7  UNL     1      32.711   5.967  43.088  1.00  0.00     0.033 A 
HETATM   17  C11 UNL     1      33.572   6.384  45.360  1.00  0.00    -0.013 A 
HETATM   18  C8  UNL     1      32.934   7.277  42.747  1.00  0.00     0.044 A 
HETATM   19  C9  UNL     1      33.464   8.182  43.642  1.00  0.00     0.117 A 
HETATM   20  F1  UNL     1      33.694   9.479  43.330  1.00  0.00    -0.206 F 
HETATM   21  C10 UNL     1      33.750   7.683  44.891  1.00  0.00     0.052 A 
ENDBRANCH   1  10
BRANCH   5  22
HETATM   22  N3  UNL     1      31.044   7.080  47.317  1.00  0.00    -0.375 N 
HETATM   23  H17 UNL     1      30.693   6.073  47.317  1.00  0.00     0.161 HD
BRANCH  22  24
HETATM   24  C16 UNL     1      30.141   7.989  46.695  1.00  0.00     0.031 A 
HETATM   25  C17 UNL     1      30.058   8.123  45.304  1.00  0.00     0.048 A 
HETATM   26  C18 UNL     1      29.142   9.015  44.849  1.00  0.00     0.118 A 
HETATM   27  N4  UNL     1      28.324   9.765  45.597  1.00  0.00    -0.273 NA
HETATM   28  C19 UNL     1      28.387   9.652  46.931  1.00  0.00     0.118 A 
HETATM   29  C20 UNL     1      29.292   8.767  47.459  1.00  0.00     0.048 A 
ENDBRANCH  22  24
ENDBRANCH   5  22
BRANCH   3  30
HETATM   30  O2  UNL     1      31.350   5.259  50.860  1.00  0.00    -0.346 OA
HETATM   31  H12 UNL     1      31.316   4.271  51.060  1.00  0.00     0.219 HD
ENDBRANCH   3  30
TORSDOF 5
ENDMDL
