MODEL 1
REMARK VINA RESULT:      -8.0      0.000      0.000
REMARK  1 active torsions:
REMARK  status: ('A' for Active; 'I' for Inactive)
REMARK       I    between atoms: C2_2  and  N1_4 
REMARK    1  A    between atoms: C11_15  and  C12_16 
ROOT
HETATM    1  C1  UNL     1      20.250   4.066  51.651  1.00  0.00     0.117 C 
HETATM    2  C2  UNL     1      21.594   4.265  52.220  1.00  0.00     0.216 C 
HETATM    3  O1  UNL     1      22.236   5.185  52.818  1.00  0.00    -0.274 OA
HETATM    4  N1  UNL     1      22.424   3.113  52.067  1.00  0.00    -0.338 N 
HETATM    5  C3  UNL     1      23.766   3.382  52.663  1.00  0.00     0.167 C 
HETATM    6  C4  UNL     1      24.660   2.316  51.996  1.00  0.00    -0.014 C 
HETATM    7  C5  UNL     1      24.552   2.468  50.625  1.00  0.00    -0.013 C 
HETATM    8  C6  UNL     1      23.323   1.644  50.422  1.00  0.00     0.059 C 
HETATM    9  C7  UNL     1      22.274   1.802  51.492  1.00  0.00     0.136 C 
HETATM   10  C8  UNL     1      22.329   0.677  52.507  1.00  0.00     0.063 C 
HETATM   11  C9  UNL     1      20.987   0.375  52.995  1.00  0.00     0.098 C 
HETATM   12  N2  UNL     1      19.925   0.147  53.396  1.00  0.00    -0.192 NA
HETATM   13  C10 UNL     1      23.292  -0.114  53.074  1.00  0.00     0.137 C 
HETATM   14  N3  UNL     1      24.721   0.159  53.068  1.00  0.00    -0.258 NA
HETATM   15  C11 UNL     1      25.423   1.225  52.706  1.00  0.00     0.074 C 
ENDROOT
BRANCH  15  16
HETATM   16  C12 UNL     1      26.822   1.091  53.086  1.00  0.00    -0.005 A 
HETATM   17  C13 UNL     1      27.425   2.266  53.435  1.00  0.00     0.014 A 
HETATM   18  C14 UNL     1      28.762   2.071  53.784  1.00  0.00     0.002 A 
HETATM   19  C15 UNL     1      29.436   0.869  53.791  1.00  0.00     0.019 A 
HETATM   20  C16 UNL     1      28.748  -0.263  53.424  1.00  0.00     0.011 A 
HETATM   21 BR1  UNL     1      29.604  -1.958  53.407  1.00  0.00    -0.051 Br
HETATM   22  C17 UNL     1      27.425  -0.140  53.068  1.00  0.00     0.032 A 
ENDBRANCH  15  16
TORSDOF 1
ENDMDL
MODEL 2
REMARK VINA RESULT:      -7.9      4.041      5.231
REMARK  1 active torsions:
REMARK  status: ('A' for Active; 'I' for Inactive)
REMARK       I    between atoms: C2_2  and  N1_4 
REMARK    1  A    between atoms: C11_15  and  C12_16 
ROOT
HETATM    1  C1  UNL     1      21.044   3.062  52.335  1.00  0.00     0.117 C 
HETATM    2  C2  UNL     1      21.837   4.236  51.931  1.00  0.00     0.216 C 
HETATM    3  O1  UNL     1      21.820   5.493  52.119  1.00  0.00    -0.274 OA
HETATM    4  N1  UNL     1      22.939   3.884  51.094  1.00  0.00    -0.338 N 
HETATM    5  C3  UNL     1      23.698   5.115  50.724  1.00  0.00     0.167 C 
HETATM    6  C4  UNL     1      24.487   4.672  49.474  1.00  0.00    -0.014 C 
HETATM    7  C5  UNL     1      23.580   4.203  48.542  1.00  0.00    -0.013 C 
HETATM    8  C6  UNL     1      23.476   2.800  49.043  1.00  0.00     0.059 C 
HETATM    9  C7  UNL     1      23.469   2.664  50.543  1.00  0.00     0.136 C 
HETATM   10  C8  UNL     1      24.835   2.290  51.083  1.00  0.00     0.063 C 
HETATM   11  C9  UNL     1      24.695   1.438  52.260  1.00  0.00     0.098 C 
HETATM   12  N2  UNL     1      24.584   0.777  53.204  1.00  0.00    -0.192 NA
HETATM   13  C10 UNL     1      26.143   2.539  50.759  1.00  0.00     0.137 C 
HETATM   14  N3  UNL     1      26.607   3.602  49.882  1.00  0.00    -0.258 NA
HETATM   15  C11 UNL     1      25.990   4.643  49.337  1.00  0.00     0.074 C 
ENDROOT
BRANCH  15  16
HETATM   16  C12 UNL     1      26.936   5.547  48.701  1.00  0.00    -0.005 A 
HETATM   17  C13 UNL     1      26.391   6.726  48.277  1.00  0.00     0.014 A 
HETATM   18  C14 UNL     1      27.347   7.545  47.675  1.00  0.00     0.002 A 
HETATM   19  C15 UNL     1      28.682   7.250  47.504  1.00  0.00     0.019 A 
HETATM   20  C16 UNL     1      29.143   6.039  47.963  1.00  0.00     0.011 A 
HETATM   21 BR1  UNL     1      30.969   5.558  47.766  1.00  0.00    -0.051 Br
HETATM   22  C17 UNL     1      28.252   5.183  48.567  1.00  0.00     0.032 A 
ENDBRANCH  15  16
TORSDOF 1
ENDMDL
MODEL 3
REMARK VINA RESULT:      -7.8      3.576      5.668
REMARK  1 active torsions:
REMARK  status: ('A' for Active; 'I' for Inactive)
REMARK       I    between atoms: C2_2  and  N1_4 
REMARK    1  A    between atoms: C11_15  and  C12_16 
ROOT
HETATM    1  C1  UNL     1      23.673   6.075  48.331  1.00  0.00     0.117 C 
HETATM    2  C2  UNL     1      22.790   4.945  48.665  1.00  0.00     0.216 C 
HETATM    3  O1  UNL     1      21.771   4.367  48.169  1.00  0.00    -0.274 OA
HETATM    4  N1  UNL     1      23.166   4.303  49.884  1.00  0.00    -0.338 N 
HETATM    5  C3  UNL     1      22.234   3.171  50.161  1.00  0.00     0.167 C 
HETATM    6  C4  UNL     1      22.427   2.927  51.672  1.00  0.00    -0.014 C 
HETATM    7  C5  UNL     1      22.169   4.114  52.332  1.00  0.00    -0.013 C 
HETATM    8  C6  UNL     1      23.527   4.723  52.200  1.00  0.00     0.059 C 
HETATM    9  C7  UNL     1      24.197   4.487  50.872  1.00  0.00     0.136 C 
HETATM   10  C8  UNL     1      25.195   3.348  50.937  1.00  0.00     0.063 C 
HETATM   11  C9  UNL     1      26.316   3.611  50.039  1.00  0.00     0.098 C 
HETATM   12  N2  UNL     1      27.197   3.810  49.314  1.00  0.00    -0.192 NA
HETATM   13  C10 UNL     1      25.317   2.160  51.607  1.00  0.00     0.137 C 
HETATM   14  N3  UNL     1      24.238   1.461  52.287  1.00  0.00    -0.258 NA
HETATM   15  C11 UNL     1      22.925   1.652  52.310  1.00  0.00     0.074 C 
ENDROOT
BRANCH  15  16
HETATM   16  C12 UNL     1      22.241   0.553  52.974  1.00  0.00    -0.005 A 
HETATM   17  C13 UNL     1      23.042  -0.199  53.787  1.00  0.00     0.014 A 
HETATM   18  C14 UNL     1      22.329  -1.236  54.389  1.00  0.00     0.002 A 
HETATM   19  C15 UNL     1      20.990  -1.512  54.219  1.00  0.00     0.019 A 
HETATM   20  C16 UNL     1      20.262  -0.702  53.381  1.00  0.00     0.011 A 
HETATM   21 BR1  UNL     1      18.411  -1.015  53.094  1.00  0.00    -0.051 Br
HETATM   22  C17 UNL     1      20.904   0.341  52.755  1.00  0.00     0.032 A 
ENDBRANCH  15  16
TORSDOF 1
ENDMDL
MODEL 4
REMARK VINA RESULT:      -7.8      4.016      6.065
REMARK  1 active torsions:
REMARK  status: ('A' for Active; 'I' for Inactive)
REMARK       I    between atoms: C2_2  and  N1_4 
REMARK    1  A    between atoms: C11_15  and  C12_16 
ROOT
HETATM    1  C1  UNL     1      26.563   5.284  48.912  1.00  0.00     0.117 C 
HETATM    2  C2  UNL     1      26.347   4.104  49.766  1.00  0.00     0.216 C 
HETATM    3  O1  UNL     1      27.051   3.209  50.330  1.00  0.00    -0.274 OA
HETATM    4  N1  UNL     1      24.965   3.888  50.054  1.00  0.00    -0.338 N 
HETATM    5  C3  UNL     1      24.818   2.681  50.920  1.00  0.00     0.167 C 
HETATM    6  C4  UNL     1      23.339   2.291  50.721  1.00  0.00    -0.014 C 
HETATM    7  C5  UNL     1      23.125   2.108  49.367  1.00  0.00    -0.013 C 
HETATM    8  C6  UNL     1      22.856   3.532  49.006  1.00  0.00     0.059 C 
HETATM    9  C7  UNL     1      23.726   4.537  49.714  1.00  0.00     0.136 C 
HETATM   10  C8  UNL     1      23.017   5.163  50.899  1.00  0.00     0.063 C 
HETATM   11  C9  UNL     1      23.442   6.549  51.065  1.00  0.00     0.098 C 
HETATM   12  N2  UNL     1      23.793   7.644  51.207  1.00  0.00    -0.192 NA
HETATM   13  C10 UNL     1      22.097   4.773  51.835  1.00  0.00     0.137 C 
HETATM   14  N3  UNL     1      21.747   3.397  52.153  1.00  0.00    -0.258 NA
HETATM   15  C11 UNL     1      22.282   2.236  51.797  1.00  0.00     0.074 C 
ENDROOT
BRANCH  15  16
HETATM   16  C12 UNL     1      21.701   1.133  52.549  1.00  0.00    -0.005 A 
HETATM   17  C13 UNL     1      22.547   0.566  53.460  1.00  0.00     0.014 A 
HETATM   18  C14 UNL     1      21.933  -0.485  54.143  1.00  0.00     0.002 A 
HETATM   19  C15 UNL     1      20.643  -0.934  53.959  1.00  0.00     0.019 A 
HETATM   20  C16 UNL     1      19.863  -0.302  53.020  1.00  0.00     0.011 A 
HETATM   21 BR1  UNL     1      18.076  -0.860  52.708  1.00  0.00    -0.051 Br
HETATM   22  C17 UNL     1      20.408   0.743  52.310  1.00  0.00     0.032 A 
ENDBRANCH  15  16
TORSDOF 1
ENDMDL
MODEL 5
REMARK VINA RESULT:      -7.6      2.062      2.765
REMARK  1 active torsions:
REMARK  status: ('A' for Active; 'I' for Inactive)
REMARK       I    between atoms: C2_2  and  N1_4 
REMARK    1  A    between atoms: C11_15  and  C12_16 
ROOT
HETATM    1  C1  UNL     1      20.588   6.317  49.613  1.00  0.00     0.117 C 
HETATM    2  C2  UNL     1      21.798   6.057  50.412  1.00  0.00     0.216 C 
HETATM    3  O1  UNL     1      22.733   6.729  50.951  1.00  0.00    -0.274 OA
HETATM    4  N1  UNL     1      21.994   4.664  50.663  1.00  0.00    -0.338 N 
HETATM    5  C3  UNL     1      23.232   4.473  51.474  1.00  0.00     0.167 C 
HETATM    6  C4  UNL     1      23.579   2.990  51.230  1.00  0.00    -0.014 C 
HETATM    7  C5  UNL     1      23.700   2.800  49.865  1.00  0.00    -0.013 C 
HETATM    8  C6  UNL     1      22.256   2.571  49.559  1.00  0.00     0.059 C 
HETATM    9  C7  UNL     1      21.302   3.448  50.327  1.00  0.00     0.136 C 
HETATM   10  C8  UNL     1      20.710   2.729  51.523  1.00  0.00     0.063 C 
HETATM   11  C9  UNL     1      19.343   3.182  51.756  1.00  0.00     0.098 C 
HETATM   12  N2  UNL     1      18.264   3.554  51.952  1.00  0.00    -0.192 NA
HETATM   13  C10 UNL     1      21.118   1.781  52.424  1.00  0.00     0.137 C 
HETATM   14  N3  UNL     1      22.498   1.394  52.676  1.00  0.00    -0.258 NA
HETATM   15  C11 UNL     1      23.655   1.910  52.281  1.00  0.00     0.074 C 
ENDROOT
BRANCH  15  16
HETATM   16  C12 UNL     1      24.775   1.289  52.973  1.00  0.00    -0.005 A 
HETATM   17  C13 UNL     1      24.489   0.073  53.528  1.00  0.00     0.014 A 
HETATM   18  C14 UNL     1      25.599  -0.466  54.179  1.00  0.00     0.002 A 
HETATM   19  C15 UNL     1      26.845   0.112  54.280  1.00  0.00     0.019 A 
HETATM   20  C16 UNL     1      27.042   1.338  53.690  1.00  0.00     0.011 A 
HETATM   21 BR1  UNL     1      28.731   2.201  53.784  1.00  0.00    -0.051 Br
HETATM   22  C17 UNL     1      25.987   1.926  53.032  1.00  0.00     0.032 A 
ENDBRANCH  15  16
TORSDOF 1
ENDMDL
MODEL 6
REMARK VINA RESULT:      -7.6      2.126      3.438
REMARK  1 active torsions:
REMARK  status: ('A' for Active; 'I' for Inactive)
REMARK       I    between atoms: C2_2  and  N1_4 
REMARK    1  A    between atoms: C11_15  and  C12_16 
ROOT
HETATM    1  C1  UNL     1      19.437   2.948  49.459  1.00  0.00     0.117 C 
HETATM    2  C2  UNL     1      20.671   2.146  49.403  1.00  0.00     0.216 C 
HETATM    3  O1  UNL     1      21.260   1.382  48.575  1.00  0.00    -0.274 OA
HETATM    4  N1  UNL     1      21.435   2.240  50.606  1.00  0.00    -0.338 N 
HETATM    5  C3  UNL     1      22.667   1.407  50.481  1.00  0.00     0.167 C 
HETATM    6  C4  UNL     1      23.092   1.198  51.949  1.00  0.00    -0.014 C 
HETATM    7  C5  UNL     1      22.028   0.627  52.624  1.00  0.00    -0.013 C 
HETATM    8  C6  UNL     1      21.296   1.886  52.957  1.00  0.00     0.059 C 
HETATM    9  C7  UNL     1      21.297   2.924  51.865  1.00  0.00     0.136 C 
HETATM   10  C8  UNL     1      22.347   3.991  52.101  1.00  0.00     0.063 C 
HETATM   11  C9  UNL     1      21.876   5.279  51.601  1.00  0.00     0.098 C 
HETATM   12  N2  UNL     1      21.510   6.297  51.190  1.00  0.00    -0.192 NA
HETATM   13  C10 UNL     1      23.599   4.060  52.652  1.00  0.00     0.137 C 
HETATM   14  N3  UNL     1      24.470   2.924  52.912  1.00  0.00    -0.258 NA
HETATM   15  C11 UNL     1      24.394   1.644  52.570  1.00  0.00     0.074 C 
ENDROOT
BRANCH  15  16
HETATM   16  C12 UNL     1      25.625   0.936  52.889  1.00  0.00    -0.005 A 
HETATM   17  C13 UNL     1      25.572  -0.411  52.670  1.00  0.00     0.014 A 
HETATM   18  C14 UNL     1      26.778  -1.031  52.998  1.00  0.00     0.002 A 
HETATM   19  C15 UNL     1      27.908  -0.410  53.485  1.00  0.00     0.019 A 
HETATM   20  C16 UNL     1      27.870   0.951  53.675  1.00  0.00     0.011 A 
HETATM   21 BR1  UNL     1      29.384   1.882  54.342  1.00  0.00    -0.051 Br
HETATM   22  C17 UNL     1      26.709   1.624  53.370  1.00  0.00     0.032 A 
ENDBRANCH  15  16
TORSDOF 1
ENDMDL
MODEL 7
REMARK VINA RESULT:      -7.4      4.030      5.217
REMARK  1 active torsions:
REMARK  status: ('A' for Active; 'I' for Inactive)
REMARK       I    between atoms: C2_2  and  N1_4 
REMARK    1  A    between atoms: C11_15  and  C12_16 
ROOT
HETATM    1  C1  UNL     1      20.687   0.497  53.840  1.00  0.00     0.117 C 
HETATM    2  C2  UNL     1      22.069   0.754  53.400  1.00  0.00     0.216 C 
HETATM    3  O1  UNL     1      23.226   0.263  53.594  1.00  0.00    -0.274 OA
HETATM    4  N1  UNL     1      22.155   1.862  52.502  1.00  0.00    -0.338 N 
HETATM    5  C3  UNL     1      23.577   2.066  52.097  1.00  0.00     0.167 C 
HETATM    6  C4  UNL     1      23.585   3.522  51.586  1.00  0.00    -0.014 C 
HETATM    7  C5  UNL     1      23.110   4.332  52.601  1.00  0.00    -0.013 C 
HETATM    8  C6  UNL     1      21.651   4.182  52.320  1.00  0.00     0.059 C 
HETATM    9  C7  UNL     1      21.225   2.793  51.920  1.00  0.00     0.136 C 
HETATM   10  C8  UNL     1      21.081   2.657  50.417  1.00  0.00     0.063 C 
HETATM   11  C9  UNL     1      20.005   1.724  50.098  1.00  0.00     0.098 C 
HETATM   12  N2  UNL     1      19.164   0.970  49.844  1.00  0.00    -0.192 NA
HETATM   13  C10 UNL     1      21.686   3.174  49.302  1.00  0.00     0.137 C 
HETATM   14  N3  UNL     1      22.979   3.839  49.275  1.00  0.00    -0.258 NA
HETATM   15  C11 UNL     1      23.934   3.971  50.188  1.00  0.00     0.074 C 
ENDROOT
BRANCH  15  16
HETATM   16  C12 UNL     1      25.140   4.546  49.612  1.00  0.00    -0.005 A 
HETATM   17  C13 UNL     1      26.187   3.673  49.510  1.00  0.00     0.014 A 
HETATM   18  C14 UNL     1      27.312   4.284  48.956  1.00  0.00     0.002 A 
HETATM   19  C15 UNL     1      27.409   5.597  48.548  1.00  0.00     0.019 A 
HETATM   20  C16 UNL     1      26.304   6.403  48.689  1.00  0.00     0.011 A 
HETATM   21 BR1  UNL     1      26.356   8.224  48.150  1.00  0.00    -0.051 Br
HETATM   22  C17 UNL     1      25.161   5.862  49.229  1.00  0.00     0.032 A 
ENDBRANCH  15  16
TORSDOF 1
ENDMDL
MODEL 8
REMARK VINA RESULT:      -7.3      3.362      4.923
REMARK  1 active torsions:
REMARK  status: ('A' for Active; 'I' for Inactive)
REMARK       I    between atoms: C2_2  and  N1_4 
REMARK    1  A    between atoms: C11_15  and  C12_16 
ROOT
HETATM    1  C1  UNL     1      24.735   7.419  49.055  1.00  0.00     0.117 C 
HETATM    2  C2  UNL     1      24.478   6.716  50.323  1.00  0.00     0.216 C 
HETATM    3  O1  UNL     1      24.289   7.016  51.545  1.00  0.00    -0.274 OA
HETATM    4  N1  UNL     1      24.419   5.299  50.156  1.00  0.00    -0.338 N 
HETATM    5  C3  UNL     1      24.155   4.651  51.475  1.00  0.00     0.167 C 
HETATM    6  C4  UNL     1      24.617   3.197  51.243  1.00  0.00    -0.014 C 
HETATM    7  C5  UNL     1      25.934   3.230  50.824  1.00  0.00    -0.013 C 
HETATM    8  C6  UNL     1      25.682   3.441  49.367  1.00  0.00     0.059 C 
HETATM    9  C7  UNL     1      24.550   4.384  49.053  1.00  0.00     0.136 C 
HETATM   10  C8  UNL     1      23.272   3.640  48.717  1.00  0.00     0.063 C 
HETATM   11  C9  UNL     1      22.505   4.383  47.722  1.00  0.00     0.098 C 
HETATM   12  N2  UNL     1      21.887   4.980  46.946  1.00  0.00    -0.192 NA
HETATM   13  C10 UNL     1      22.663   2.474  49.097  1.00  0.00     0.137 C 
HETATM   14  N3  UNL     1      22.983   1.704  50.289  1.00  0.00    -0.258 NA
HETATM   15  C11 UNL     1      23.752   1.964  51.340  1.00  0.00     0.074 C 
ENDROOT
BRANCH  15  16
HETATM   16  C12 UNL     1      23.583   0.961  52.380  1.00  0.00    -0.005 A 
HETATM   17  C13 UNL     1      24.743   0.595  53.002  1.00  0.00     0.014 A 
HETATM   18  C14 UNL     1      24.515  -0.370  53.984  1.00  0.00     0.002 A 
HETATM   19  C15 UNL     1      23.297  -0.918  54.321  1.00  0.00     0.019 A 
HETATM   20  C16 UNL     1      22.182  -0.489  53.642  1.00  0.00     0.011 A 
HETATM   21 BR1  UNL     1      20.466  -1.195  54.047  1.00  0.00    -0.051 Br
HETATM   22  C17 UNL     1      22.337   0.462  52.660  1.00  0.00     0.032 A 
ENDBRANCH  15  16
TORSDOF 1
ENDMDL
MODEL 9
REMARK VINA RESULT:      -7.3      8.733     10.972
REMARK  1 active torsions:
REMARK  status: ('A' for Active; 'I' for Inactive)
REMARK       I    between atoms: C2_2  and  N1_4 
REMARK    1  A    between atoms: C11_15  and  C12_16 
ROOT
HETATM    1  C1  UNL     1      34.525   8.837  45.742  1.00  0.00     0.117 C 
HETATM    2  C2  UNL     1      33.054   8.881  45.687  1.00  0.00     0.216 C 
HETATM    3  O1  UNL     1      32.154   9.501  45.036  1.00  0.00    -0.274 OA
HETATM    4  N1  UNL     1      32.448   7.984  46.618  1.00  0.00    -0.338 N 
HETATM    5  C3  UNL     1      30.963   8.079  46.509  1.00  0.00     0.167 C 
HETATM    6  C4  UNL     1      30.480   7.487  47.850  1.00  0.00    -0.014 C 
HETATM    7  C5  UNL     1      31.071   8.208  48.872  1.00  0.00    -0.013 C 
HETATM    8  C6  UNL     1      32.359   7.454  48.938  1.00  0.00     0.059 C 
HETATM    9  C7  UNL     1      32.920   7.044  47.601  1.00  0.00     0.136 C 
HETATM   10  C8  UNL     1      32.598   5.599  47.273  1.00  0.00     0.063 C 
HETATM   11  C9  UNL     1      33.687   5.004  46.505  1.00  0.00     0.098 C 
HETATM   12  N2  UNL     1      34.543   4.537  45.880  1.00  0.00    -0.192 NA
HETATM   13  C10 UNL     1      31.571   4.724  47.506  1.00  0.00     0.137 C 
HETATM   14  N3  UNL     1      30.227   5.092  47.924  1.00  0.00    -0.258 NA
HETATM   15  C11 UNL     1      29.612   6.264  48.021  1.00  0.00     0.074 C 
ENDROOT
BRANCH  15  16
HETATM   16  C12 UNL     1      28.191   6.096  48.285  1.00  0.00    -0.005 A 
HETATM   17  C13 UNL     1      27.423   7.171  47.935  1.00  0.00     0.014 A 
HETATM   18  C14 UNL     1      26.074   6.949  48.218  1.00  0.00     0.002 A 
HETATM   19  C15 UNL     1      25.534   5.812  48.778  1.00  0.00     0.019 A 
HETATM   20  C16 UNL     1      26.384   4.779  49.098  1.00  0.00     0.011 A 
HETATM   21 BR1  UNL     1      25.719   3.179  49.873  1.00  0.00    -0.051 Br
HETATM   22  C17 UNL     1      27.728   4.933  48.846  1.00  0.00     0.032 A 
ENDBRANCH  15  16
TORSDOF 1
ENDMDL
