MODEL 1
REMARK VINA RESULT:      -9.1      0.000      0.000
REMARK  4 active torsions:
REMARK  status: ('A' for Active; 'I' for Inactive)
REMARK    1  A    between atoms: C2_2  and  C3_3 
REMARK       I    between atoms: C3_3  and  N1_5 
REMARK    2  A    between atoms: N1_5  and  C4_6 
REMARK    3  A    between atoms: C10_15  and  N5_16 
REMARK    4  A    between atoms: N5_16  and  C11_17 
ROOT
HETATM    1  C4  UNL     1      25.088  -0.750  54.500  1.00  0.00     0.053 A 
HETATM    2  C5  UNL     1      24.449  -1.369  55.544  1.00  0.00     0.148 A 
HETATM    3  N2  UNL     1      23.121  -1.521  55.647  1.00  0.00    -0.238 NA
HETATM    4  C6  UNL     1      22.276  -1.064  54.706  1.00  0.00     0.161 A 
HETATM    5  N3  UNL     1      20.938  -1.175  54.732  1.00  0.00    -0.239 NA
HETATM    6  C7  UNL     1      20.144  -0.697  53.760  1.00  0.00     0.144 A 
HETATM    7  C8  UNL     1      20.735  -0.066  52.686  1.00  0.00     0.089 A 
HETATM    8  C9  UNL     1      19.841   0.425  51.676  1.00  0.00     0.103 C 
HETATM    9  N4  UNL     1      19.122   0.809  50.843  1.00  0.00    -0.191 NA
HETATM   10  C10 UNL     1      22.113   0.075  52.610  1.00  0.00     0.069 A 
HETATM   11  C17 UNL     1      22.880  -0.434  53.637  1.00  0.00     0.042 A 
HETATM   12  C18 UNL     1      24.245  -0.274  53.524  1.00  0.00     0.048 A 
ENDROOT
BRANCH  10  13
HETATM   13  N5  UNL     1      22.628   0.732  51.480  1.00  0.00    -0.354 N 
HETATM   14  H9  UNL     1      22.663   0.130  50.634  1.00  0.00     0.166 HD
BRANCH  13  15
HETATM   15  C11 UNL     1      23.065   2.086  51.461  1.00  0.00     0.034 A 
HETATM   16  C12 UNL     1      22.433   3.007  52.267  1.00  0.00     0.032 A 
HETATM   17  C13 UNL     1      22.918   4.309  52.193  1.00  0.00     0.046 A 
HETATM   18  C14 UNL     1      23.974   4.645  51.352  1.00  0.00     0.138 A 
HETATM   19  F1  UNL     1      24.427   5.921  51.300  1.00  0.00    -0.204 F 
HETATM   20  C15 UNL     1      24.579   3.701  50.564  1.00  0.00     0.074 A 
HETATM   21 CL1  UNL     1      25.910   4.061  49.487  1.00  0.00    -0.081 Cl
HETATM   22  C16 UNL     1      24.106   2.427  50.635  1.00  0.00     0.056 A 
ENDBRANCH  13  15
ENDBRANCH  10  13
BRANCH   1  23
HETATM   23  N1  UNL     1      26.475  -0.558  54.332  1.00  0.00    -0.326 N 
HETATM   24  C3  UNL     1      27.232   0.637  54.433  1.00  0.00     0.221 C 
HETATM   25  O1  UNL     1      26.669   1.709  54.703  1.00  0.00    -0.273 OA
HETATM   26  H6  UNL     1      27.090  -1.367  54.100  1.00  0.00     0.169 HD
BRANCH  24  27
HETATM   27  C2  UNL     1      28.692   0.732  54.238  1.00  0.00     0.098 C 
HETATM   28  C1  UNL     1      29.173  -0.661  53.843  1.00  0.00     0.014 C 
ENDBRANCH  24  27
ENDBRANCH   1  23
TORSDOF 4
ENDMDL
MODEL 2
REMARK VINA RESULT:      -8.9      3.042      5.618
REMARK  4 active torsions:
REMARK  status: ('A' for Active; 'I' for Inactive)
REMARK    1  A    between atoms: C2_2  and  C3_3 
REMARK       I    between atoms: C3_3  and  N1_5 
REMARK    2  A    between atoms: N1_5  and  C4_6 
REMARK    3  A    between atoms: C10_15  and  N5_16 
REMARK    4  A    between atoms: N5_16  and  C11_17 
ROOT
HETATM    1  C4  UNL     1      24.079   3.116  49.873  1.00  0.00     0.053 A 
HETATM    2  C5  UNL     1      22.986   2.763  49.122  1.00  0.00     0.148 A 
HETATM    3  N2  UNL     1      22.066   1.859  49.489  1.00  0.00    -0.238 NA
HETATM    4  C6  UNL     1      22.140   1.201  50.660  1.00  0.00     0.161 A 
HETATM    5  N3  UNL     1      21.263   0.284  51.102  1.00  0.00    -0.239 NA
HETATM    6  C7  UNL     1      21.390  -0.341  52.283  1.00  0.00     0.144 A 
HETATM    7  C8  UNL     1      22.471  -0.023  53.077  1.00  0.00     0.089 A 
HETATM    8  C9  UNL     1      22.558  -0.719  54.329  1.00  0.00     0.103 C 
HETATM    9  N4  UNL     1      22.624  -1.268  55.355  1.00  0.00    -0.191 NA
HETATM   10  C10 UNL     1      23.406   0.917  52.669  1.00  0.00     0.069 A 
HETATM   11  C17 UNL     1      23.226   1.528  51.445  1.00  0.00     0.042 A 
HETATM   12  C18 UNL     1      24.176   2.457  51.075  1.00  0.00     0.048 A 
ENDROOT
BRANCH  10  13
HETATM   13  N5  UNL     1      24.475   1.179  53.541  1.00  0.00    -0.354 N 
HETATM   14  H9  UNL     1      24.234   1.850  54.298  1.00  0.00     0.166 HD
BRANCH  13  15
HETATM   15  C11 UNL     1      25.770   0.600  53.430  1.00  0.00     0.034 A 
HETATM   16  C12 UNL     1      25.900  -0.649  52.864  1.00  0.00     0.032 A 
HETATM   17  C13 UNL     1      27.197  -1.147  52.791  1.00  0.00     0.046 A 
HETATM   18  C14 UNL     1      28.284  -0.419  53.264  1.00  0.00     0.138 A 
HETATM   19  F1  UNL     1      29.537  -0.927  53.179  1.00  0.00    -0.204 F 
HETATM   20  C15 UNL     1      28.116   0.822  53.821  1.00  0.00     0.074 A 
HETATM   21 CL1  UNL     1      29.440   1.786  54.434  1.00  0.00    -0.081 Cl
HETATM   22  C16 UNL     1      26.847   1.311  53.894  1.00  0.00     0.056 A 
ENDBRANCH  13  15
ENDBRANCH  10  13
BRANCH   1  23
HETATM   23  N1  UNL     1      25.079   4.056  49.546  1.00  0.00    -0.326 N 
HETATM   24  C3  UNL     1      26.468   3.850  49.345  1.00  0.00     0.221 C 
HETATM   25  O1  UNL     1      26.951   2.713  49.453  1.00  0.00    -0.273 OA
HETATM   26  H6  UNL     1      24.832   5.060  49.420  1.00  0.00     0.169 HD
BRANCH  24  27
HETATM   27  C2  UNL     1      27.438   4.908  49.003  1.00  0.00     0.098 C 
HETATM   28  C1  UNL     1      26.625   6.122  48.559  1.00  0.00     0.014 C 
ENDBRANCH  24  27
ENDBRANCH   1  23
TORSDOF 4
ENDMDL
MODEL 3
REMARK VINA RESULT:      -8.3      2.013      5.161
REMARK  4 active torsions:
REMARK  status: ('A' for Active; 'I' for Inactive)
REMARK    1  A    between atoms: C2_2  and  C3_3 
REMARK       I    between atoms: C3_3  and  N1_5 
REMARK    2  A    between atoms: N1_5  and  C4_6 
REMARK    3  A    between atoms: C10_15  and  N5_16 
REMARK    4  A    between atoms: N5_16  and  C11_17 
ROOT
HETATM    1  C4  UNL     1      21.798  -0.944  53.733  1.00  0.00     0.053 A 
HETATM    2  C5  UNL     1      22.095  -1.552  54.926  1.00  0.00     0.148 A 
HETATM    3  N2  UNL     1      23.290  -1.504  55.533  1.00  0.00    -0.238 NA
HETATM    4  C6  UNL     1      24.331  -0.836  55.006  1.00  0.00     0.161 A 
HETATM    5  N3  UNL     1      25.557  -0.739  55.547  1.00  0.00    -0.239 NA
HETATM    6  C7  UNL     1      26.559  -0.055  54.972  1.00  0.00     0.144 A 
HETATM    7  C8  UNL     1      26.315   0.575  53.771  1.00  0.00     0.089 A 
HETATM    8  C9  UNL     1      27.420   1.292  53.200  1.00  0.00     0.103 C 
HETATM    9  N4  UNL     1      28.307   1.891  52.742  1.00  0.00    -0.191 NA
HETATM   10  C10 UNL     1      25.067   0.507  53.169  1.00  0.00     0.069 A 
HETATM   11  C17 UNL     1      24.074  -0.209  53.804  1.00  0.00     0.042 A 
HETATM   12  C18 UNL     1      22.847  -0.254  53.174  1.00  0.00     0.048 A 
ENDROOT
BRANCH  10  13
HETATM   13  N5  UNL     1      24.908   1.180  51.947  1.00  0.00    -0.354 N 
HETATM   14  H9  UNL     1      25.204   0.616  51.125  1.00  0.00     0.166 HD
BRANCH  13  15
HETATM   15  C11 UNL     1      24.395   2.500  51.810  1.00  0.00     0.034 A 
HETATM   16  C12 UNL     1      24.107   3.228  52.943  1.00  0.00     0.032 A 
HETATM   17  C13 UNL     1      23.610   4.510  52.728  1.00  0.00     0.046 A 
HETATM   18  C14 UNL     1      23.420   5.010  51.444  1.00  0.00     0.138 A 
HETATM   19  F1  UNL     1      22.936   6.263  51.263  1.00  0.00    -0.204 F 
HETATM   20  C15 UNL     1      23.719   4.256  50.339  1.00  0.00     0.074 A 
HETATM   21 CL1  UNL     1      23.502   4.828  48.701  1.00  0.00    -0.081 Cl
HETATM   22  C16 UNL     1      24.205   3.002  50.548  1.00  0.00     0.056 A 
ENDBRANCH  13  15
ENDBRANCH  10  13
BRANCH   1  23
HETATM   23  N1  UNL     1      20.567  -0.955  53.045  1.00  0.00    -0.326 N 
HETATM   24  C3  UNL     1      19.738   0.135  52.677  1.00  0.00     0.221 C 
HETATM   25  O1  UNL     1      20.072   1.295  52.963  1.00  0.00    -0.273 OA
HETATM   26  H6  UNL     1      20.150  -1.859  52.735  1.00  0.00     0.169 HD
BRANCH  24  27
HETATM   27  C2  UNL     1      18.458   0.016  51.953  1.00  0.00     0.098 C 
HETATM   28  C1  UNL     1      17.683  -1.120  52.614  1.00  0.00     0.014 C 
ENDBRANCH  24  27
ENDBRANCH   1  23
TORSDOF 4
ENDMDL
MODEL 4
REMARK VINA RESULT:      -8.2      3.242      5.620
REMARK  4 active torsions:
REMARK  status: ('A' for Active; 'I' for Inactive)
REMARK    1  A    between atoms: C2_2  and  C3_3 
REMARK       I    between atoms: C3_3  and  N1_5 
REMARK    2  A    between atoms: N1_5  and  C4_6 
REMARK    3  A    between atoms: C10_15  and  N5_16 
REMARK    4  A    between atoms: N5_16  and  C11_17 
ROOT
HETATM    1  C4  UNL     1      23.971   4.907  50.997  1.00  0.00     0.053 A 
HETATM    2  C5  UNL     1      22.849   5.655  51.253  1.00  0.00     0.148 A 
HETATM    3  N2  UNL     1      21.719   5.177  51.794  1.00  0.00    -0.238 NA
HETATM    4  C6  UNL     1      21.585   3.885  52.141  1.00  0.00     0.161 A 
HETATM    5  N3  UNL     1      20.491   3.328  52.687  1.00  0.00    -0.239 NA
HETATM    6  C7  UNL     1      20.416   2.028  53.012  1.00  0.00     0.144 A 
HETATM    7  C8  UNL     1      21.516   1.231  52.776  1.00  0.00     0.089 A 
HETATM    8  C9  UNL     1      21.383  -0.150  53.143  1.00  0.00     0.103 C 
HETATM    9  N4  UNL     1      21.288  -1.268  53.456  1.00  0.00    -0.191 NA
HETATM   10  C10 UNL     1      22.671   1.756  52.214  1.00  0.00     0.069 A 
HETATM   11  C17 UNL     1      22.692   3.098  51.899  1.00  0.00     0.042 A 
HETATM   12  C18 UNL     1      23.858   3.582  51.343  1.00  0.00     0.048 A 
ENDROOT
BRANCH  10  13
HETATM   13  N5  UNL     1      23.742   0.871  52.009  1.00  0.00    -0.354 N 
HETATM   14  H9  UNL     1      23.678   0.349  51.112  1.00  0.00     0.166 HD
BRANCH  13  15
HETATM   15  C11 UNL     1      24.823   0.685  52.915  1.00  0.00     0.034 A 
HETATM   16  C12 UNL     1      24.730  -0.296  53.878  1.00  0.00     0.032 A 
HETATM   17  C13 UNL     1      25.826  -0.417  54.725  1.00  0.00     0.046 A 
HETATM   18  C14 UNL     1      26.939   0.407  54.598  1.00  0.00     0.138 A 
HETATM   19  F1  UNL     1      27.994   0.268  55.437  1.00  0.00    -0.204 F 
HETATM   20  C15 UNL     1      26.997   1.373  53.626  1.00  0.00     0.074 A 
HETATM   21 CL1  UNL     1      28.367   2.440  53.415  1.00  0.00    -0.081 Cl
HETATM   22  C16 UNL     1      25.925   1.493  52.796  1.00  0.00     0.056 A 
ENDBRANCH  13  15
ENDBRANCH  10  13
BRANCH   1  23
HETATM   23  N1  UNL     1      25.186   5.348  50.432  1.00  0.00    -0.326 N 
HETATM   24  C3  UNL     1      25.446   5.810  49.117  1.00  0.00     0.221 C 
HETATM   25  O1  UNL     1      24.528   5.866  48.285  1.00  0.00    -0.273 OA
HETATM   26  H6  UNL     1      26.055   5.360  51.007  1.00  0.00     0.169 HD
BRANCH  24  27
HETATM   27  C2  UNL     1      26.764   6.252  48.622  1.00  0.00     0.098 C 
HETATM   28  C1  UNL     1      27.666   5.021  48.617  1.00  0.00     0.014 C 
ENDBRANCH  24  27
ENDBRANCH   1  23
TORSDOF 4
ENDMDL
MODEL 5
REMARK VINA RESULT:      -8.2      2.239      3.138
REMARK  4 active torsions:
REMARK  status: ('A' for Active; 'I' for Inactive)
REMARK    1  A    between atoms: C2_2  and  C3_3 
REMARK       I    between atoms: C3_3  and  N1_5 
REMARK    2  A    between atoms: N1_5  and  C4_6 
REMARK    3  A    between atoms: C10_15  and  N5_16 
REMARK    4  A    between atoms: N5_16  and  C11_17 
ROOT
HETATM    1  C4  UNL     1      24.861   0.325  53.705  1.00  0.00     0.053 A 
HETATM    2  C5  UNL     1      23.936  -0.683  53.599  1.00  0.00     0.148 A 
HETATM    3  N2  UNL     1      22.774  -0.589  52.938  1.00  0.00    -0.238 NA
HETATM    4  C6  UNL     1      22.404   0.537  52.304  1.00  0.00     0.161 A 
HETATM    5  N3  UNL     1      21.261   0.714  51.620  1.00  0.00    -0.239 NA
HETATM    6  C7  UNL     1      20.945   1.865  51.006  1.00  0.00     0.144 A 
HETATM    7  C8  UNL     1      21.839   2.912  51.081  1.00  0.00     0.089 A 
HETATM    8  C9  UNL     1      21.453   4.119  50.407  1.00  0.00     0.103 C 
HETATM    9  N4  UNL     1      21.154   5.094  49.846  1.00  0.00    -0.191 NA
HETATM   10  C10 UNL     1      23.035   2.782  51.774  1.00  0.00     0.069 A 
HETATM   11  C17 UNL     1      23.307   1.577  52.386  1.00  0.00     0.042 A 
HETATM   12  C18 UNL     1      24.505   1.487  53.064  1.00  0.00     0.048 A 
ENDROOT
BRANCH  10  13
HETATM   13  N5  UNL     1      23.885   3.900  51.798  1.00  0.00    -0.354 N 
HETATM   14  H9  UNL     1      23.715   4.529  52.607  1.00  0.00     0.166 HD
BRANCH  13  15
HETATM   15  C11 UNL     1      24.889   4.173  50.828  1.00  0.00     0.034 A 
HETATM   16  C12 UNL     1      25.719   3.154  50.416  1.00  0.00     0.032 A 
HETATM   17  C13 UNL     1      26.675   3.499  49.466  1.00  0.00     0.046 A 
HETATM   18  C14 UNL     1      26.775   4.796  48.973  1.00  0.00     0.138 A 
HETATM   19  F1  UNL     1      27.715   5.105  48.047  1.00  0.00    -0.204 F 
HETATM   20  C15 UNL     1      25.931   5.785  49.406  1.00  0.00     0.074 A 
HETATM   21 CL1  UNL     1      26.006   7.433  48.825  1.00  0.00    -0.081 Cl
HETATM   22  C16 UNL     1      24.995   5.449  50.335  1.00  0.00     0.056 A 
ENDBRANCH  13  15
ENDBRANCH  10  13
BRANCH   1  23
HETATM   23  N1  UNL     1      26.098   0.290  54.383  1.00  0.00    -0.326 N 
HETATM   24  C3  UNL     1      27.386  -0.019  53.877  1.00  0.00     0.221 C 
HETATM   25  O1  UNL     1      27.531  -0.311  52.680  1.00  0.00    -0.273 OA
HETATM   26  H6  UNL     1      26.143   0.512  55.400  1.00  0.00     0.169 HD
BRANCH  24  27
HETATM   27  C2  UNL     1      28.627  -0.028  54.675  1.00  0.00     0.098 C 
HETATM   28  C1  UNL     1      29.678  -0.758  53.844  1.00  0.00     0.014 C 
ENDBRANCH  24  27
ENDBRANCH   1  23
TORSDOF 4
ENDMDL
MODEL 6
REMARK VINA RESULT:      -8.1      2.302      4.119
REMARK  4 active torsions:
REMARK  status: ('A' for Active; 'I' for Inactive)
REMARK    1  A    between atoms: C2_2  and  C3_3 
REMARK       I    between atoms: C3_3  and  N1_5 
REMARK    2  A    between atoms: N1_5  and  C4_6 
REMARK    3  A    between atoms: C10_15  and  N5_16 
REMARK    4  A    between atoms: N5_16  and  C11_17 
ROOT
HETATM    1  C4  UNL     1      26.501   1.280  52.265  1.00  0.00     0.053 A 
HETATM    2  C5  UNL     1      27.259   1.008  53.376  1.00  0.00     0.148 A 
HETATM    3  N2  UNL     1      26.833   0.314  54.441  1.00  0.00    -0.238 NA
HETATM    4  C6  UNL     1      25.588  -0.189  54.515  1.00  0.00     0.161 A 
HETATM    5  N3  UNL     1      25.085  -0.893  55.542  1.00  0.00    -0.239 NA
HETATM    6  C7  UNL     1      23.830  -1.370  55.558  1.00  0.00     0.144 A 
HETATM    7  C8  UNL     1      23.025  -1.125  54.466  1.00  0.00     0.089 A 
HETATM    8  C9  UNL     1      21.694  -1.658  54.533  1.00  0.00     0.103 C 
HETATM    9  N4  UNL     1      20.619  -2.104  54.575  1.00  0.00    -0.191 NA
HETATM   10  C10 UNL     1      23.495  -0.404  53.378  1.00  0.00     0.069 A 
HETATM   11  C17 UNL     1      24.792   0.063  53.416  1.00  0.00     0.042 A 
HETATM   12  C18 UNL     1      25.223   0.776  52.316  1.00  0.00     0.048 A 
ENDROOT
BRANCH  10  13
HETATM   13  N5  UNL     1      22.606  -0.202  52.310  1.00  0.00    -0.354 N 
HETATM   14  H9  UNL     1      22.671  -0.935  51.576  1.00  0.00     0.166 HD
BRANCH  13  15
HETATM   15  C11 UNL     1      21.694   0.885  52.211  1.00  0.00     0.034 A 
HETATM   16  C12 UNL     1      20.348   0.623  52.079  1.00  0.00     0.032 A 
HETATM   17  C13 UNL     1      19.521   1.737  51.989  1.00  0.00     0.046 A 
HETATM   18  C14 UNL     1      20.034   3.029  52.029  1.00  0.00     0.138 A 
HETATM   19  F1  UNL     1      19.205   4.098  51.940  1.00  0.00    -0.204 F 
HETATM   20  C15 UNL     1      21.380   3.253  52.162  1.00  0.00     0.074 A 
HETATM   21 CL1  UNL     1      22.086   4.852  52.219  1.00  0.00    -0.081 Cl
HETATM   22  C16 UNL     1      22.191   2.163  52.250  1.00  0.00     0.056 A 
ENDBRANCH  13  15
ENDBRANCH  10  13
BRANCH   1  23
HETATM   23  N1  UNL     1      26.887   2.000  51.116  1.00  0.00    -0.326 N 
HETATM   24  C3  UNL     1      26.298   3.157  50.545  1.00  0.00     0.221 C 
HETATM   25  O1  UNL     1      25.298   3.669  51.070  1.00  0.00    -0.273 OA
HETATM   26  H6  UNL     1      27.714   1.694  50.560  1.00  0.00     0.169 HD
BRANCH  24  27
HETATM   27  C2  UNL     1      26.782   3.841  49.331  1.00  0.00     0.098 C 
HETATM   28  C1  UNL     1      26.075   5.192  49.276  1.00  0.00     0.014 C 
ENDBRANCH  24  27
ENDBRANCH   1  23
TORSDOF 4
ENDMDL
MODEL 7
REMARK VINA RESULT:      -7.9      3.306      5.992
REMARK  4 active torsions:
REMARK  status: ('A' for Active; 'I' for Inactive)
REMARK    1  A    between atoms: C2_2  and  C3_3 
REMARK       I    between atoms: C3_3  and  N1_5 
REMARK    2  A    between atoms: N1_5  and  C4_6 
REMARK    3  A    between atoms: C10_15  and  N5_16 
REMARK    4  A    between atoms: N5_16  and  C11_17 
ROOT
HETATM    1  C4  UNL     1      24.100   3.948  49.815  1.00  0.00     0.053 A 
HETATM    2  C5  UNL     1      23.156   3.623  48.874  1.00  0.00     0.148 A 
HETATM    3  N2  UNL     1      22.271   2.623  48.992  1.00  0.00    -0.238 NA
HETATM    4  C6  UNL     1      22.233   1.828  50.076  1.00  0.00     0.161 A 
HETATM    5  N3  UNL     1      21.381   0.808  50.272  1.00  0.00    -0.239 NA
HETATM    6  C7  UNL     1      21.392   0.047  51.378  1.00  0.00     0.144 A 
HETATM    7  C8  UNL     1      22.321   0.331  52.356  1.00  0.00     0.089 A 
HETATM    8  C9  UNL     1      22.289  -0.512  53.518  1.00  0.00     0.103 C 
HETATM    9  N4  UNL     1      22.255  -1.181  54.471  1.00  0.00    -0.191 NA
HETATM   10  C10 UNL     1      23.224   1.374  52.204  1.00  0.00     0.069 A 
HETATM   11  C17 UNL     1      23.168   2.122  51.047  1.00  0.00     0.042 A 
HETATM   12  C18 UNL     1      24.081   3.149  50.933  1.00  0.00     0.048 A 
ENDROOT
BRANCH  10  13
HETATM   13  N5  UNL     1      24.135   1.590  53.251  1.00  0.00    -0.354 N 
HETATM   14  H9  UNL     1      23.735   2.140  54.038  1.00  0.00     0.166 HD
BRANCH  13  15
HETATM   15  C11 UNL     1      25.477   1.119  53.266  1.00  0.00     0.034 A 
HETATM   16  C12 UNL     1      26.489   1.986  53.615  1.00  0.00     0.032 A 
HETATM   17  C13 UNL     1      27.773   1.451  53.607  1.00  0.00     0.046 A 
HETATM   18  C14 UNL     1      28.006   0.123  53.264  1.00  0.00     0.138 A 
HETATM   19  F1  UNL     1      29.267  -0.373  53.265  1.00  0.00    -0.204 F 
HETATM   20  C15 UNL     1      26.973  -0.711  52.923  1.00  0.00     0.074 A 
HETATM   21 CL1  UNL     1      27.200  -2.389  52.483  1.00  0.00    -0.081 Cl
HETATM   22  C16 UNL     1      25.716  -0.190  52.930  1.00  0.00     0.056 A 
ENDBRANCH  13  15
ENDBRANCH  10  13
BRANCH   1  23
HETATM   23  N1  UNL     1      25.055   4.984  49.752  1.00  0.00    -0.326 N 
HETATM   24  C3  UNL     1      24.940   6.333  50.172  1.00  0.00     0.221 C 
HETATM   25  O1  UNL     1      23.882   6.740  50.677  1.00  0.00    -0.273 OA
HETATM   26  H6  UNL     1      26.000   4.801  49.352  1.00  0.00     0.169 HD
BRANCH  24  27
HETATM   27  C2  UNL     1      26.007   7.347  50.062  1.00  0.00     0.098 C 
HETATM   28  C1  UNL     1      25.316   8.706  49.997  1.00  0.00     0.014 C 
ENDBRANCH  24  27
ENDBRANCH   1  23
TORSDOF 4
ENDMDL
MODEL 8
REMARK VINA RESULT:      -7.7      2.361      5.543
REMARK  4 active torsions:
REMARK  status: ('A' for Active; 'I' for Inactive)
REMARK    1  A    between atoms: C2_2  and  C3_3 
REMARK       I    between atoms: C3_3  and  N1_5 
REMARK    2  A    between atoms: N1_5  and  C4_6 
REMARK    3  A    between atoms: C10_15  and  N5_16 
REMARK    4  A    between atoms: N5_16  and  C11_17 
ROOT
HETATM    1  C4  UNL     1      19.590   0.230  51.537  1.00  0.00     0.053 A 
HETATM    2  C5  UNL     1      18.895  -0.436  52.514  1.00  0.00     0.148 A 
HETATM    3  N2  UNL     1      19.445  -0.981  53.608  1.00  0.00    -0.238 NA
HETATM    4  C6  UNL     1      20.767  -0.919  53.848  1.00  0.00     0.161 A 
HETATM    5  N3  UNL     1      21.397  -1.437  54.916  1.00  0.00    -0.239 NA
HETATM    6  C7  UNL     1      22.723  -1.344  55.101  1.00  0.00     0.144 A 
HETATM    7  C8  UNL     1      23.470  -0.684  54.149  1.00  0.00     0.089 A 
HETATM    8  C9  UNL     1      24.882  -0.612  54.395  1.00  0.00     0.103 C 
HETATM    9  N4  UNL     1      26.026  -0.534  54.599  1.00  0.00    -0.191 NA
HETATM   10  C10 UNL     1      22.870  -0.130  53.027  1.00  0.00     0.069 A 
HETATM   11  C17 UNL     1      21.504  -0.257  52.887  1.00  0.00     0.042 A 
HETATM   12  C18 UNL     1      20.944   0.307  51.760  1.00  0.00     0.048 A 
ENDROOT
BRANCH  10  13
HETATM   13  N5  UNL     1      23.708   0.524  52.109  1.00  0.00    -0.354 N 
HETATM   14  H9  UNL     1      24.293  -0.128  51.549  1.00  0.00     0.166 HD
BRANCH  13  15
HETATM   15  C11 UNL     1      23.775   1.934  51.937  1.00  0.00     0.034 A 
HETATM   16  C12 UNL     1      23.865   2.742  53.048  1.00  0.00     0.032 A 
HETATM   17  C13 UNL     1      23.927   4.110  52.799  1.00  0.00     0.046 A 
HETATM   18  C14 UNL     1      23.897   4.615  51.503  1.00  0.00     0.138 A 
HETATM   19  F1  UNL     1      23.959   5.951  51.288  1.00  0.00    -0.204 F 
HETATM   20  C15 UNL     1      23.806   3.779  50.420  1.00  0.00     0.074 A 
HETATM   21 CL1  UNL     1      23.764   4.352  48.768  1.00  0.00    -0.081 Cl
HETATM   22  C16 UNL     1      23.746   2.442  50.662  1.00  0.00     0.056 A 
ENDBRANCH  13  15
ENDBRANCH  10  13
BRANCH   1  23
HETATM   23  N1  UNL     1      19.073   0.824  50.367  1.00  0.00    -0.326 N 
HETATM   24  C3  UNL     1      18.780   2.188  50.111  1.00  0.00     0.221 C 
HETATM   25  O1  UNL     1      18.978   3.043  50.988  1.00  0.00    -0.273 OA
HETATM   26  H6  UNL     1      18.852   0.236  49.535  1.00  0.00     0.169 HD
BRANCH  24  27
HETATM   27  C2  UNL     1      18.237   2.712  48.842  1.00  0.00     0.098 C 
HETATM   28  C1  UNL     1      18.208   4.232  48.973  1.00  0.00     0.014 C 
ENDBRANCH  24  27
ENDBRANCH   1  23
TORSDOF 4
ENDMDL
MODEL 9
REMARK VINA RESULT:      -7.6      3.350      5.451
REMARK  4 active torsions:
REMARK  status: ('A' for Active; 'I' for Inactive)
REMARK    1  A    between atoms: C2_2  and  C3_3 
REMARK       I    between atoms: C3_3  and  N1_5 
REMARK    2  A    between atoms: N1_5  and  C4_6 
REMARK    3  A    between atoms: C10_15  and  N5_16 
REMARK    4  A    between atoms: N5_16  and  C11_17 
ROOT
HETATM    1  C4  UNL     1      25.646   3.133  51.215  1.00  0.00     0.053 A 
HETATM    2  C5  UNL     1      26.767   2.344  51.255  1.00  0.00     0.148 A 
HETATM    3  N2  UNL     1      26.840   1.148  51.856  1.00  0.00    -0.238 NA
HETATM    4  C6  UNL     1      25.787   0.604  52.491  1.00  0.00     0.161 A 
HETATM    5  N3  UNL     1      25.776  -0.585  53.116  1.00  0.00    -0.239 NA
HETATM    6  C7  UNL     1      24.692  -1.077  53.735  1.00  0.00     0.144 A 
HETATM    7  C8  UNL     1      23.537  -0.325  53.725  1.00  0.00     0.089 A 
HETATM    8  C9  UNL     1      22.406  -0.897  54.400  1.00  0.00     0.103 C 
HETATM    9  N4  UNL     1      21.481  -1.366  54.930  1.00  0.00    -0.191 NA
HETATM   10  C10 UNL     1      23.494   0.910  53.093  1.00  0.00     0.069 A 
HETATM   11  C17 UNL     1      24.638   1.367  52.474  1.00  0.00     0.042 A 
HETATM   12  C18 UNL     1      24.555   2.598  51.858  1.00  0.00     0.048 A 
ENDROOT
BRANCH  10  13
HETATM   13  N5  UNL     1      22.275   1.607  53.133  1.00  0.00    -0.354 N 
HETATM   14  H9  UNL     1      22.159   2.183  53.991  1.00  0.00     0.166 HD
BRANCH  13  15
HETATM   15  C11 UNL     1      21.279   1.554  52.119  1.00  0.00     0.034 A 
HETATM   16  C12 UNL     1      21.479   0.743  51.024  1.00  0.00     0.032 A 
HETATM   17  C13 UNL     1      20.460   0.744  50.076  1.00  0.00     0.046 A 
HETATM   18  C14 UNL     1      19.318   1.522  50.237  1.00  0.00     0.138 A 
HETATM   19  F1  UNL     1      18.341   1.505  49.299  1.00  0.00    -0.204 F 
HETATM   20  C15 UNL     1      19.154   2.318  51.341  1.00  0.00     0.074 A 
HETATM   21 CL1  UNL     1      17.742   3.318  51.600  1.00  0.00    -0.081 Cl
HETATM   22  C16 UNL     1      20.149   2.318  52.269  1.00  0.00     0.056 A 
ENDBRANCH  13  15
ENDBRANCH  10  13
BRANCH   1  23
HETATM   23  N1  UNL     1      25.504   4.396  50.602  1.00  0.00    -0.326 N 
HETATM   24  C3  UNL     1      26.193   4.929  49.483  1.00  0.00     0.221 C 
HETATM   25  O1  UNL     1      27.058   4.254  48.905  1.00  0.00    -0.273 OA
HETATM   26  H6  UNL     1      24.813   5.083  50.973  1.00  0.00     0.169 HD
BRANCH  24  27
HETATM   27  C2  UNL     1      25.969   6.272  48.914  1.00  0.00     0.098 C 
HETATM   28  C1  UNL     1      27.250   6.656  48.178  1.00  0.00     0.014 C 
ENDBRANCH  24  27
ENDBRANCH   1  23
TORSDOF 4
ENDMDL
