MODEL 1
REMARK VINA RESULT:      -8.2      0.000      0.000
REMARK  2 active torsions:
REMARK  status: ('A' for Active; 'I' for Inactive)
REMARK    1  A    between atoms: O1_1  and  C1_2 
REMARK    2  A    between atoms: C3_5  and  N1_6 
ROOT
HETATM    1  N1  UNL     1      26.278   0.351  53.912  1.00  0.00    -0.276 N 
HETATM    2  N2  UNL     1      25.951  -0.834  54.582  1.00  0.00    -0.184 NA
HETATM    3  C4  UNL     1      24.693  -1.034  54.641  1.00  0.00     0.038 C 
HETATM    4  C5  UNL     1      23.410  -1.496  55.293  1.00  0.00     0.083 C 
HETATM    5  C6  UNL     1      22.230  -0.718  54.799  1.00  0.00    -0.021 C 
HETATM    6  C7  UNL     1      21.057  -0.446  54.235  1.00  0.00    -0.003 C 
HETATM    7  C8  UNL     1      19.985   0.440  53.812  1.00  0.00     0.011 C 
HETATM    8  C9  UNL     1      19.464   0.149  52.685  1.00  0.00    -0.029 C 
HETATM    9  C10 UNL     1      20.199   0.158  51.638  1.00  0.00     0.006 C 
HETATM   10  C11 UNL     1      21.626   0.132  51.804  1.00  0.00     0.115 A 
HETATM   11  C12 UNL     1      22.527   1.088  51.704  1.00  0.00    -0.004 A 
HETATM   12 BR1  UNL     1      20.848   1.911  51.327  1.00  0.00    -0.118 Br
HETATM   13  C13 UNL     1      23.743   1.814  51.744  1.00  0.00     0.013 C 
HETATM   14  C14 UNL     1      24.951   1.446  52.141  1.00  0.00     0.001 C 
HETATM   15  C15 UNL     1      25.547   0.179  52.697  1.00  0.00     0.134 C 
HETATM   16  C16 UNL     1      24.344  -0.494  53.306  1.00  0.00     0.087 C 
ENDROOT
BRANCH   1  17
HETATM   17  C3  UNL     1      27.109   1.558  54.181  1.00  0.00     0.227 A 
HETATM   18  C1  UNL     1      27.749   2.103  53.035  1.00  0.00     0.084 A 
HETATM   19  C2  UNL     1      28.942   1.851  53.351  1.00  0.00     0.082 A 
HETATM   20  S1  UNL     1      28.655   1.083  54.877  1.00  0.00    -0.105 SA
BRANCH  18  21
HETATM   21  O1  UNL     1      27.575   2.747  51.812  1.00  0.00    -0.361 OA
HETATM   22  H1  UNL     1      26.726   3.217  51.526  1.00  0.00     0.217 HD
ENDBRANCH  18  21
ENDBRANCH   1  17
TORSDOF 2
ENDMDL
MODEL 2
REMARK VINA RESULT:      -8.1      2.487      4.126
REMARK  2 active torsions:
REMARK  status: ('A' for Active; 'I' for Inactive)
REMARK    1  A    between atoms: O1_1  and  C1_2 
REMARK    2  A    between atoms: C3_5  and  N1_6 
ROOT
HETATM    1  N1  UNL     1      26.843   1.521  52.730  1.00  0.00    -0.276 N 
HETATM    2  N2  UNL     1      27.268   2.642  52.007  1.00  0.00    -0.184 NA
HETATM    3  C4  UNL     1      26.451   2.971  51.085  1.00  0.00     0.038 C 
HETATM    4  C5  UNL     1      26.066   3.489  49.719  1.00  0.00     0.083 C 
HETATM    5  C6  UNL     1      24.762   2.914  49.259  1.00  0.00    -0.021 C 
HETATM    6  C7  UNL     1      23.499   2.847  48.849  1.00  0.00    -0.003 C 
HETATM    7  C8  UNL     1      22.301   2.145  48.416  1.00  0.00     0.011 C 
HETATM    8  C9  UNL     1      21.208   2.630  48.858  1.00  0.00    -0.029 C 
HETATM    9  C10 UNL     1      21.009   2.671  50.121  1.00  0.00     0.006 C 
HETATM   10  C11 UNL     1      22.138   2.517  50.997  1.00  0.00     0.115 A 
HETATM   11  C12 UNL     1      22.549   1.487  51.707  1.00  0.00    -0.004 A 
HETATM   12 BR1  UNL     1      20.963   0.909  50.817  1.00  0.00    -0.118 Br
HETATM   13  C13 UNL     1      23.316   0.631  52.534  1.00  0.00     0.013 C 
HETATM   14  C14 UNL     1      24.506   0.809  53.088  1.00  0.00     0.001 C 
HETATM   15  C15 UNL     1      25.520   1.923  53.089  1.00  0.00     0.134 C 
HETATM   16  C16 UNL     1      25.198   2.644  51.806  1.00  0.00     0.087 C 
ENDROOT
BRANCH   1  17
HETATM   17  C3  UNL     1      27.415   0.205  53.130  1.00  0.00     0.227 A 
HETATM   18  C1  UNL     1      27.318  -0.084  54.519  1.00  0.00     0.084 A 
HETATM   19  C2  UNL     1      28.546  -0.051  54.801  1.00  0.00     0.082 A 
HETATM   20  S1  UNL     1      29.169   0.314  53.227  1.00  0.00    -0.105 SA
BRANCH  18  21
HETATM   21  O1  UNL     1      26.464  -0.363  55.583  1.00  0.00    -0.361 OA
HETATM   22  H1  UNL     1      26.742  -0.835  56.434  1.00  0.00     0.217 HD
ENDBRANCH  18  21
ENDBRANCH   1  17
TORSDOF 2
ENDMDL
MODEL 3
REMARK VINA RESULT:      -8.1      4.081      6.421
REMARK  2 active torsions:
REMARK  status: ('A' for Active; 'I' for Inactive)
REMARK    1  A    between atoms: O1_1  and  C1_2 
REMARK    2  A    between atoms: C3_5  and  N1_6 
ROOT
HETATM    1  N1  UNL     1      20.441   1.509  52.530  1.00  0.00    -0.276 N 
HETATM    2  N2  UNL     1      20.611   0.677  53.643  1.00  0.00    -0.184 NA
HETATM    3  C4  UNL     1      21.810   0.259  53.765  1.00  0.00     0.038 C 
HETATM    4  C5  UNL     1      22.877  -0.755  54.105  1.00  0.00     0.083 C 
HETATM    5  C6  UNL     1      24.120  -0.539  53.297  1.00  0.00    -0.021 C 
HETATM    6  C7  UNL     1      25.392  -0.297  52.999  1.00  0.00    -0.003 C 
HETATM    7  C8  UNL     1      26.508  -0.110  52.085  1.00  0.00     0.011 C 
HETATM    8  C9  UNL     1      27.330   0.803  52.425  1.00  0.00    -0.029 C 
HETATM    9  C10 UNL     1      26.914   2.008  52.534  1.00  0.00     0.006 C 
HETATM   10  C11 UNL     1      25.500   2.238  52.630  1.00  0.00     0.115 A 
HETATM   11  C12 UNL     1      24.628   2.660  51.737  1.00  0.00    -0.004 A 
HETATM   12 BR1  UNL     1      26.315   2.632  50.847  1.00  0.00    -0.118 Br
HETATM   13  C13 UNL     1      23.424   3.016  51.082  1.00  0.00     0.013 C 
HETATM   14  C14 UNL     1      22.167   2.935  51.489  1.00  0.00     0.001 C 
HETATM   15  C15 UNL     1      21.486   2.459  52.745  1.00  0.00     0.134 C 
HETATM   16  C16 UNL     1      22.496   1.489  53.302  1.00  0.00     0.087 C 
ENDROOT
BRANCH   1  17
HETATM   17  C3  UNL     1      19.526   1.581  51.356  1.00  0.00     0.227 A 
HETATM   18  C1  UNL     1      18.367   2.380  51.558  1.00  0.00     0.084 A 
HETATM   19  C2  UNL     1      17.502   1.465  51.519  1.00  0.00     0.082 A 
HETATM   20  S1  UNL     1      18.555   0.115  51.259  1.00  0.00    -0.105 SA
BRANCH  18  21
HETATM   21  O1  UNL     1      17.873   3.666  51.762  1.00  0.00    -0.361 OA
HETATM   22  H1  UNL     1      17.210   4.130  51.155  1.00  0.00     0.217 HD
ENDBRANCH  18  21
ENDBRANCH   1  17
TORSDOF 2
ENDMDL
MODEL 4
REMARK VINA RESULT:      -8.0      4.078      6.544
REMARK  2 active torsions:
REMARK  status: ('A' for Active; 'I' for Inactive)
REMARK    1  A    between atoms: O1_1  and  C1_2 
REMARK    2  A    between atoms: C3_5  and  N1_6 
ROOT
HETATM    1  N1  UNL     1      22.732   3.587  50.676  1.00  0.00    -0.276 N 
HETATM    2  N2  UNL     1      23.778   3.823  49.775  1.00  0.00    -0.184 NA
HETATM    3  C4  UNL     1      24.887   3.333  50.170  1.00  0.00     0.038 C 
HETATM    4  C5  UNL     1      26.387   3.310  50.347  1.00  0.00     0.083 C 
HETATM    5  C6  UNL     1      26.785   2.547  51.573  1.00  0.00    -0.021 C 
HETATM    6  C7  UNL     1      27.355   1.626  52.344  1.00  0.00    -0.003 C 
HETATM    7  C8  UNL     1      27.654   0.991  53.618  1.00  0.00     0.011 C 
HETATM    8  C9  UNL     1      27.684  -0.283  53.586  1.00  0.00    -0.029 C 
HETATM    9  C10 UNL     1      26.629  -0.923  53.250  1.00  0.00     0.006 C 
HETATM   10  C11 UNL     1      25.579  -0.208  52.579  1.00  0.00     0.115 A 
HETATM   11  C12 UNL     1      24.426   0.253  53.020  1.00  0.00    -0.004 A 
HETATM   12 BR1  UNL     1      25.254  -0.597  54.514  1.00  0.00    -0.118 Br
HETATM   13  C13 UNL     1      23.180   0.918  53.113  1.00  0.00     0.013 C 
HETATM   14  C14 UNL     1      22.547   1.686  52.239  1.00  0.00     0.001 C 
HETATM   15  C15 UNL     1      22.841   2.173  50.845  1.00  0.00     0.134 C 
HETATM   16  C16 UNL     1      24.346   2.104  50.798  1.00  0.00     0.087 C 
ENDROOT
BRANCH   1  17
HETATM   17  C3  UNL     1      21.696   4.399  51.375  1.00  0.00     0.227 A 
HETATM   18  C1  UNL     1      20.400   4.329  50.796  1.00  0.00     0.084 A 
HETATM   19  C2  UNL     1      20.313   5.519  50.390  1.00  0.00     0.082 A 
HETATM   20  S1  UNL     1      21.856   6.095  50.928  1.00  0.00    -0.105 SA
BRANCH  18  21
HETATM   21  O1  UNL     1      19.296   3.522  50.531  1.00  0.00    -0.361 OA
HETATM   22  H1  UNL     1      19.127   3.049  49.653  1.00  0.00     0.217 HD
ENDBRANCH  18  21
ENDBRANCH   1  17
TORSDOF 2
ENDMDL
MODEL 5
REMARK VINA RESULT:      -7.8      3.620      4.756
REMARK  2 active torsions:
REMARK  status: ('A' for Active; 'I' for Inactive)
REMARK    1  A    between atoms: O1_1  and  C1_2 
REMARK    2  A    between atoms: C3_5  and  N1_6 
ROOT
HETATM    1  N1  UNL     1      23.830   4.479  51.542  1.00  0.00    -0.276 N 
HETATM    2  N2  UNL     1      22.636   5.195  51.688  1.00  0.00    -0.184 NA
HETATM    3  C4  UNL     1      21.628   4.436  51.877  1.00  0.00     0.038 C 
HETATM    4  C5  UNL     1      20.184   4.017  51.730  1.00  0.00     0.083 C 
HETATM    5  C6  UNL     1      20.030   2.529  51.819  1.00  0.00    -0.021 C 
HETATM    6  C7  UNL     1      19.632   1.336  52.248  1.00  0.00    -0.003 C 
HETATM    7  C8  UNL     1      19.580  -0.117  52.207  1.00  0.00     0.011 C 
HETATM    8  C9  UNL     1      19.582  -0.684  53.349  1.00  0.00    -0.029 C 
HETATM    9  C10 UNL     1      20.579  -0.510  54.130  1.00  0.00     0.006 C 
HETATM   10  C11 UNL     1      21.473   0.583  53.865  1.00  0.00     0.115 A 
HETATM   11  C12 UNL     1      22.672   0.609  53.320  1.00  0.00    -0.004 A 
HETATM   12 BR1  UNL     1      22.145  -1.225  53.338  1.00  0.00    -0.118 Br
HETATM   13  C13 UNL     1      23.896   1.047  52.759  1.00  0.00     0.013 C 
HETATM   14  C14 UNL     1      24.342   2.270  52.517  1.00  0.00     0.001 C 
HETATM   15  C15 UNL     1      23.793   3.658  52.710  1.00  0.00     0.134 C 
HETATM   16  C16 UNL     1      22.306   3.412  52.708  1.00  0.00     0.087 C 
ENDROOT
BRANCH   1  17
HETATM   17  C3  UNL     1      24.949   4.422  50.560  1.00  0.00     0.227 A 
HETATM   18  C1  UNL     1      25.429   5.691  50.136  1.00  0.00     0.084 A 
HETATM   19  C2  UNL     1      25.060   5.636  48.932  1.00  0.00     0.082 A 
HETATM   20  S1  UNL     1      24.324   4.068  48.952  1.00  0.00    -0.105 SA
BRANCH  18  21
HETATM   21  O1  UNL     1      26.088   6.860  50.509  1.00  0.00    -0.361 OA
HETATM   22  H1  UNL     1      25.653   7.635  50.992  1.00  0.00     0.217 HD
ENDBRANCH  18  21
ENDBRANCH   1  17
TORSDOF 2
ENDMDL
MODEL 6
REMARK VINA RESULT:      -7.8      4.200      6.036
REMARK  2 active torsions:
REMARK  status: ('A' for Active; 'I' for Inactive)
REMARK    1  A    between atoms: O1_1  and  C1_2 
REMARK    2  A    between atoms: C3_5  and  N1_6 
ROOT
HETATM    1  N1  UNL     1      23.015   3.580  49.998  1.00  0.00    -0.276 N 
HETATM    2  N2  UNL     1      21.932   3.323  50.847  1.00  0.00    -0.184 NA
HETATM    3  C4  UNL     1      22.210   2.468  51.752  1.00  0.00     0.038 C 
HETATM    4  C5  UNL     1      21.914   1.312  52.678  1.00  0.00     0.083 C 
HETATM    5  C6  UNL     1      23.153   0.534  53.001  1.00  0.00    -0.021 C 
HETATM    6  C7  UNL     1      24.130  -0.026  53.706  1.00  0.00    -0.003 C 
HETATM    7  C8  UNL     1      25.347  -0.807  53.863  1.00  0.00     0.011 C 
HETATM    8  C9  UNL     1      26.156  -0.367  54.744  1.00  0.00    -0.029 C 
HETATM    9  C10 UNL     1      26.649   0.805  54.607  1.00  0.00     0.006 C 
HETATM   10  C11 UNL     1      26.016   1.712  53.691  1.00  0.00     0.115 A 
HETATM   11  C12 UNL     1      26.351   2.089  52.474  1.00  0.00    -0.004 A 
HETATM   12 BR1  UNL     1      27.709   0.873  53.038  1.00  0.00    -0.118 Br
HETATM   13  C13 UNL     1      26.338   2.676  51.186  1.00  0.00     0.013 C 
HETATM   14  C14 UNL     1      25.407   3.397  50.579  1.00  0.00     0.001 C 
HETATM   15  C15 UNL     1      24.033   3.888  50.951  1.00  0.00     0.134 C 
HETATM   16  C16 UNL     1      23.612   2.884  51.993  1.00  0.00     0.087 C 
ENDROOT
BRANCH   1  17
HETATM   17  C3  UNL     1      23.266   3.592  48.529  1.00  0.00     0.227 A 
HETATM   18  C1  UNL     1      22.545   4.588  47.815  1.00  0.00     0.084 A 
HETATM   19  C2  UNL     1      21.786   3.829  47.154  1.00  0.00     0.082 A 
HETATM   20  S1  UNL     1      22.351   2.305  47.751  1.00  0.00    -0.105 SA
BRANCH  18  21
HETATM   21  O1  UNL     1      22.374   5.952  47.590  1.00  0.00    -0.361 OA
HETATM   22  H1  UNL     1      22.849   6.479  46.869  1.00  0.00     0.217 HD
ENDBRANCH  18  21
ENDBRANCH   1  17
TORSDOF 2
ENDMDL
MODEL 7
REMARK VINA RESULT:      -7.7      4.269      6.886
REMARK  2 active torsions:
REMARK  status: ('A' for Active; 'I' for Inactive)
REMARK    1  A    between atoms: O1_1  and  C1_2 
REMARK    2  A    between atoms: C3_5  and  N1_6 
ROOT
HETATM    1  N1  UNL     1      20.615   1.534  51.197  1.00  0.00    -0.276 N 
HETATM    2  N2  UNL     1      21.350   2.300  50.285  1.00  0.00    -0.184 NA
HETATM    3  C4  UNL     1      22.563   2.462  50.644  1.00  0.00     0.038 C 
HETATM    4  C5  UNL     1      23.854   3.232  50.793  1.00  0.00     0.083 C 
HETATM    5  C6  UNL     1      24.633   2.776  51.988  1.00  0.00    -0.021 C 
HETATM    6  C7  UNL     1      25.626   2.282  52.720  1.00  0.00    -0.003 C 
HETATM    7  C8  UNL     1      26.256   1.881  53.969  1.00  0.00     0.011 C 
HETATM    8  C9  UNL     1      26.952   0.815  53.898  1.00  0.00    -0.029 C 
HETATM    9  C10 UNL     1      26.382  -0.280  53.563  1.00  0.00     0.006 C 
HETATM   10  C11 UNL     1      25.093  -0.216  52.933  1.00  0.00     0.115 A 
HETATM   11  C12 UNL     1      23.885  -0.441  53.409  1.00  0.00    -0.004 A 
HETATM   12 BR1  UNL     1      25.083  -0.748  54.861  1.00  0.00    -0.118 Br
HETATM   13  C13 UNL     1      22.479  -0.535  53.545  1.00  0.00     0.013 C 
HETATM   14  C14 UNL     1      21.509  -0.203  52.706  1.00  0.00     0.001 C 
HETATM   15  C15 UNL     1      21.458   0.388  51.322  1.00  0.00     0.134 C 
HETATM   16  C16 UNL     1      22.771   1.124  51.245  1.00  0.00     0.087 C 
ENDROOT
BRANCH   1  17
HETATM   17  C3  UNL     1      19.329   1.665  51.939  1.00  0.00     0.227 A 
HETATM   18  C1  UNL     1      18.275   0.850  51.445  1.00  0.00     0.084 A 
HETATM   19  C2  UNL     1      17.520   1.763  51.016  1.00  0.00     0.082 A 
HETATM   20  S1  UNL     1      18.492   3.132  51.440  1.00  0.00    -0.105 SA
BRANCH  18  21
HETATM   21  O1  UNL     1      17.805  -0.449  51.271  1.00  0.00    -0.361 OA
HETATM   22  H1  UNL     1      17.259  -0.761  50.478  1.00  0.00     0.217 HD
ENDBRANCH  18  21
ENDBRANCH   1  17
TORSDOF 2
ENDMDL
MODEL 8
REMARK VINA RESULT:      -7.7     10.661     12.688
REMARK  2 active torsions:
REMARK  status: ('A' for Active; 'I' for Inactive)
REMARK    1  A    between atoms: O1_1  and  C1_2 
REMARK    2  A    between atoms: C3_5  and  N1_6 
ROOT
HETATM    1  N1  UNL     1      32.959   5.185  48.403  1.00  0.00    -0.276 N 
HETATM    2  N2  UNL     1      34.218   5.776  48.564  1.00  0.00    -0.184 NA
HETATM    3  C4  UNL     1      34.209   7.027  48.314  1.00  0.00     0.038 C 
HETATM    4  C5  UNL     1      34.784   8.321  47.787  1.00  0.00     0.083 C 
HETATM    5  C6  UNL     1      33.706   9.267  47.355  1.00  0.00    -0.021 C 
HETATM    6  C7  UNL     1      32.951  10.358  47.292  1.00  0.00    -0.003 C 
HETATM    7  C8  UNL     1      31.858  11.164  46.769  1.00  0.00     0.011 C 
HETATM    8  C9  UNL     1      31.234  11.850  47.643  1.00  0.00    -0.029 C 
HETATM    9  C10 UNL     1      30.639  11.246  48.601  1.00  0.00     0.006 C 
HETATM   10  C11 UNL     1      30.988   9.879  48.870  1.00  0.00     0.115 A 
HETATM   11  C12 UNL     1      30.367   8.753  48.583  1.00  0.00    -0.004 A 
HETATM   12 BR1  UNL     1      29.258  10.150  47.906  1.00  0.00    -0.118 Br
HETATM   13  C13 UNL     1      30.054   7.382  48.419  1.00  0.00     0.013 C 
HETATM   14  C14 UNL     1      30.773   6.299  48.674  1.00  0.00     0.001 C 
HETATM   15  C15 UNL     1      32.156   6.046  49.212  1.00  0.00     0.134 C 
HETATM   16  C16 UNL     1      32.868   7.329  48.868  1.00  0.00     0.087 C 
ENDROOT
BRANCH   1  17
HETATM   17  C3  UNL     1      32.391   4.019  47.669  1.00  0.00     0.227 A 
HETATM   18  C1  UNL     1      33.096   2.800  47.860  1.00  0.00     0.084 A 
HETATM   19  C2  UNL     1      33.542   2.657  46.690  1.00  0.00     0.082 A 
HETATM   20  S1  UNL     1      32.867   4.083  45.975  1.00  0.00    -0.105 SA
BRANCH  18  21
HETATM   21  O1  UNL     1      33.449   1.799  48.763  1.00  0.00    -0.361 OA
HETATM   22  H1  UNL     1      33.754   1.964  49.713  1.00  0.00     0.217 HD
ENDBRANCH  18  21
ENDBRANCH   1  17
TORSDOF 2
ENDMDL
MODEL 9
REMARK VINA RESULT:      -7.6      5.651      7.986
REMARK  2 active torsions:
REMARK  status: ('A' for Active; 'I' for Inactive)
REMARK    1  A    between atoms: O1_1  and  C1_2 
REMARK    2  A    between atoms: C3_5  and  N1_6 
ROOT
HETATM    1  N1  UNL     1      23.850   3.443  50.600  1.00  0.00    -0.276 N 
HETATM    2  N2  UNL     1      22.869   4.438  50.668  1.00  0.00    -0.184 NA
HETATM    3  C4  UNL     1      23.347   5.611  50.514  1.00  0.00     0.038 C 
HETATM    4  C5  UNL     1      23.441   7.095  50.778  1.00  0.00     0.083 C 
HETATM    5  C6  UNL     1      24.829   7.609  50.550  1.00  0.00    -0.021 C 
HETATM    6  C7  UNL     1      25.834   8.316  50.044  1.00  0.00    -0.003 C 
HETATM    7  C8  UNL     1      27.230   8.712  49.935  1.00  0.00     0.011 C 
HETATM    8  C9  UNL     1      27.629   8.944  48.747  1.00  0.00    -0.029 C 
HETATM    9  C10 UNL     1      27.586   8.004  47.881  1.00  0.00     0.006 C 
HETATM   10  C11 UNL     1      26.769   6.854  48.157  1.00  0.00     0.115 A 
HETATM   11  C12 UNL     1      27.089   5.642  48.562  1.00  0.00    -0.004 A 
HETATM   12 BR1  UNL     1      28.736   6.593  48.409  1.00  0.00    -0.118 Br
HETATM   13  C13 UNL     1      27.019   4.306  49.025  1.00  0.00     0.013 C 
HETATM   14  C14 UNL     1      25.972   3.560  49.344  1.00  0.00     0.001 C 
HETATM   15  C15 UNL     1      24.481   3.775  49.363  1.00  0.00     0.134 C 
HETATM   16  C16 UNL     1      24.381   5.271  49.508  1.00  0.00     0.087 C 
ENDROOT
BRANCH   1  17
HETATM   17  C3  UNL     1      24.289   2.290  51.437  1.00  0.00     0.227 A 
HETATM   18  C1  UNL     1      23.237   1.430  51.855  1.00  0.00     0.084 A 
HETATM   19  C2  UNL     1      23.279   1.673  53.091  1.00  0.00     0.082 A 
HETATM   20  S1  UNL     1      24.576   2.821  53.091  1.00  0.00    -0.105 SA
BRANCH  18  21
HETATM   21  O1  UNL     1      22.271   0.509  51.457  1.00  0.00    -0.361 OA
HETATM   22  H1  UNL     1      22.434  -0.483  51.346  1.00  0.00     0.217 HD
ENDBRANCH  18  21
ENDBRANCH   1  17
TORSDOF 2
ENDMDL
