MODEL 1
REMARK VINA RESULT:      -9.0      0.000      0.000
REMARK  1 active torsions:
REMARK  status: ('A' for Active; 'I' for Inactive)
REMARK    1  A    between atoms: N1_3  and  C3_4 
ROOT
HETATM    1  C1  UNL     1      26.811   3.760  49.470  1.00  0.00     0.037 C 
HETATM    2  C2  UNL     1      26.318   3.326  50.501  1.00  0.00    -0.005 C 
HETATM    3  N1  UNL     1      25.740   2.839  51.682  1.00  0.00    -0.339 N 
HETATM    4  H2  UNL     1      25.862   3.493  52.507  1.00  0.00     0.170 HD
ENDROOT
BRANCH   3   5
HETATM    5  C3  UNL     1      25.063   1.559  51.681  1.00  0.00     0.155 C 
HETATM    6  C4  UNL     1      23.604   1.738  51.836  1.00  0.00     0.013 A 
HETATM    7  C5  UNL     1      22.781   0.972  52.615  1.00  0.00     0.112 A 
HETATM    8  C12 UNL     1      22.752   2.663  51.272  1.00  0.00     0.004 A 
HETATM    9  N2  UNL     1      21.500   1.379  52.551  1.00  0.00    -0.344 N 
HETATM   10  C13 UNL     1      23.357  -0.147  53.387  1.00  0.00     0.269 C 
HETATM   11  C6  UNL     1      20.339   0.830  53.228  1.00  0.00     0.157 C 
HETATM   12  C7  UNL     1      21.474   2.416  51.730  1.00  0.00     0.069 A 
HETATM   13  C8  UNL     1      20.406   3.217  51.309  1.00  0.00     0.083 A 
HETATM   14 CL1  UNL     1      18.752   2.975  51.840  1.00  0.00    -0.080 Cl
HETATM   15  C9  UNL     1      20.590   4.264  50.436  1.00  0.00     0.058 A 
HETATM   16 CL2  UNL     1      19.269   5.287  49.889  1.00  0.00    -0.082 Cl
HETATM   17  C10 UNL     1      21.852   4.528  49.967  1.00  0.00     0.026 A 
HETATM   18  C11 UNL     1      22.886   3.723  50.399  1.00  0.00     0.016 A 
HETATM   19  O1  UNL     1      22.689  -0.912  54.133  1.00  0.00    -0.266 OA
HETATM   20  N3  UNL     1      24.760  -0.332  53.245  1.00  0.00    -0.344 N 
HETATM   21  C14 UNL     1      25.670   0.649  52.685  1.00  0.00     0.061 C 
HETATM   22  H9  UNL     1      25.121  -1.262  53.584  1.00  0.00     0.163 HD
HETATM   23  C15 UNL     1      26.218   1.406  53.905  1.00  0.00     0.063 C 
HETATM   24  C18 UNL     1      26.855  -0.125  52.139  1.00  0.00     0.063 C 
HETATM   25  C16 UNL     1      26.598   0.384  54.968  1.00  0.00     0.272 C 
HETATM   26  N4  UNL     1      27.365  -0.701  54.434  1.00  0.00     0.083 N 
HETATM   27  C17 UNL     1      27.951  -0.312  53.176  1.00  0.00     0.272 C 
HETATM   28  H14 UNL     1      28.165  -0.972  55.076  1.00  0.00     0.315 HD
ENDBRANCH   3   5
TORSDOF 1
ENDMDL
MODEL 2
REMARK VINA RESULT:      -8.5      2.177      3.921
REMARK  1 active torsions:
REMARK  status: ('A' for Active; 'I' for Inactive)
REMARK    1  A    between atoms: N1_3  and  C3_4 
ROOT
HETATM    1  C1  UNL     1      22.092  -1.115  55.020  1.00  0.00     0.037 C 
HETATM    2  C2  UNL     1      22.953  -0.849  54.195  1.00  0.00    -0.005 C 
HETATM    3  N1  UNL     1      23.929  -0.542  53.236  1.00  0.00    -0.339 N 
HETATM    4  H2  UNL     1      24.157  -1.356  52.597  1.00  0.00     0.170 HD
ENDROOT
BRANCH   3   5
HETATM    5  C3  UNL     1      24.514   0.782  53.198  1.00  0.00     0.155 C 
HETATM    6  C4  UNL     1      24.087   1.509  51.984  1.00  0.00     0.013 A 
HETATM    7  C5  UNL     1      24.885   2.295  51.198  1.00  0.00     0.112 A 
HETATM    8  C12 UNL     1      22.855   1.577  51.370  1.00  0.00     0.004 A 
HETATM    9  N2  UNL     1      24.210   2.824  50.162  1.00  0.00    -0.344 N 
HETATM   10  C13 UNL     1      26.307   2.464  51.558  1.00  0.00     0.269 C 
HETATM   11  C6  UNL     1      24.700   3.702  49.114  1.00  0.00     0.157 C 
HETATM   12  C7  UNL     1      22.965   2.389  50.259  1.00  0.00     0.069 A 
HETATM   13  C8  UNL     1      21.849   2.630  49.448  1.00  0.00     0.083 A 
HETATM   14 CL1  UNL     1      21.899   3.647  48.020  1.00  0.00    -0.080 Cl
HETATM   15  C9  UNL     1      20.623   2.074  49.726  1.00  0.00     0.058 A 
HETATM   16 CL2  UNL     1      19.204   2.359  48.726  1.00  0.00    -0.082 Cl
HETATM   17  C10 UNL     1      20.489   1.264  50.825  1.00  0.00     0.026 A 
HETATM   18  C11 UNL     1      21.605   1.043  51.607  1.00  0.00     0.016 A 
HETATM   19  O1  UNL     1      27.125   3.164  50.903  1.00  0.00    -0.266 OA
HETATM   20  N3  UNL     1      26.731   1.772  52.726  1.00  0.00    -0.344 N 
HETATM   21  C14 UNL     1      25.987   0.705  53.369  1.00  0.00     0.061 C 
HETATM   22  H9  UNL     1      27.656   2.088  53.118  1.00  0.00     0.163 HD
HETATM   23  C15 UNL     1      26.578  -0.585  52.781  1.00  0.00     0.063 C 
HETATM   24  C18 UNL     1      26.412   0.702  54.826  1.00  0.00     0.063 C 
HETATM   25  C16 UNL     1      28.096  -0.462  52.792  1.00  0.00     0.272 C 
HETATM   26  N4  UNL     1      28.597   0.009  54.048  1.00  0.00     0.083 N 
HETATM   27  C17 UNL     1      27.610  -0.200  55.077  1.00  0.00     0.272 C 
HETATM   28  H14 UNL     1      29.470  -0.515  54.347  1.00  0.00     0.315 HD
ENDBRANCH   3   5
TORSDOF 1
ENDMDL
MODEL 3
REMARK VINA RESULT:      -8.5      3.510      6.868
REMARK  1 active torsions:
REMARK  status: ('A' for Active; 'I' for Inactive)
REMARK    1  A    between atoms: N1_3  and  C3_4 
ROOT
HETATM    1  C1  UNL     1      21.136  -1.969  54.541  1.00  0.00     0.037 C 
HETATM    2  C2  UNL     1      21.313  -0.843  54.097  1.00  0.00    -0.005 C 
HETATM    3  N1  UNL     1      21.530   0.448  53.596  1.00  0.00    -0.339 N 
HETATM    4  H2  UNL     1      21.333   1.209  54.306  1.00  0.00     0.170 HD
ENDROOT
BRANCH   3   5
HETATM    5  C3  UNL     1      21.978   0.628  52.231  1.00  0.00     0.155 C 
HETATM    6  C4  UNL     1      23.371   1.121  52.198  1.00  0.00     0.013 A 
HETATM    7  C5  UNL     1      23.860   2.085  51.360  1.00  0.00     0.112 A 
HETATM    8  C12 UNL     1      24.466   0.761  52.955  1.00  0.00     0.004 A 
HETATM    9  N2  UNL     1      25.169   2.320  51.567  1.00  0.00    -0.344 N 
HETATM   10  C13 UNL     1      22.952   2.716  50.381  1.00  0.00     0.269 C 
HETATM   11  C6  UNL     1      26.040   3.262  50.887  1.00  0.00     0.157 C 
HETATM   12  C7  UNL     1      25.548   1.513  52.544  1.00  0.00     0.069 A 
HETATM   13  C8  UNL     1      26.797   1.344  53.153  1.00  0.00     0.083 A 
HETATM   14 CL1  UNL     1      28.223   2.256  52.695  1.00  0.00    -0.080 Cl
HETATM   15  C9  UNL     1      26.986   0.436  54.168  1.00  0.00     0.058 A 
HETATM   16 CL2  UNL     1      28.543   0.202  54.953  1.00  0.00    -0.082 Cl
HETATM   17  C10 UNL     1      25.925  -0.323  54.594  1.00  0.00     0.026 A 
HETATM   18  C11 UNL     1      24.706  -0.135  53.975  1.00  0.00     0.016 A 
HETATM   19  O1  UNL     1      23.301   3.611  49.565  1.00  0.00    -0.266 OA
HETATM   20  N3  UNL     1      21.609   2.249  50.400  1.00  0.00    -0.344 N 
HETATM   21  C14 UNL     1      21.020   1.474  51.476  1.00  0.00     0.061 C 
HETATM   22  H9  UNL     1      21.037   2.507  49.553  1.00  0.00     0.163 HD
HETATM   23  C15 UNL     1      20.330   2.516  52.368  1.00  0.00     0.063 C 
HETATM   24  C18 UNL     1      19.887   0.674  50.860  1.00  0.00     0.063 C 
HETATM   25  C16 UNL     1      19.558   3.475  51.472  1.00  0.00     0.272 C 
HETATM   26  N4  UNL     1      18.775   2.792  50.487  1.00  0.00     0.083 N 
HETATM   27  C17 UNL     1      18.565   1.424  50.893  1.00  0.00     0.272 C 
HETATM   28  H14 UNL     1      17.815   3.230  50.373  1.00  0.00     0.315 HD
ENDBRANCH   3   5
TORSDOF 1
ENDMDL
MODEL 4
REMARK VINA RESULT:      -8.4      2.398      3.284
REMARK  1 active torsions:
REMARK  status: ('A' for Active; 'I' for Inactive)
REMARK    1  A    between atoms: N1_3  and  C3_4 
ROOT
HETATM    1  C1  UNL     1      22.792   3.410  48.267  1.00  0.00     0.037 C 
HETATM    2  C2  UNL     1      22.810   3.101  49.450  1.00  0.00    -0.005 C 
HETATM    3  N1  UNL     1      22.814   2.745  50.806  1.00  0.00    -0.339 N 
HETATM    4  H2  UNL     1      22.468   3.520  51.442  1.00  0.00     0.170 HD
ENDROOT
BRANCH   3   5
HETATM    5  C3  UNL     1      23.264   1.429  51.207  1.00  0.00     0.155 C 
HETATM    6  C4  UNL     1      22.169   0.675  51.854  1.00  0.00     0.013 A 
HETATM    7  C5  UNL     1      22.287  -0.113  52.965  1.00  0.00     0.112 A 
HETATM    8  C12 UNL     1      20.834   0.581  51.527  1.00  0.00     0.004 A 
HETATM    9  N2  UNL     1      21.114  -0.669  53.319  1.00  0.00    -0.344 N 
HETATM   10  C13 UNL     1      23.609  -0.258  53.608  1.00  0.00     0.269 C 
HETATM   11  C6  UNL     1      20.830  -1.558  54.431  1.00  0.00     0.157 C 
HETATM   12  C7  UNL     1      20.217  -0.248  52.442  1.00  0.00     0.069 A 
HETATM   13  C8  UNL     1      18.847  -0.517  52.340  1.00  0.00     0.083 A 
HETATM   14 CL1  UNL     1      17.984  -1.557  53.458  1.00  0.00    -0.080 Cl
HETATM   15  C9  UNL     1      18.079   0.027  51.338  1.00  0.00     0.058 A 
HETATM   16 CL2  UNL     1      16.356  -0.292  51.184  1.00  0.00    -0.082 Cl
HETATM   17  C10 UNL     1      18.670   0.854  50.416  1.00  0.00     0.026 A 
HETATM   18  C11 UNL     1      20.021   1.103  50.542  1.00  0.00     0.016 A 
HETATM   19  O1  UNL     1      23.825  -0.959  54.633  1.00  0.00    -0.266 OA
HETATM   20  N3  UNL     1      24.672   0.459  52.994  1.00  0.00    -0.344 N 
HETATM   21  C14 UNL     1      24.497   1.527  52.028  1.00  0.00     0.061 C 
HETATM   22  H9  UNL     1      25.638   0.161  53.291  1.00  0.00     0.163 HD
HETATM   23  C15 UNL     1      24.542   2.814  52.865  1.00  0.00     0.063 C 
HETATM   24  C18 UNL     1      25.762   1.561  51.190  1.00  0.00     0.063 C 
HETATM   25  C16 UNL     1      25.710   2.711  53.835  1.00  0.00     0.272 C 
HETATM   26  N4  UNL     1      26.913   2.268  53.198  1.00  0.00     0.083 N 
HETATM   27  C17 UNL     1      26.820   2.482  51.776  1.00  0.00     0.272 C 
HETATM   28  H14 UNL     1      27.761   2.808  53.536  1.00  0.00     0.315 HD
ENDBRANCH   3   5
TORSDOF 1
ENDMDL
MODEL 5
REMARK VINA RESULT:      -8.2      3.237      6.177
REMARK  1 active torsions:
REMARK  status: ('A' for Active; 'I' for Inactive)
REMARK    1  A    between atoms: N1_3  and  C3_4 
ROOT
HETATM    1  C1  UNL     1      19.455   4.362  50.492  1.00  0.00     0.037 C 
HETATM    2  C2  UNL     1      20.630   4.431  50.822  1.00  0.00    -0.005 C 
HETATM    3  N1  UNL     1      21.975   4.499  51.211  1.00  0.00    -0.339 N 
HETATM    4  H2  UNL     1      22.122   5.037  52.113  1.00  0.00     0.170 HD
ENDROOT
BRANCH   3   5
HETATM    5  C3  UNL     1      22.995   3.867  50.402  1.00  0.00     0.155 C 
HETATM    6  C4  UNL     1      23.704   2.823  51.172  1.00  0.00     0.013 A 
HETATM    7  C5  UNL     1      25.052   2.590  51.154  1.00  0.00     0.112 A 
HETATM    8  C12 UNL     1      23.221   1.878  52.051  1.00  0.00     0.004 A 
HETATM    9  N2  UNL     1      25.400   1.572  51.961  1.00  0.00    -0.344 N 
HETATM   10  C13 UNL     1      25.916   3.430  50.300  1.00  0.00     0.269 C 
HETATM   11  C6  UNL     1      26.722   1.026  52.214  1.00  0.00     0.157 C 
HETATM   12  C7  UNL     1      24.284   1.129  52.515  1.00  0.00     0.069 A 
HETATM   13  C8  UNL     1      24.070   0.091  53.429  1.00  0.00     0.083 A 
HETATM   14 CL1  UNL     1      25.360  -0.909  54.071  1.00  0.00    -0.080 Cl
HETATM   15  C9  UNL     1      22.811  -0.216  53.890  1.00  0.00     0.058 A 
HETATM   16 CL2  UNL     1      22.511  -1.514  55.038  1.00  0.00    -0.082 Cl
HETATM   17  C10 UNL     1      21.739   0.514  53.442  1.00  0.00     0.026 A 
HETATM   18  C11 UNL     1      21.979   1.532  52.542  1.00  0.00     0.016 A 
HETATM   19  O1  UNL     1      27.167   3.299  50.211  1.00  0.00    -0.266 OA
HETATM   20  N3  UNL     1      25.247   4.437  49.552  1.00  0.00    -0.344 N 
HETATM   21  C14 UNL     1      23.891   4.888  49.803  1.00  0.00     0.061 C 
HETATM   22  H9  UNL     1      25.813   4.858  48.769  1.00  0.00     0.163 HD
HETATM   23  C15 UNL     1      24.057   6.121  50.703  1.00  0.00     0.063 C 
HETATM   24  C18 UNL     1      23.368   5.432  48.486  1.00  0.00     0.063 C 
HETATM   25  C16 UNL     1      25.162   6.992  50.120  1.00  0.00     0.272 C 
HETATM   26  N4  UNL     1      25.017   7.189  48.710  1.00  0.00     0.083 N 
HETATM   27  C17 UNL     1      23.658   6.914  48.316  1.00  0.00     0.272 C 
HETATM   28  H14 UNL     1      25.223   8.191  48.428  1.00  0.00     0.315 HD
ENDBRANCH   3   5
TORSDOF 1
ENDMDL
MODEL 6
REMARK VINA RESULT:      -8.2      3.338      6.227
REMARK  1 active torsions:
REMARK  status: ('A' for Active; 'I' for Inactive)
REMARK    1  A    between atoms: N1_3  and  C3_4 
ROOT
HETATM    1  C1  UNL     1      26.353   6.213  48.969  1.00  0.00     0.037 C 
HETATM    2  C2  UNL     1      25.361   5.531  49.177  1.00  0.00    -0.005 C 
HETATM    3  N1  UNL     1      24.232   4.735  49.420  1.00  0.00    -0.339 N 
HETATM    4  H2  UNL     1      23.999   4.087  48.615  1.00  0.00     0.170 HD
ENDROOT
BRANCH   3   5
HETATM    5  C3  UNL     1      23.519   4.854  50.674  1.00  0.00     0.155 C 
HETATM    6  C4  UNL     1      23.528   3.570  51.406  1.00  0.00     0.013 A 
HETATM    7  C5  UNL     1      22.470   3.026  52.082  1.00  0.00     0.112 A 
HETATM    8  C12 UNL     1      24.537   2.649  51.584  1.00  0.00     0.004 A 
HETATM    9  N2  UNL     1      22.784   1.847  52.648  1.00  0.00    -0.344 N 
HETATM   10  C13 UNL     1      21.185   3.753  52.113  1.00  0.00     0.269 C 
HETATM   11  C6  UNL     1      21.941   0.968  53.440  1.00  0.00     0.157 C 
HETATM   12  C7  UNL     1      24.050   1.608  52.348  1.00  0.00     0.069 A 
HETATM   13  C8  UNL     1      24.877   0.529  52.679  1.00  0.00     0.083 A 
HETATM   14 CL1  UNL     1      24.340  -0.835  53.643  1.00  0.00    -0.080 Cl
HETATM   15  C9  UNL     1      26.186   0.468  52.262  1.00  0.00     0.058 A 
HETATM   16 CL2  UNL     1      27.249  -0.874  52.663  1.00  0.00    -0.082 Cl
HETATM   17  C10 UNL     1      26.693   1.492  51.503  1.00  0.00     0.026 A 
HETATM   18  C11 UNL     1      25.855   2.543  51.190  1.00  0.00     0.016 A 
HETATM   19  O1  UNL     1      20.151   3.341  52.705  1.00  0.00    -0.266 OA
HETATM   20  N3  UNL     1      21.163   4.991  51.414  1.00  0.00    -0.344 N 
HETATM   21  C14 UNL     1      22.162   5.413  50.450  1.00  0.00     0.061 C 
HETATM   22  H9  UNL     1      20.347   5.617  51.644  1.00  0.00     0.163 HD
HETATM   23  C15 UNL     1      21.579   5.004  49.089  1.00  0.00     0.063 C 
HETATM   24  C18 UNL     1      22.142   6.930  50.445  1.00  0.00     0.063 C 
HETATM   25  C16 UNL     1      20.114   5.421  49.054  1.00  0.00     0.272 C 
HETATM   26  N4  UNL     1      19.917   6.764  49.507  1.00  0.00     0.083 N 
HETATM   27  C17 UNL     1      21.159   7.492  49.431  1.00  0.00     0.272 C 
HETATM   28  H14 UNL     1      19.217   7.286  48.903  1.00  0.00     0.315 HD
ENDBRANCH   3   5
TORSDOF 1
ENDMDL
MODEL 7
REMARK VINA RESULT:      -8.0      2.569      4.460
REMARK  1 active torsions:
REMARK  status: ('A' for Active; 'I' for Inactive)
REMARK    1  A    between atoms: N1_3  and  C3_4 
ROOT
HETATM    1  C1  UNL     1      26.547   1.261  53.909  1.00  0.00     0.037 C 
HETATM    2  C2  UNL     1      25.396   1.508  53.580  1.00  0.00    -0.005 C 
HETATM    3  N1  UNL     1      24.081   1.805  53.194  1.00  0.00    -0.339 N 
HETATM    4  H2  UNL     1      23.636   2.567  53.782  1.00  0.00     0.170 HD
ENDROOT
BRANCH   3   5
HETATM    5  C3  UNL     1      23.472   1.091  52.092  1.00  0.00     0.155 C 
HETATM    6  C4  UNL     1      23.148   2.015  50.984  1.00  0.00     0.013 A 
HETATM    7  C5  UNL     1      22.005   1.997  50.234  1.00  0.00     0.112 A 
HETATM    8  C12 UNL     1      23.868   3.066  50.457  1.00  0.00     0.004 A 
HETATM    9  N2  UNL     1      21.998   2.964  49.298  1.00  0.00    -0.344 N 
HETATM   10  C13 UNL     1      20.974   0.979  50.517  1.00  0.00     0.269 C 
HETATM   11  C6  UNL     1      20.972   3.270  48.317  1.00  0.00     0.157 C 
HETATM   12  C7  UNL     1      23.136   3.624  49.428  1.00  0.00     0.069 A 
HETATM   13  C8  UNL     1      23.642   4.718  48.716  1.00  0.00     0.083 A 
HETATM   14 CL1  UNL     1      22.781   5.489  47.396  1.00  0.00    -0.080 Cl
HETATM   15  C9  UNL     1      24.868   5.267  49.011  1.00  0.00     0.058 A 
HETATM   16 CL2  UNL     1      25.529   6.640  48.134  1.00  0.00    -0.082 Cl
HETATM   17  C10 UNL     1      25.613   4.728  50.030  1.00  0.00     0.026 A 
HETATM   18  C11 UNL     1      25.090   3.651  50.715  1.00  0.00     0.016 A 
HETATM   19  O1  UNL     1      19.887   0.875  49.887  1.00  0.00    -0.266 OA
HETATM   20  N3  UNL     1      21.274   0.081  51.579  1.00  0.00    -0.344 N 
HETATM   21  C14 UNL     1      22.317   0.289  52.566  1.00  0.00     0.061 C 
HETATM   22  H9  UNL     1      20.671  -0.783  51.613  1.00  0.00     0.163 HD
HETATM   23  C15 UNL     1      21.597   0.945  53.754  1.00  0.00     0.063 C 
HETATM   24  C18 UNL     1      22.719  -1.087  53.063  1.00  0.00     0.063 C 
HETATM   25  C16 UNL     1      20.305   0.179  54.010  1.00  0.00     0.272 C 
HETATM   26  N4  UNL     1      20.505  -1.238  54.029  1.00  0.00     0.083 N 
HETATM   27  C17 UNL     1      21.897  -1.532  54.262  1.00  0.00     0.272 C 
HETATM   28  H14 UNL     1      19.957  -1.703  54.810  1.00  0.00     0.315 HD
ENDBRANCH   3   5
TORSDOF 1
ENDMDL
MODEL 8
REMARK VINA RESULT:      -7.5      3.255      6.167
REMARK  1 active torsions:
REMARK  status: ('A' for Active; 'I' for Inactive)
REMARK    1  A    between atoms: N1_3  and  C3_4 
ROOT
HETATM    1  C1  UNL     1      22.996   4.890  48.486  1.00  0.00     0.037 C 
HETATM    2  C2  UNL     1      22.654   3.839  49.010  1.00  0.00    -0.005 C 
HETATM    3  N1  UNL     1      22.278   2.631  49.614  1.00  0.00    -0.339 N 
HETATM    4  H2  UNL     1      22.460   1.785  49.003  1.00  0.00     0.170 HD
ENDROOT
BRANCH   3   5
HETATM    5  C3  UNL     1      21.706   2.635  50.944  1.00  0.00     0.155 C 
HETATM    6  C4  UNL     1      22.467   1.744  51.845  1.00  0.00     0.013 A 
HETATM    7  C5  UNL     1      21.930   0.893  52.772  1.00  0.00     0.112 A 
HETATM    8  C12 UNL     1      23.826   1.551  51.973  1.00  0.00     0.004 A 
HETATM    9  N2  UNL     1      22.877   0.211  53.441  1.00  0.00    -0.344 N 
HETATM   10  C13 UNL     1      20.463   0.829  52.925  1.00  0.00     0.269 C 
HETATM   11  C6  UNL     1      22.710  -0.778  54.492  1.00  0.00     0.157 C 
HETATM   12  C7  UNL     1      24.042   0.608  52.957  1.00  0.00     0.069 A 
HETATM   13  C8  UNL     1      25.346   0.223  53.292  1.00  0.00     0.083 A 
HETATM   14 CL1  UNL     1      25.712  -0.967  54.527  1.00  0.00    -0.080 Cl
HETATM   15  C9  UNL     1      26.441   0.764  52.661  1.00  0.00     0.058 A 
HETATM   16 CL2  UNL     1      28.090   0.301  53.059  1.00  0.00    -0.082 Cl
HETATM   17  C10 UNL     1      26.251   1.704  51.679  1.00  0.00     0.026 A 
HETATM   18  C11 UNL     1      24.955   2.064  51.370  1.00  0.00     0.016 A 
HETATM   19  O1  UNL     1      19.868   0.081  53.747  1.00  0.00    -0.266 OA
HETATM   20  N3  UNL     1      19.718   1.684  52.066  1.00  0.00    -0.344 N 
HETATM   21  C14 UNL     1      20.253   2.338  50.887  1.00  0.00     0.061 C 
HETATM   22  H9  UNL     1      18.711   1.824  52.343  1.00  0.00     0.163 HD
HETATM   23  C15 UNL     1      19.894   1.396  49.728  1.00  0.00     0.063 C 
HETATM   24  C18 UNL     1      19.406   3.577  50.661  1.00  0.00     0.063 C 
HETATM   25  C16 UNL     1      18.442   0.968  49.894  1.00  0.00     0.272 C 
HETATM   26  N4  UNL     1      17.575   2.072  50.171  1.00  0.00     0.083 N 
HETATM   27  C17 UNL     1      18.207   3.303  49.768  1.00  0.00     0.272 C 
HETATM   28  H14 UNL     1      16.663   2.003  49.633  1.00  0.00     0.315 HD
ENDBRANCH   3   5
TORSDOF 1
ENDMDL
MODEL 9
REMARK VINA RESULT:      -7.4      7.429     10.388
REMARK  1 active torsions:
REMARK  status: ('A' for Active; 'I' for Inactive)
REMARK    1  A    between atoms: N1_3  and  C3_4 
ROOT
HETATM    1  C1  UNL     1      32.760   3.603  47.818  1.00  0.00     0.037 C 
HETATM    2  C2  UNL     1      32.236   4.662  47.505  1.00  0.00    -0.005 C 
HETATM    3  N1  UNL     1      31.619   5.870  47.148  1.00  0.00    -0.339 N 
HETATM    4  H2  UNL     1      31.246   5.870  46.156  1.00  0.00     0.170 HD
ENDROOT
BRANCH   3   5
HETATM    5  C3  UNL     1      31.546   6.954  48.104  1.00  0.00     0.155 C 
HETATM    6  C4  UNL     1      30.143   7.361  48.329  1.00  0.00     0.013 A 
HETATM    7  C5  UNL     1      29.690   8.647  48.443  1.00  0.00     0.112 A 
HETATM    8  C12 UNL     1      29.003   6.599  48.471  1.00  0.00     0.004 A 
HETATM    9  N2  UNL     1      28.360   8.699  48.644  1.00  0.00    -0.344 N 
HETATM   10  C13 UNL     1      30.653   9.761  48.342  1.00  0.00     0.269 C 
HETATM   11  C6  UNL     1      27.513   9.866  48.811  1.00  0.00     0.157 C 
HETATM   12  C7  UNL     1      27.932   7.448  48.662  1.00  0.00     0.069 A 
HETATM   13  C8  UNL     1      26.643   6.929  48.836  1.00  0.00     0.083 A 
HETATM   14 CL1  UNL     1      25.226   7.933  49.083  1.00  0.00    -0.080 Cl
HETATM   15  C9  UNL     1      26.403   5.575  48.823  1.00  0.00     0.058 A 
HETATM   16 CL2  UNL     1      24.796   4.894  49.038  1.00  0.00    -0.082 Cl
HETATM   17  C10 UNL     1      27.453   4.712  48.635  1.00  0.00     0.026 A 
HETATM   18  C11 UNL     1      28.712   5.251  48.466  1.00  0.00     0.016 A 
HETATM   19  O1  UNL     1      30.341  10.979  48.432  1.00  0.00    -0.266 OA
HETATM   20  N3  UNL     1      32.007   9.384  48.128  1.00  0.00    -0.344 N 
HETATM   21  C14 UNL     1      32.440   8.068  47.697  1.00  0.00     0.061 C 
HETATM   22  H9  UNL     1      32.714  10.145  48.307  1.00  0.00     0.163 HD
HETATM   23  C15 UNL     1      32.569   8.186  46.171  1.00  0.00     0.063 C 
HETATM   24  C18 UNL     1      33.861   7.896  48.198  1.00  0.00     0.063 C 
HETATM   25  C16 UNL     1      33.302   9.483  45.854  1.00  0.00     0.272 C 
HETATM   26  N4  UNL     1      34.476   9.657  46.655  1.00  0.00     0.083 N 
HETATM   27  C17 UNL     1      34.892   8.387  47.194  1.00  0.00     0.272 C 
HETATM   28  H14 UNL     1      35.290  10.033  46.087  1.00  0.00     0.315 HD
ENDBRANCH   3   5
TORSDOF 1
ENDMDL
