MODEL 1
REMARK VINA RESULT:      -7.6      0.000      0.000
REMARK  5 active torsions:
REMARK  status: ('A' for Active; 'I' for Inactive)
REMARK    1  A    between atoms: C2_2  and  C3_3 
REMARK    2  A    between atoms: C2_2  and  C6_6 
REMARK    3  A    between atoms: C10_11  and  C11_12 
REMARK    4  A    between atoms: C13_15  and  N2_16 
REMARK       I    between atoms: N2_16  and  C14_17 
REMARK    5  A    between atoms: C14_17  and  C15_19 
ROOT
HETATM    1  C3  UNL     1      26.489   5.251  49.168  1.00  0.00    -0.071 C 
HETATM    2  C4  UNL     1      27.594   5.220  48.686  1.00  0.00    -0.106 C 
HETATM    3  C5  UNL     1      28.928   5.204  48.089  1.00  0.00     0.112 C 
ENDROOT
BRANCH   1   4
HETATM    4  C2  UNL     1      25.186   5.298  49.759  1.00  0.00     0.004 C 
HETATM    5  C1  UNL     1      24.851   6.341  50.492  1.00  0.00     0.054 C 
BRANCH   4   6
HETATM    6  C6  UNL     1      24.177   4.263  49.613  1.00  0.00    -0.014 A 
HETATM    7  C7  UNL     1      23.480   4.325  48.490  1.00  0.00     0.125 A 
HETATM    8  N1  UNL     1      22.442   3.437  48.109  1.00  0.00    -0.272 NA
HETATM    9  C8  UNL     1      22.136   2.481  48.911  1.00  0.00     0.125 A 
HETATM   10  C9  UNL     1      22.868   2.360  50.168  1.00  0.00    -0.015 A 
HETATM   11  C10 UNL     1      22.481   1.368  50.938  1.00  0.00    -0.007 C 
HETATM   12  C19 UNL     1      23.945   3.208  50.628  1.00  0.00     0.082 A 
HETATM   13  S1  UNL     1      23.438   1.277  52.473  1.00  0.00    -0.077 SA
HETATM   14  C13 UNL     1      25.135   1.616  51.975  1.00  0.00     0.074 C 
HETATM   15  C18 UNL     1      25.181   2.570  51.087  1.00  0.00     0.025 C 
BRANCH  11  16
HETATM   16  C11 UNL     1      21.456   0.336  50.814  1.00  0.00     0.042 C 
HETATM   17  C12 UNL     1      20.737   0.140  52.157  1.00  0.00     0.010 C 
ENDBRANCH  11  16
BRANCH  14  18
HETATM   18  N2  UNL     1      26.181   0.867  52.556  1.00  0.00    -0.318 N 
HETATM   19  C14 UNL     1      27.041   1.185  53.635  1.00  0.00     0.245 C 
HETATM   20  O1  UNL     1      26.891   2.294  54.196  1.00  0.00    -0.268 OA
HETATM   21  H13 UNL     1      26.391  -0.078  52.160  1.00  0.00     0.169 HD
BRANCH  19  22
HETATM   22  C15 UNL     1      28.085   0.290  54.118  1.00  0.00     0.070 C 
HETATM   23  C16 UNL     1      28.784  -0.510  53.330  1.00  0.00    -0.026 C 
HETATM   24  C17 UNL     1      29.857  -1.433  53.816  1.00  0.00     0.036 C 
ENDBRANCH  19  22
ENDBRANCH  14  18
ENDBRANCH   4   6
ENDBRANCH   1   4
TORSDOF 5
ENDMDL
MODEL 2
REMARK VINA RESULT:      -7.5      2.866      6.249
REMARK  5 active torsions:
REMARK  status: ('A' for Active; 'I' for Inactive)
REMARK    1  A    between atoms: C2_2  and  C3_3 
REMARK    2  A    between atoms: C2_2  and  C6_6 
REMARK    3  A    between atoms: C10_11  and  C11_12 
REMARK    4  A    between atoms: C13_15  and  N2_16 
REMARK       I    between atoms: N2_16  and  C14_17 
REMARK    5  A    between atoms: C14_17  and  C15_19 
ROOT
HETATM    1  C3  UNL     1      27.127   0.469  53.458  1.00  0.00    -0.071 C 
HETATM    2  C4  UNL     1      27.899   1.382  53.614  1.00  0.00    -0.106 C 
HETATM    3  C5  UNL     1      28.846   2.476  53.822  1.00  0.00     0.112 C 
ENDROOT
BRANCH   1   4
HETATM    4  C2  UNL     1      26.224  -0.623  53.253  1.00  0.00     0.004 C 
HETATM    5  C1  UNL     1      26.660  -1.714  52.655  1.00  0.00     0.054 C 
BRANCH   4   6
HETATM    6  C6  UNL     1      24.830  -0.627  53.664  1.00  0.00    -0.014 A 
HETATM    7  C7  UNL     1      24.604  -1.178  54.846  1.00  0.00     0.125 A 
HETATM    8  N1  UNL     1      23.337  -1.307  55.470  1.00  0.00    -0.272 NA
HETATM    9  C8  UNL     1      22.306  -0.856  54.851  1.00  0.00     0.125 A 
HETATM   10  C9  UNL     1      22.490  -0.238  53.542  1.00  0.00    -0.015 A 
HETATM   11  C10 UNL     1      21.384   0.179  52.968  1.00  0.00    -0.007 C 
HETATM   12  C19 UNL     1      23.741  -0.053  52.839  1.00  0.00     0.082 A 
HETATM   13  S1  UNL     1      21.692   0.939  51.353  1.00  0.00    -0.077 SA
HETATM   14  C13 UNL     1      23.186   1.918  51.585  1.00  0.00     0.074 C 
HETATM   15  C18 UNL     1      24.053   1.281  52.322  1.00  0.00     0.025 C 
BRANCH  11  16
HETATM   16  C11 UNL     1      19.977   0.161  53.358  1.00  0.00     0.042 C 
HETATM   17  C12 UNL     1      19.087  -0.027  52.121  1.00  0.00     0.010 C 
ENDBRANCH  11  16
BRANCH  14  18
HETATM   18  N2  UNL     1      23.268   3.193  50.986  1.00  0.00    -0.318 N 
HETATM   19  C14 UNL     1      22.983   4.473  51.522  1.00  0.00     0.245 C 
HETATM   20  O1  UNL     1      22.593   4.537  52.709  1.00  0.00    -0.268 OA
HETATM   21  H13 UNL     1      23.585   3.252  49.991  1.00  0.00     0.169 HD
BRANCH  19  22
HETATM   22  C15 UNL     1      23.121   5.708  50.761  1.00  0.00     0.070 C 
HETATM   23  C16 UNL     1      23.904   6.709  51.128  1.00  0.00    -0.026 C 
HETATM   24  C17 UNL     1      24.052   7.982  50.354  1.00  0.00     0.036 C 
ENDBRANCH  19  22
ENDBRANCH  14  18
ENDBRANCH   4   6
ENDBRANCH   1   4
TORSDOF 5
ENDMDL
MODEL 3
REMARK VINA RESULT:      -7.4      1.852      5.012
REMARK  5 active torsions:
REMARK  status: ('A' for Active; 'I' for Inactive)
REMARK    1  A    between atoms: C2_2  and  C3_3 
REMARK    2  A    between atoms: C2_2  and  C6_6 
REMARK    3  A    between atoms: C10_11  and  C11_12 
REMARK    4  A    between atoms: C13_15  and  N2_16 
REMARK       I    between atoms: N2_16  and  C14_17 
REMARK    5  A    between atoms: C14_17  and  C15_19 
ROOT
HETATM    1  C3  UNL     1      21.830   0.323  52.497  1.00  0.00    -0.071 C 
HETATM    2  C4  UNL     1      21.871  -0.340  53.503  1.00  0.00    -0.106 C 
HETATM    3  C5  UNL     1      21.902  -1.129  54.733  1.00  0.00     0.112 C 
ENDROOT
BRANCH   1   4
HETATM    4  C2  UNL     1      21.769   1.093  51.291  1.00  0.00     0.004 C 
HETATM    5  C1  UNL     1      21.255   0.547  50.207  1.00  0.00     0.054 C 
BRANCH   4   6
HETATM    6  C6  UNL     1      22.238   2.462  51.163  1.00  0.00    -0.014 A 
HETATM    7  C7  UNL     1      21.340   3.384  51.469  1.00  0.00     0.125 A 
HETATM    8  N1  UNL     1      21.546   4.787  51.426  1.00  0.00    -0.272 NA
HETATM    9  C8  UNL     1      22.699   5.221  51.059  1.00  0.00     0.125 A 
HETATM   10  C9  UNL     1      23.731   4.252  50.706  1.00  0.00    -0.015 A 
HETATM   11  C10 UNL     1      24.873   4.778  50.324  1.00  0.00    -0.007 C 
HETATM   12  C19 UNL     1      23.613   2.810  50.735  1.00  0.00     0.082 A 
HETATM   13  S1  UNL     1      26.106   3.516  49.910  1.00  0.00    -0.077 SA
HETATM   14  C13 UNL     1      25.906   2.249  51.174  1.00  0.00     0.074 C 
HETATM   15  C18 UNL     1      24.645   2.046  51.439  1.00  0.00     0.025 C 
BRANCH  11  16
HETATM   16  C11 UNL     1      25.350   6.148  50.168  1.00  0.00     0.042 C 
HETATM   17  C12 UNL     1      25.386   6.532  48.682  1.00  0.00     0.010 C 
ENDBRANCH  11  16
BRANCH  14  18
HETATM   18  N2  UNL     1      27.057   1.639  51.719  1.00  0.00    -0.318 N 
HETATM   19  C14 UNL     1      27.551   1.644  53.046  1.00  0.00     0.245 C 
HETATM   20  O1  UNL     1      26.901   2.276  53.910  1.00  0.00    -0.268 OA
HETATM   21  H13 UNL     1      27.672   1.086  51.079  1.00  0.00     0.169 HD
BRANCH  19  22
HETATM   22  C15 UNL     1      28.770   0.956  53.449  1.00  0.00     0.070 C 
HETATM   23  C16 UNL     1      28.882  -0.362  53.502  1.00  0.00    -0.026 C 
HETATM   24  C17 UNL     1      30.130  -1.078  53.915  1.00  0.00     0.036 C 
ENDBRANCH  19  22
ENDBRANCH  14  18
ENDBRANCH   4   6
ENDBRANCH   1   4
TORSDOF 5
ENDMDL
MODEL 4
REMARK VINA RESULT:      -7.3      2.722      6.163
REMARK  5 active torsions:
REMARK  status: ('A' for Active; 'I' for Inactive)
REMARK    1  A    between atoms: C2_2  and  C3_3 
REMARK    2  A    between atoms: C2_2  and  C6_6 
REMARK    3  A    between atoms: C10_11  and  C11_12 
REMARK    4  A    between atoms: C13_15  and  N2_16 
REMARK       I    between atoms: N2_16  and  C14_17 
REMARK    5  A    between atoms: C14_17  and  C15_19 
ROOT
HETATM    1  C3  UNL     1      26.853   2.303  51.624  1.00  0.00    -0.071 C 
HETATM    2  C4  UNL     1      26.739   2.964  50.622  1.00  0.00    -0.106 C 
HETATM    3  C5  UNL     1      26.579   3.756  49.404  1.00  0.00     0.112 C 
ENDROOT
BRANCH   1   4
HETATM    4  C2  UNL     1      26.983   1.537  52.827  1.00  0.00     0.004 C 
HETATM    5  C1  UNL     1      28.128   1.557  53.479  1.00  0.00     0.054 C 
BRANCH   4   6
HETATM    6  C6  UNL     1      25.927   0.721  53.402  1.00  0.00    -0.014 A 
HETATM    7  C7  UNL     1      26.304  -0.030  54.424  1.00  0.00     0.125 A 
HETATM    8  N1  UNL     1      25.469  -0.912  55.156  1.00  0.00    -0.272 NA
HETATM    9  C8  UNL     1      24.234  -1.005  54.812  1.00  0.00     0.125 A 
HETATM   10  C9  UNL     1      23.758  -0.202  53.691  1.00  0.00    -0.015 A 
HETATM   11  C10 UNL     1      22.489  -0.370  53.392  1.00  0.00    -0.007 C 
HETATM   12  C19 UNL     1      24.533   0.729  52.901  1.00  0.00     0.082 A 
HETATM   13  S1  UNL     1      21.969   0.663  51.998  1.00  0.00    -0.077 SA
HETATM   14  C13 UNL     1      22.780   2.247  52.274  1.00  0.00     0.074 C 
HETATM   15  C18 UNL     1      24.000   2.080  52.704  1.00  0.00     0.025 C 
BRANCH  11  16
HETATM   16  C11 UNL     1      21.424  -1.201  53.946  1.00  0.00     0.042 C 
HETATM   17  C12 UNL     1      20.052  -0.615  53.584  1.00  0.00     0.010 C 
ENDBRANCH  11  16
BRANCH  14  18
HETATM   18  N2  UNL     1      22.066   3.436  52.014  1.00  0.00    -0.318 N 
HETATM   19  C14 UNL     1      21.925   4.173  50.813  1.00  0.00     0.245 C 
HETATM   20  O1  UNL     1      22.508   3.744  49.792  1.00  0.00    -0.268 OA
HETATM   21  H13 UNL     1      21.542   3.880  52.804  1.00  0.00     0.169 HD
BRANCH  19  22
HETATM   22  C15 UNL     1      21.142   5.397  50.712  1.00  0.00     0.070 C 
HETATM   23  C16 UNL     1      21.678   6.596  50.542  1.00  0.00    -0.026 C 
HETATM   24  C17 UNL     1      20.882   7.859  50.437  1.00  0.00     0.036 C 
ENDBRANCH  19  22
ENDBRANCH  14  18
ENDBRANCH   4   6
ENDBRANCH   1   4
TORSDOF 5
ENDMDL
MODEL 5
REMARK VINA RESULT:      -7.2      2.266      5.757
REMARK  5 active torsions:
REMARK  status: ('A' for Active; 'I' for Inactive)
REMARK    1  A    between atoms: C2_2  and  C3_3 
REMARK    2  A    between atoms: C2_2  and  C6_6 
REMARK    3  A    between atoms: C10_11  and  C11_12 
REMARK    4  A    between atoms: C13_15  and  N2_16 
REMARK       I    between atoms: N2_16  and  C14_17 
REMARK    5  A    between atoms: C14_17  and  C15_19 
ROOT
HETATM    1  C3  UNL     1      27.320   0.490  53.377  1.00  0.00    -0.071 C 
HETATM    2  C4  UNL     1      28.164   1.312  53.633  1.00  0.00    -0.106 C 
HETATM    3  C5  UNL     1      29.196   2.306  53.919  1.00  0.00     0.112 C 
ENDROOT
BRANCH   1   4
HETATM    4  C2  UNL     1      26.301  -0.469  53.070  1.00  0.00     0.004 C 
HETATM    5  C1  UNL     1      26.654  -1.674  52.668  1.00  0.00     0.054 C 
BRANCH   4   6
HETATM    6  C6  UNL     1      24.874  -0.215  53.171  1.00  0.00    -0.014 A 
HETATM    7  C7  UNL     1      24.300  -0.710  54.255  1.00  0.00     0.125 A 
HETATM    8  N1  UNL     1      22.925  -0.601  54.587  1.00  0.00    -0.272 NA
HETATM    9  C8  UNL     1      22.153   0.029  53.776  1.00  0.00     0.125 A 
HETATM   10  C9  UNL     1      22.727   0.596  52.561  1.00  0.00    -0.015 A 
HETATM   11  C10 UNL     1      21.866   1.207  51.777  1.00  0.00    -0.007 C 
HETATM   12  C19 UNL     1      24.113   0.545  52.151  1.00  0.00     0.082 A 
HETATM   13  S1  UNL     1      22.651   1.890  50.295  1.00  0.00    -0.077 SA
HETATM   14  C13 UNL     1      24.209   2.579  50.879  1.00  0.00     0.074 C 
HETATM   15  C18 UNL     1      24.766   1.797  51.762  1.00  0.00     0.025 C 
BRANCH  11  16
HETATM   16  C11 UNL     1      20.429   1.449  51.854  1.00  0.00     0.042 C 
HETATM   17  C12 UNL     1      20.056   2.691  51.032  1.00  0.00     0.010 C 
ENDBRANCH  11  16
BRANCH  14  18
HETATM   18  N2  UNL     1      24.649   3.816  50.358  1.00  0.00    -0.318 N 
HETATM   19  C14 UNL     1      25.822   4.136  49.632  1.00  0.00     0.245 C 
HETATM   20  O1  UNL     1      26.629   3.211  49.389  1.00  0.00    -0.268 OA
HETATM   21  H13 UNL     1      24.045   4.657  50.508  1.00  0.00     0.169 HD
BRANCH  19  22
HETATM   22  C15 UNL     1      26.130   5.479  49.161  1.00  0.00     0.070 C 
HETATM   23  C16 UNL     1      27.242   5.789  48.514  1.00  0.00    -0.026 C 
HETATM   24  C17 UNL     1      27.569   7.166  48.027  1.00  0.00     0.036 C 
ENDBRANCH  19  22
ENDBRANCH  14  18
ENDBRANCH   4   6
ENDBRANCH   1   4
TORSDOF 5
ENDMDL
MODEL 6
REMARK VINA RESULT:      -7.0      2.662      5.953
REMARK  5 active torsions:
REMARK  status: ('A' for Active; 'I' for Inactive)
REMARK    1  A    between atoms: C2_2  and  C3_3 
REMARK    2  A    between atoms: C2_2  and  C6_6 
REMARK    3  A    between atoms: C10_11  and  C11_12 
REMARK    4  A    between atoms: C13_15  and  N2_16 
REMARK       I    between atoms: N2_16  and  C14_17 
REMARK    5  A    between atoms: C14_17  and  C15_19 
ROOT
HETATM    1  C3  UNL     1      26.521   0.162  52.613  1.00  0.00    -0.071 C 
HETATM    2  C4  UNL     1      26.840  -0.999  52.557  1.00  0.00    -0.106 C 
HETATM    3  C5  UNL     1      27.224  -2.407  52.464  1.00  0.00     0.112 C 
ENDROOT
BRANCH   1   4
HETATM    4  C2  UNL     1      26.166   1.548  52.683  1.00  0.00     0.004 C 
HETATM    5  C1  UNL     1      26.485   2.238  53.760  1.00  0.00     0.054 C 
BRANCH   4   6
HETATM    6  C6  UNL     1      25.467   2.273  51.636  1.00  0.00    -0.014 A 
HETATM    7  C7  UNL     1      26.243   2.724  50.663  1.00  0.00     0.125 A 
HETATM    8  N1  UNL     1      25.808   3.459  49.531  1.00  0.00    -0.272 NA
HETATM    9  C8  UNL     1      24.555   3.722  49.422  1.00  0.00     0.125 A 
HETATM   10  C9  UNL     1      23.648   3.252  50.464  1.00  0.00    -0.015 A 
HETATM   11  C10 UNL     1      22.388   3.579  50.286  1.00  0.00    -0.007 C 
HETATM   12  C19 UNL     1      24.001   2.488  51.640  1.00  0.00     0.082 A 
HETATM   13  S1  UNL     1      21.323   2.958  51.613  1.00  0.00    -0.077 SA
HETATM   14  C13 UNL     1      21.938   1.300  51.955  1.00  0.00     0.074 C 
HETATM   15  C18 UNL     1      23.242   1.269  51.926  1.00  0.00     0.025 C 
BRANCH  11  16
HETATM   16  C11 UNL     1      21.676   4.326  49.253  1.00  0.00     0.042 C 
HETATM   17  C12 UNL     1      20.901   3.363  48.343  1.00  0.00     0.010 C 
ENDBRANCH  11  16
BRANCH  14  18
HETATM   18  N2  UNL     1      21.012   0.265  52.205  1.00  0.00    -0.318 N 
HETATM   19  C14 UNL     1      20.379  -0.122  53.411  1.00  0.00     0.245 C 
HETATM   20  O1  UNL     1      20.651   0.524  54.448  1.00  0.00    -0.268 OA
HETATM   21  H13 UNL     1      20.717  -0.338  51.403  1.00  0.00     0.169 HD
BRANCH  19  22
HETATM   22  C15 UNL     1      19.436  -1.229  53.501  1.00  0.00     0.070 C 
HETATM   23  C16 UNL     1      18.172  -1.145  53.118  1.00  0.00    -0.026 C 
HETATM   24  C17 UNL     1      17.195  -2.276  53.207  1.00  0.00     0.036 C 
ENDBRANCH  19  22
ENDBRANCH  14  18
ENDBRANCH   4   6
ENDBRANCH   1   4
TORSDOF 5
ENDMDL
MODEL 7
REMARK VINA RESULT:      -6.9      2.341      5.768
REMARK  5 active torsions:
REMARK  status: ('A' for Active; 'I' for Inactive)
REMARK    1  A    between atoms: C2_2  and  C3_3 
REMARK    2  A    between atoms: C2_2  and  C6_6 
REMARK    3  A    between atoms: C10_11  and  C11_12 
REMARK    4  A    between atoms: C13_15  and  N2_16 
REMARK       I    between atoms: N2_16  and  C14_17 
REMARK    5  A    between atoms: C14_17  and  C15_19 
ROOT
HETATM    1  C3  UNL     1      20.891   2.580  50.168  1.00  0.00    -0.071 C 
HETATM    2  C4  UNL     1      20.664   2.695  48.989  1.00  0.00    -0.106 C 
HETATM    3  C5  UNL     1      20.368   2.820  47.563  1.00  0.00     0.112 C 
ENDROOT
BRANCH   1   4
HETATM    4  C2  UNL     1      21.152   2.468  51.571  1.00  0.00     0.004 C 
HETATM    5  C1  UNL     1      20.587   3.323  52.400  1.00  0.00     0.054 C 
BRANCH   4   6
HETATM    6  C6  UNL     1      22.010   1.460  52.171  1.00  0.00    -0.014 A 
HETATM    7  C7  UNL     1      21.430   0.288  52.370  1.00  0.00     0.125 A 
HETATM    8  N1  UNL     1      22.047  -0.856  52.938  1.00  0.00    -0.272 NA
HETATM    9  C8  UNL     1      23.277  -0.766  53.300  1.00  0.00     0.125 A 
HETATM   10  C9  UNL     1      23.972   0.503  53.108  1.00  0.00    -0.015 A 
HETATM   11  C10 UNL     1      25.219   0.516  53.521  1.00  0.00    -0.007 C 
HETATM   12  C19 UNL     1      23.427   1.710  52.526  1.00  0.00     0.082 A 
HETATM   13  S1  UNL     1      26.017   2.118  53.244  1.00  0.00    -0.077 SA
HETATM   14  C13 UNL     1      25.446   2.639  51.618  1.00  0.00     0.074 C 
HETATM   15  C18 UNL     1      24.182   2.362  51.454  1.00  0.00     0.025 C 
BRANCH  11  16
HETATM   16  C11 UNL     1      26.085  -0.480  54.145  1.00  0.00     0.042 C 
HETATM   17  C12 UNL     1      27.177  -0.923  53.161  1.00  0.00     0.010 C 
ENDBRANCH  11  16
BRANCH  14  18
HETATM   18  N2  UNL     1      26.360   3.255  50.736  1.00  0.00    -0.318 N 
HETATM   19  C14 UNL     1      26.146   4.235  49.736  1.00  0.00     0.245 C 
HETATM   20  O1  UNL     1      24.978   4.652  49.568  1.00  0.00    -0.268 OA
HETATM   21  H13 UNL     1      27.367   2.976  50.794  1.00  0.00     0.169 HD
BRANCH  19  22
HETATM   22  C15 UNL     1      27.211   4.774  48.902  1.00  0.00     0.070 C 
HETATM   23  C16 UNL     1      27.334   6.059  48.612  1.00  0.00    -0.026 C 
HETATM   24  C17 UNL     1      28.424   6.622  47.755  1.00  0.00     0.036 C 
ENDBRANCH  19  22
ENDBRANCH  14  18
ENDBRANCH   4   6
ENDBRANCH   1   4
TORSDOF 5
ENDMDL
MODEL 8
REMARK VINA RESULT:      -6.9      2.762      7.065
REMARK  5 active torsions:
REMARK  status: ('A' for Active; 'I' for Inactive)
REMARK    1  A    between atoms: C2_2  and  C3_3 
REMARK    2  A    between atoms: C2_2  and  C6_6 
REMARK    3  A    between atoms: C10_11  and  C11_12 
REMARK    4  A    between atoms: C13_15  and  N2_16 
REMARK       I    between atoms: N2_16  and  C14_17 
REMARK    5  A    between atoms: C14_17  and  C15_19 
ROOT
HETATM    1  C3  UNL     1      24.357  -0.420  53.565  1.00  0.00    -0.071 C 
HETATM    2  C4  UNL     1      23.435  -0.792  54.247  1.00  0.00    -0.106 C 
HETATM    3  C5  UNL     1      22.307  -1.256  55.054  1.00  0.00     0.112 C 
ENDROOT
BRANCH   1   4
HETATM    4  C2  UNL     1      25.466   0.005  52.765  1.00  0.00     0.004 C 
HETATM    5  C1  UNL     1      26.530  -0.767  52.682  1.00  0.00     0.054 C 
BRANCH   4   6
HETATM    6  C6  UNL     1      25.513   1.250  52.017  1.00  0.00    -0.014 A 
HETATM    7  C7  UNL     1      26.702   1.555  51.526  1.00  0.00     0.125 A 
HETATM    8  N1  UNL     1      27.012   2.710  50.764  1.00  0.00    -0.272 NA
HETATM    9  C8  UNL     1      26.068   3.547  50.518  1.00  0.00     0.125 A 
HETATM   10  C9  UNL     1      24.733   3.267  51.034  1.00  0.00    -0.015 A 
HETATM   11  C10 UNL     1      23.831   4.181  50.755  1.00  0.00    -0.007 C 
HETATM   12  C19 UNL     1      24.326   2.113  51.805  1.00  0.00     0.082 A 
HETATM   13  S1  UNL     1      22.200   3.763  51.421  1.00  0.00    -0.077 SA
HETATM   14  C13 UNL     1      22.026   1.994  51.128  1.00  0.00     0.074 C 
HETATM   15  C18 UNL     1      23.145   1.368  51.364  1.00  0.00     0.025 C 
BRANCH  11  16
HETATM   16  C11 UNL     1      23.869   5.445  50.026  1.00  0.00     0.042 C 
HETATM   17  C12 UNL     1      23.298   5.259  48.613  1.00  0.00     0.010 C 
ENDBRANCH  11  16
BRANCH  14  18
HETATM   18  N2  UNL     1      20.778   1.491  50.701  1.00  0.00    -0.318 N 
HETATM   19  C14 UNL     1      19.812   0.730  51.402  1.00  0.00     0.245 C 
HETATM   20  O1  UNL     1      20.056   0.428  52.592  1.00  0.00    -0.268 OA
HETATM   21  H13 UNL     1      20.477   1.686  49.718  1.00  0.00     0.169 HD
BRANCH  19  22
HETATM   22  C15 UNL     1      18.559   0.283  50.808  1.00  0.00     0.070 C 
HETATM   23  C16 UNL     1      17.595  -0.309  51.495  1.00  0.00    -0.026 C 
HETATM   24  C17 UNL     1      16.304  -0.772  50.894  1.00  0.00     0.036 C 
ENDBRANCH  19  22
ENDBRANCH  14  18
ENDBRANCH   4   6
ENDBRANCH   1   4
TORSDOF 5
ENDMDL
MODEL 9
REMARK VINA RESULT:      -6.5      5.344      8.720
REMARK  5 active torsions:
REMARK  status: ('A' for Active; 'I' for Inactive)
REMARK    1  A    between atoms: C2_2  and  C3_3 
REMARK    2  A    between atoms: C2_2  and  C6_6 
REMARK    3  A    between atoms: C10_11  and  C11_12 
REMARK    4  A    between atoms: C13_15  and  N2_16 
REMARK       I    between atoms: N2_16  and  C14_17 
REMARK    5  A    between atoms: C14_17  and  C15_19 
ROOT
HETATM    1  C3  UNL     1      26.282   5.580  48.837  1.00  0.00    -0.071 C 
HETATM    2  C4  UNL     1      26.391   4.457  49.261  1.00  0.00    -0.106 C 
HETATM    3  C5  UNL     1      26.516   3.103  49.798  1.00  0.00     0.112 C 
ENDROOT
BRANCH   1   4
HETATM    4  C2  UNL     1      26.131   6.908  48.322  1.00  0.00     0.004 C 
HETATM    5  C1  UNL     1      25.122   7.173  47.517  1.00  0.00     0.054 C 
BRANCH   4   6
HETATM    6  C6  UNL     1      27.021   8.015  48.626  1.00  0.00    -0.014 A 
HETATM    7  C7  UNL     1      26.583   8.835  49.567  1.00  0.00     0.125 A 
HETATM    8  N1  UNL     1      27.260   9.986  50.043  1.00  0.00    -0.272 NA
HETATM    9  C8  UNL     1      28.401  10.277  49.528  1.00  0.00     0.125 A 
HETATM   10  C9  UNL     1      28.938   9.411  48.484  1.00  0.00    -0.015 A 
HETATM   11  C10 UNL     1      30.098   9.789  47.997  1.00  0.00    -0.007 C 
HETATM   12  C19 UNL     1      28.325   8.215  47.949  1.00  0.00     0.082 A 
HETATM   13  S1  UNL     1      30.704   8.664  46.713  1.00  0.00    -0.077 SA
HETATM   14  C13 UNL     1      30.309   7.017  47.324  1.00  0.00     0.074 C 
HETATM   15  C18 UNL     1      29.131   6.994  47.884  1.00  0.00     0.025 C 
BRANCH  11  16
HETATM   16  C11 UNL     1      30.992  10.909  48.276  1.00  0.00     0.042 C 
HETATM   17  C12 UNL     1      32.234  10.832  47.377  1.00  0.00     0.010 C 
ENDBRANCH  11  16
BRANCH  14  18
HETATM   18  N2  UNL     1      31.249   5.978  47.148  1.00  0.00    -0.318 N 
HETATM   19  C14 UNL     1      31.882   5.148  48.105  1.00  0.00     0.245 C 
HETATM   20  O1  UNL     1      31.597   5.324  49.311  1.00  0.00    -0.268 OA
HETATM   21  H13 UNL     1      31.557   5.751  46.175  1.00  0.00     0.169 HD
BRANCH  19  22
HETATM   22  C15 UNL     1      32.842   4.110  47.755  1.00  0.00     0.070 C 
HETATM   23  C16 UNL     1      33.830   4.289  46.894  1.00  0.00    -0.026 C 
HETATM   24  C17 UNL     1      34.821   3.229  46.527  1.00  0.00     0.036 C 
ENDBRANCH  19  22
ENDBRANCH  14  18
ENDBRANCH   4   6
ENDBRANCH   1   4
TORSDOF 5
ENDMDL
