MODEL 1
REMARK VINA RESULT:      -8.5      0.000      0.000
REMARK  5 active torsions:
REMARK  status: ('A' for Active; 'I' for Inactive)
REMARK    1  A    between atoms: C3_5  and  N2_6 
REMARK    2  A    between atoms: N2_6  and  C4_7 
REMARK    3  A    between atoms: C4_7  and  C5_8 
REMARK    4  A    between atoms: C5_8  and  C6_9 
REMARK    5  A    between atoms: C6_9  and  C7_10 
ROOT
HETATM    1  C1  UNL     1      27.833   0.214  54.208  1.00  0.00     0.243 A 
HETATM    2  N1  UNL     1      27.021  -0.487  54.966  1.00  0.00    -0.211 NA
HETATM    3  S1  UNL     1      25.338  -0.539  54.467  1.00  0.00    -0.030 SA
HETATM    4  C2  UNL     1      25.013   0.303  53.111  1.00  0.00     0.069 A 
HETATM    5  C3  UNL     1      26.217   0.947  52.571  1.00  0.00     0.143 A 
HETATM    6  N3  UNL     1      27.376   0.884  53.060  1.00  0.00    -0.223 NA
HETATM    7  C13 UNL     1      23.588   0.012  53.064  1.00  0.00    -0.022 A 
HETATM    8  C14 UNL     1      23.591  -0.723  54.155  1.00  0.00     0.002 A 
HETATM    9  C15 UNL     1      22.368  -1.332  54.649  1.00  0.00     0.048 C 
HETATM   10  C16 UNL     1      21.175  -0.402  54.573  1.00  0.00     0.005 C 
HETATM   11  C17 UNL     1      21.313   0.651  53.496  1.00  0.00     0.005 C 
HETATM   12  C18 UNL     1      22.251   0.136  52.431  1.00  0.00     0.041 C 
ENDROOT
BRANCH   5  13
HETATM   13  N2  UNL     1      26.077   1.722  51.378  1.00  0.00    -0.374 N 
HETATM   14  H2  UNL     1      26.668   1.467  50.539  1.00  0.00     0.161 HD
BRANCH  13  15
HETATM   15  C4  UNL     1      25.151   2.848  51.272  1.00  0.00     0.121 C 
BRANCH  15  16
HETATM   16  C5  UNL     1      25.239   3.454  49.865  1.00  0.00     0.024 C 
BRANCH  16  17
HETATM   17  C6  UNL     1      26.703   3.460  49.426  1.00  0.00     0.040 C 
BRANCH  17  18
HETATM   18  C7  UNL     1      27.067   4.800  48.879  1.00  0.00    -0.058 A 
HETATM   19  C8  UNL     1      26.064   5.745  48.826  1.00  0.00     0.007 A 
HETATM   20  C9  UNL     1      26.221   7.028  48.353  1.00  0.00     0.001 A 
HETATM   21  C10 UNL     1      27.473   7.386  47.904  1.00  0.00     0.000 A 
HETATM   22  C11 UNL     1      28.518   6.461  47.940  1.00  0.00     0.001 A 
HETATM   23  C12 UNL     1      28.305   5.192  48.421  1.00  0.00     0.007 A 
ENDBRANCH  17  18
ENDBRANCH  16  17
ENDBRANCH  15  16
ENDBRANCH  13  15
ENDBRANCH   5  13
TORSDOF 5
ENDMDL
MODEL 2
REMARK VINA RESULT:      -8.2      2.339      4.330
REMARK  5 active torsions:
REMARK  status: ('A' for Active; 'I' for Inactive)
REMARK    1  A    between atoms: C3_5  and  N2_6 
REMARK    2  A    between atoms: N2_6  and  C4_7 
REMARK    3  A    between atoms: C4_7  and  C5_8 
REMARK    4  A    between atoms: C5_8  and  C6_9 
REMARK    5  A    between atoms: C6_9  and  C7_10 
ROOT
HETATM    1  C1  UNL     1      28.839   1.787  53.902  1.00  0.00     0.243 A 
HETATM    2  N1  UNL     1      28.396   1.051  54.896  1.00  0.00    -0.211 NA
HETATM    3  S1  UNL     1      26.830   0.289  54.664  1.00  0.00    -0.030 SA
HETATM    4  C2  UNL     1      26.136   0.606  53.225  1.00  0.00     0.069 A 
HETATM    5  C3  UNL     1      26.976   1.481  52.398  1.00  0.00     0.143 A 
HETATM    6  N3  UNL     1      28.100   1.952  52.719  1.00  0.00    -0.223 NA
HETATM    7  C13 UNL     1      24.926  -0.172  53.442  1.00  0.00    -0.022 A 
HETATM    8  C14 UNL     1      25.267  -0.570  54.648  1.00  0.00     0.002 A 
HETATM    9  C15 UNL     1      24.393  -1.432  55.425  1.00  0.00     0.048 C 
HETATM   10  C16 UNL     1      22.936  -1.031  55.332  1.00  0.00     0.005 C 
HETATM   11  C17 UNL     1      22.606  -0.292  54.054  1.00  0.00     0.005 C 
HETATM   12  C18 UNL     1      23.606  -0.685  52.994  1.00  0.00     0.041 C 
ENDROOT
BRANCH   5  13
HETATM   13  N2  UNL     1      26.488   1.842  51.104  1.00  0.00    -0.374 N 
HETATM   14  H2  UNL     1      26.183   1.072  50.448  1.00  0.00     0.161 HD
BRANCH  13  15
HETATM   15  C4  UNL     1      26.392   3.230  50.655  1.00  0.00     0.121 C 
BRANCH  15  16
HETATM   16  C5  UNL     1      24.936   3.554  50.296  1.00  0.00     0.024 C 
BRANCH  16  17
HETATM   17  C6  UNL     1      24.091   3.481  51.567  1.00  0.00     0.040 C 
BRANCH  17  18
HETATM   18  C7  UNL     1      22.892   2.623  51.335  1.00  0.00    -0.058 A 
HETATM   19  C8  UNL     1      21.817   2.812  52.177  1.00  0.00     0.007 A 
HETATM   20  C9  UNL     1      20.634   2.112  52.109  1.00  0.00     0.001 A 
HETATM   21  C10 UNL     1      20.524   1.156  51.123  1.00  0.00     0.000 A 
HETATM   22  C11 UNL     1      21.587   0.930  50.247  1.00  0.00     0.001 A 
HETATM   23  C12 UNL     1      22.747   1.658  50.362  1.00  0.00     0.007 A 
ENDBRANCH  17  18
ENDBRANCH  16  17
ENDBRANCH  15  16
ENDBRANCH  13  15
ENDBRANCH   5  13
TORSDOF 5
ENDMDL
MODEL 3
REMARK VINA RESULT:      -7.8      2.521      4.123
REMARK  5 active torsions:
REMARK  status: ('A' for Active; 'I' for Inactive)
REMARK    1  A    between atoms: C3_5  and  N2_6 
REMARK    2  A    between atoms: N2_6  and  C4_7 
REMARK    3  A    between atoms: C4_7  and  C5_8 
REMARK    4  A    between atoms: C5_8  and  C6_9 
REMARK    5  A    between atoms: C6_9  and  C7_10 
ROOT
HETATM    1  C1  UNL     1      20.185  -0.363  53.456  1.00  0.00     0.243 A 
HETATM    2  N1  UNL     1      21.117  -1.173  53.903  1.00  0.00    -0.211 NA
HETATM    3  S1  UNL     1      22.778  -0.646  53.685  1.00  0.00    -0.030 SA
HETATM    4  C2  UNL     1      22.933   0.799  52.949  1.00  0.00     0.069 A 
HETATM    5  C3  UNL     1      21.628   1.378  52.610  1.00  0.00     0.143 A 
HETATM    6  N3  UNL     1      20.503   0.859  52.839  1.00  0.00    -0.223 NA
HETATM    7  C13 UNL     1      24.388   0.846  52.966  1.00  0.00    -0.022 A 
HETATM    8  C14 UNL     1      24.527  -0.316  53.565  1.00  0.00     0.002 A 
HETATM    9  C15 UNL     1      25.846  -0.845  53.872  1.00  0.00     0.048 C 
HETATM   10  C16 UNL     1      26.837  -0.644  52.745  1.00  0.00     0.005 C 
HETATM   11  C17 UNL     1      26.498   0.535  51.860  1.00  0.00     0.005 C 
HETATM   12  C18 UNL     1      25.675   1.518  52.658  1.00  0.00     0.041 C 
ENDROOT
BRANCH   5  13
HETATM   13  N2  UNL     1      21.614   2.649  51.956  1.00  0.00    -0.374 N 
HETATM   14  H2  UNL     1      21.870   3.507  52.518  1.00  0.00     0.161 HD
BRANCH  13  15
HETATM   15  C4  UNL     1      21.263   2.808  50.546  1.00  0.00     0.121 C 
BRANCH  15  16
HETATM   16  C5  UNL     1      22.544   2.900  49.707  1.00  0.00     0.024 C 
BRANCH  16  17
HETATM   17  C6  UNL     1      23.022   4.352  49.701  1.00  0.00     0.040 C 
BRANCH  17  18
HETATM   18  C7  UNL     1      24.492   4.405  49.452  1.00  0.00    -0.058 A 
HETATM   19  C8  UNL     1      24.999   5.591  48.965  1.00  0.00     0.007 A 
HETATM   20  C9  UNL     1      26.327   5.817  48.679  1.00  0.00     0.001 A 
HETATM   21  C10 UNL     1      27.205   4.778  48.899  1.00  0.00     0.000 A 
HETATM   22  C11 UNL     1      26.735   3.559  49.392  1.00  0.00     0.001 A 
HETATM   23  C12 UNL     1      25.398   3.388  49.659  1.00  0.00     0.007 A 
ENDBRANCH  17  18
ENDBRANCH  16  17
ENDBRANCH  15  16
ENDBRANCH  13  15
ENDBRANCH   5  13
TORSDOF 5
ENDMDL
MODEL 4
REMARK VINA RESULT:      -7.8      3.120      5.558
REMARK  5 active torsions:
REMARK  status: ('A' for Active; 'I' for Inactive)
REMARK    1  A    between atoms: C3_5  and  N2_6 
REMARK    2  A    between atoms: N2_6  and  C4_7 
REMARK    3  A    between atoms: C4_7  and  C5_8 
REMARK    4  A    between atoms: C5_8  and  C6_9 
REMARK    5  A    between atoms: C6_9  and  C7_10 
ROOT
HETATM    1  C1  UNL     1      21.587   2.587  47.987  1.00  0.00     0.243 A 
HETATM    2  N1  UNL     1      20.852   1.665  48.567  1.00  0.00    -0.211 NA
HETATM    3  S1  UNL     1      21.354   1.164  50.173  1.00  0.00    -0.030 SA
HETATM    4  C2  UNL     1      22.682   1.926  50.731  1.00  0.00     0.069 A 
HETATM    5  C3  UNL     1      23.199   2.895  49.757  1.00  0.00     0.143 A 
HETATM    6  N3  UNL     1      22.712   3.141  48.622  1.00  0.00    -0.223 NA
HETATM    7  C13 UNL     1      22.746   1.245  52.015  1.00  0.00    -0.022 A 
HETATM    8  C14 UNL     1      21.682   0.503  51.798  1.00  0.00     0.002 A 
HETATM    9  C15 UNL     1      21.217  -0.446  52.795  1.00  0.00     0.048 C 
HETATM   10  C16 UNL     1      22.346  -1.217  53.445  1.00  0.00     0.005 C 
HETATM   11  C17 UNL     1      23.662  -0.472  53.422  1.00  0.00     0.005 C 
HETATM   12  C18 UNL     1      23.380   1.008  53.337  1.00  0.00     0.041 C 
ENDROOT
BRANCH   5  13
HETATM   13  N2  UNL     1      24.366   3.639  50.116  1.00  0.00    -0.374 N 
HETATM   14  H2  UNL     1      24.272   4.409  50.834  1.00  0.00     0.161 HD
BRANCH  13  15
HETATM   15  C4  UNL     1      25.680   3.376  49.532  1.00  0.00     0.121 C 
BRANCH  15  16
HETATM   16  C5  UNL     1      26.688   3.078  50.650  1.00  0.00     0.024 C 
BRANCH  16  17
HETATM   17  C6  UNL     1      26.358   1.715  51.256  1.00  0.00     0.040 C 
BRANCH  17  18
HETATM   18  C7  UNL     1      27.291   1.417  52.383  1.00  0.00    -0.058 A 
HETATM   19  C8  UNL     1      27.345   0.110  52.818  1.00  0.00     0.007 A 
HETATM   20  C9  UNL     1      28.146  -0.343  53.841  1.00  0.00     0.001 A 
HETATM   21  C10 UNL     1      28.949   0.584  54.471  1.00  0.00     0.000 A 
HETATM   22  C11 UNL     1      28.926   1.919  54.063  1.00  0.00     0.001 A 
HETATM   23  C12 UNL     1      28.106   2.316  53.035  1.00  0.00     0.007 A 
ENDBRANCH  17  18
ENDBRANCH  16  17
ENDBRANCH  15  16
ENDBRANCH  13  15
ENDBRANCH   5  13
TORSDOF 5
ENDMDL
MODEL 5
REMARK VINA RESULT:      -7.7      3.007      7.290
REMARK  5 active torsions:
REMARK  status: ('A' for Active; 'I' for Inactive)
REMARK    1  A    between atoms: C3_5  and  N2_6 
REMARK    2  A    between atoms: N2_6  and  C4_7 
REMARK    3  A    between atoms: C4_7  and  C5_8 
REMARK    4  A    between atoms: C5_8  and  C6_9 
REMARK    5  A    between atoms: C6_9  and  C7_10 
ROOT
HETATM    1  C1  UNL     1      27.637   5.046  48.579  1.00  0.00     0.243 A 
HETATM    2  N1  UNL     1      26.904   6.136  48.588  1.00  0.00    -0.211 NA
HETATM    3  S1  UNL     1      25.469   6.102  49.599  1.00  0.00    -0.030 SA
HETATM    4  C2  UNL     1      25.243   4.701  50.399  1.00  0.00     0.069 A 
HETATM    5  C3  UNL     1      26.307   3.732  50.105  1.00  0.00     0.143 A 
HETATM    6  N3  UNL     1      27.289   3.917  49.339  1.00  0.00    -0.223 NA
HETATM    7  C13 UNL     1      24.011   5.082  51.072  1.00  0.00    -0.022 A 
HETATM    8  C14 UNL     1      23.968   6.287  50.546  1.00  0.00     0.002 A 
HETATM    9  C15 UNL     1      22.887   7.204  50.867  1.00  0.00     0.048 C 
HETATM   10  C16 UNL     1      21.532   6.529  50.895  1.00  0.00     0.005 C 
HETATM   11  C17 UNL     1      21.612   5.052  51.207  1.00  0.00     0.005 C 
HETATM   12  C18 UNL     1      22.878   4.789  51.986  1.00  0.00     0.041 C 
ENDROOT
BRANCH   5  13
HETATM   13  N2  UNL     1      26.234   2.454  50.741  1.00  0.00    -0.374 N 
HETATM   14  H2  UNL     1      25.824   1.644  50.200  1.00  0.00     0.161 HD
BRANCH  13  15
HETATM   15  C4  UNL     1      26.704   2.224  52.106  1.00  0.00     0.121 C 
BRANCH  15  16
HETATM   16  C5  UNL     1      25.523   1.797  52.989  1.00  0.00     0.024 C 
BRANCH  16  17
HETATM   17  C6  UNL     1      24.422   1.232  52.094  1.00  0.00     0.040 C 
BRANCH  17  18
HETATM   18  C7  UNL     1      23.310   0.693  52.930  1.00  0.00    -0.058 A 
HETATM   19  C8  UNL     1      23.601  -0.390  53.731  1.00  0.00     0.007 A 
HETATM   20  C9  UNL     1      22.700  -1.014  54.565  1.00  0.00     0.001 A 
HETATM   21  C10 UNL     1      21.417  -0.512  54.594  1.00  0.00     0.000 A 
HETATM   22  C11 UNL     1      21.077   0.583  53.799  1.00  0.00     0.001 A 
HETATM   23  C12 UNL     1      22.017   1.167  52.984  1.00  0.00     0.007 A 
ENDBRANCH  17  18
ENDBRANCH  16  17
ENDBRANCH  15  16
ENDBRANCH  13  15
ENDBRANCH   5  13
TORSDOF 5
ENDMDL
MODEL 6
REMARK VINA RESULT:      -7.7      3.818      5.705
REMARK  5 active torsions:
REMARK  status: ('A' for Active; 'I' for Inactive)
REMARK    1  A    between atoms: C3_5  and  N2_6 
REMARK    2  A    between atoms: N2_6  and  C4_7 
REMARK    3  A    between atoms: C4_7  and  C5_8 
REMARK    4  A    between atoms: C5_8  and  C6_9 
REMARK    5  A    between atoms: C6_9  and  C7_10 
ROOT
HETATM    1  C1  UNL     1      22.731  -1.274  55.114  1.00  0.00     0.243 A 
HETATM    2  N1  UNL     1      21.440  -1.505  55.047  1.00  0.00    -0.211 NA
HETATM    3  S1  UNL     1      20.594  -0.815  53.670  1.00  0.00    -0.030 SA
HETATM    4  C2  UNL     1      21.545   0.028  52.651  1.00  0.00     0.069 A 
HETATM    5  C3  UNL     1      22.944   0.040  53.099  1.00  0.00     0.143 A 
HETATM    6  N3  UNL     1      23.397  -0.517  54.134  1.00  0.00    -0.223 NA
HETATM    7  C13 UNL     1      20.500   0.406  51.712  1.00  0.00    -0.022 A 
HETATM    8  C14 UNL     1      19.539  -0.207  52.367  1.00  0.00     0.002 A 
HETATM    9  C15 UNL     1      18.170  -0.181  51.880  1.00  0.00     0.048 C 
HETATM   10  C16 UNL     1      17.753   1.181  51.368  1.00  0.00     0.005 C 
HETATM   11  C17 UNL     1      18.919   2.016  50.888  1.00  0.00     0.005 C 
HETATM   12  C18 UNL     1      20.040   1.092  50.478  1.00  0.00     0.041 C 
ENDROOT
BRANCH   5  13
HETATM   13  N2  UNL     1      23.892   0.746  52.297  1.00  0.00    -0.374 N 
HETATM   14  H2  UNL     1      24.313   0.252  51.462  1.00  0.00     0.161 HD
BRANCH  13  15
HETATM   15  C4  UNL     1      24.301   2.120  52.583  1.00  0.00     0.121 C 
BRANCH  15  16
HETATM   16  C5  UNL     1      25.832   2.194  52.653  1.00  0.00     0.024 C 
BRANCH  16  17
HETATM   17  C6  UNL     1      26.289   1.614  53.991  1.00  0.00     0.040 C 
BRANCH  17  18
HETATM   18  C7  UNL     1      27.414   0.657  53.775  1.00  0.00    -0.058 A 
HETATM   19  C8  UNL     1      27.083  -0.604  53.328  1.00  0.00     0.007 A 
HETATM   20  C9  UNL     1      27.988  -1.610  53.076  1.00  0.00     0.001 A 
HETATM   21  C10 UNL     1      29.320  -1.326  53.289  1.00  0.00     0.000 A 
HETATM   22  C11 UNL     1      29.702  -0.062  53.741  1.00  0.00     0.001 A 
HETATM   23  C12 UNL     1      28.754   0.905  53.977  1.00  0.00     0.007 A 
ENDBRANCH  17  18
ENDBRANCH  16  17
ENDBRANCH  15  16
ENDBRANCH  13  15
ENDBRANCH   5  13
TORSDOF 5
ENDMDL
MODEL 7
REMARK VINA RESULT:      -7.6      2.431      3.684
REMARK  5 active torsions:
REMARK  status: ('A' for Active; 'I' for Inactive)
REMARK    1  A    between atoms: C3_5  and  N2_6 
REMARK    2  A    between atoms: N2_6  and  C4_7 
REMARK    3  A    between atoms: C4_7  and  C5_8 
REMARK    4  A    between atoms: C5_8  and  C6_9 
REMARK    5  A    between atoms: C6_9  and  C7_10 
ROOT
HETATM    1  C1  UNL     1      20.199   0.297  52.357  1.00  0.00     0.243 A 
HETATM    2  N1  UNL     1      20.865  -0.344  53.290  1.00  0.00    -0.211 NA
HETATM    3  S1  UNL     1      22.608  -0.121  53.296  1.00  0.00    -0.030 SA
HETATM    4  C2  UNL     1      23.163   0.866  52.126  1.00  0.00     0.069 A 
HETATM    5  C3  UNL     1      22.073   1.379  51.286  1.00  0.00     0.143 A 
HETATM    6  N3  UNL     1      20.848   1.116  51.417  1.00  0.00    -0.223 NA
HETATM    7  C13 UNL     1      24.573   0.771  52.475  1.00  0.00    -0.022 A 
HETATM    8  C14 UNL     1      24.380  -0.046  53.487  1.00  0.00     0.002 A 
HETATM    9  C15 UNL     1      25.497  -0.528  54.281  1.00  0.00     0.048 C 
HETATM   10  C16 UNL     1      26.696  -0.911  53.439  1.00  0.00     0.005 C 
HETATM   11  C17 UNL     1      26.751  -0.177  52.118  1.00  0.00     0.005 C 
HETATM   12  C18 UNL     1      25.998   1.125  52.255  1.00  0.00     0.041 C 
ENDROOT
BRANCH   5  13
HETATM   13  N2  UNL     1      22.419   2.260  50.215  1.00  0.00    -0.374 N 
HETATM   14  H2  UNL     1      22.010   2.074  49.258  1.00  0.00     0.161 HD
BRANCH  13  15
HETATM   15  C4  UNL     1      23.311   3.404  50.390  1.00  0.00     0.121 C 
BRANCH  15  16
HETATM   16  C5  UNL     1      24.361   3.411  49.271  1.00  0.00     0.024 C 
BRANCH  16  17
HETATM   17  C6  UNL     1      25.747   3.534  49.901  1.00  0.00     0.040 C 
BRANCH  17  18
HETATM   18  C7  UNL     1      26.469   4.707  49.325  1.00  0.00    -0.058 A 
HETATM   19  C8  UNL     1      25.868   5.939  49.469  1.00  0.00     0.007 A 
HETATM   20  C9  UNL     1      26.390   7.124  49.002  1.00  0.00     0.001 A 
HETATM   21  C10 UNL     1      27.600   7.065  48.344  1.00  0.00     0.000 A 
HETATM   22  C11 UNL     1      28.243   5.838  48.176  1.00  0.00     0.001 A 
HETATM   23  C12 UNL     1      27.676   4.685  48.662  1.00  0.00     0.007 A 
ENDBRANCH  17  18
ENDBRANCH  16  17
ENDBRANCH  15  16
ENDBRANCH  13  15
ENDBRANCH   5  13
TORSDOF 5
ENDMDL
MODEL 8
REMARK VINA RESULT:      -7.6      2.619      6.793
REMARK  5 active torsions:
REMARK  status: ('A' for Active; 'I' for Inactive)
REMARK    1  A    between atoms: C3_5  and  N2_6 
REMARK    2  A    between atoms: N2_6  and  C4_7 
REMARK    3  A    between atoms: C4_7  and  C5_8 
REMARK    4  A    between atoms: C5_8  and  C6_9 
REMARK    5  A    between atoms: C6_9  and  C7_10 
ROOT
HETATM    1  C1  UNL     1      25.738   4.365  49.767  1.00  0.00     0.243 A 
HETATM    2  N1  UNL     1      26.780   3.572  49.863  1.00  0.00    -0.211 NA
HETATM    3  S1  UNL     1      26.710   2.338  51.110  1.00  0.00    -0.030 SA
HETATM    4  C2  UNL     1      25.338   2.348  51.989  1.00  0.00     0.069 A 
HETATM    5  C3  UNL     1      24.422   3.409  51.551  1.00  0.00     0.143 A 
HETATM    6  N3  UNL     1      24.627   4.230  50.618  1.00  0.00    -0.223 NA
HETATM    7  C13 UNL     1      25.682   1.234  52.859  1.00  0.00    -0.022 A 
HETATM    8  C14 UNL     1      26.856   1.023  52.306  1.00  0.00     0.002 A 
HETATM    9  C15 UNL     1      27.727  -0.038  52.785  1.00  0.00     0.048 C 
HETATM   10  C16 UNL     1      27.765  -0.132  54.295  1.00  0.00     0.005 C 
HETATM   11  C17 UNL     1      26.513   0.403  54.954  1.00  0.00     0.005 C 
HETATM   12  C18 UNL     1      25.369   0.304  53.973  1.00  0.00     0.041 C 
ENDROOT
BRANCH   5  13
HETATM   13  N2  UNL     1      23.175   3.534  52.238  1.00  0.00    -0.374 N 
HETATM   14  H2  UNL     1      23.184   3.587  53.294  1.00  0.00     0.161 HD
BRANCH  13  15
HETATM   15  C4  UNL     1      21.891   3.591  51.540  1.00  0.00     0.121 C 
BRANCH  15  16
HETATM   16  C5  UNL     1      20.761   3.242  52.517  1.00  0.00     0.024 C 
BRANCH  16  17
HETATM   17  C6  UNL     1      20.155   1.901  52.105  1.00  0.00     0.040 C 
BRANCH  17  18
HETATM   18  C7  UNL     1      20.880   0.783  52.778  1.00  0.00    -0.058 A 
HETATM   19  C8  UNL     1      20.670   0.630  54.131  1.00  0.00     0.007 A 
HETATM   20  C9  UNL     1      21.253  -0.344  54.910  1.00  0.00     0.001 A 
HETATM   21  C10 UNL     1      22.108  -1.225  54.282  1.00  0.00     0.000 A 
HETATM   22  C11 UNL     1      22.350  -1.106  52.912  1.00  0.00     0.001 A 
HETATM   23  C12 UNL     1      21.740  -0.114  52.184  1.00  0.00     0.007 A 
ENDBRANCH  17  18
ENDBRANCH  16  17
ENDBRANCH  15  16
ENDBRANCH  13  15
ENDBRANCH   5  13
TORSDOF 5
ENDMDL
MODEL 9
REMARK VINA RESULT:      -7.5      3.882      6.745
REMARK  5 active torsions:
REMARK  status: ('A' for Active; 'I' for Inactive)
REMARK    1  A    between atoms: C3_5  and  N2_6 
REMARK    2  A    between atoms: N2_6  and  C4_7 
REMARK    3  A    between atoms: C4_7  and  C5_8 
REMARK    4  A    between atoms: C5_8  and  C6_9 
REMARK    5  A    between atoms: C6_9  and  C7_10 
ROOT
HETATM    1  C1  UNL     1      22.610   4.857  52.105  1.00  0.00     0.243 A 
HETATM    2  N1  UNL     1      23.380   4.713  53.159  1.00  0.00    -0.211 NA
HETATM    3  S1  UNL     1      24.470   3.336  53.146  1.00  0.00    -0.030 SA
HETATM    4  C2  UNL     1      24.373   2.415  51.806  1.00  0.00     0.069 A 
HETATM    5  C3  UNL     1      23.374   2.933  50.863  1.00  0.00     0.143 A 
HETATM    6  N3  UNL     1      22.659   3.958  51.026  1.00  0.00    -0.223 NA
HETATM    7  C13 UNL     1      25.382   1.440  52.192  1.00  0.00    -0.022 A 
HETATM    8  C14 UNL     1      25.645   2.009  53.348  1.00  0.00     0.002 A 
HETATM    9  C15 UNL     1      26.640   1.448  54.247  1.00  0.00     0.048 C 
HETATM   10  C16 UNL     1      26.566  -0.062  54.339  1.00  0.00     0.005 C 
HETATM   11  C17 UNL     1      25.971  -0.702  53.105  1.00  0.00     0.005 C 
HETATM   12  C18 UNL     1      26.186   0.220  51.929  1.00  0.00     0.041 C 
ENDROOT
BRANCH   5  13
HETATM   13  N2  UNL     1      23.183   2.220  49.639  1.00  0.00    -0.374 N 
HETATM   14  H2  UNL     1      24.036   1.890  49.109  1.00  0.00     0.161 HD
BRANCH  13  15
HETATM   15  C4  UNL     1      21.858   1.930  49.093  1.00  0.00     0.121 C 
BRANCH  15  16
HETATM   16  C5  UNL     1      21.312   0.646  49.730  1.00  0.00     0.024 C 
BRANCH  16  17
HETATM   17  C6  UNL     1      20.346   1.028  50.851  1.00  0.00     0.040 C 
BRANCH  17  18
HETATM   18  C7  UNL     1      20.852   0.519  52.159  1.00  0.00    -0.058 A 
HETATM   19  C8  UNL     1      21.931  -0.339  52.118  1.00  0.00     0.007 A 
HETATM   20  C9  UNL     1      22.527  -0.902  53.224  1.00  0.00     0.001 A 
HETATM   21  C10 UNL     1      22.000  -0.580  54.456  1.00  0.00     0.000 A 
HETATM   22  C11 UNL     1      20.908   0.285  54.545  1.00  0.00     0.001 A 
HETATM   23  C12 UNL     1      20.352   0.818  53.407  1.00  0.00     0.007 A 
ENDBRANCH  17  18
ENDBRANCH  16  17
ENDBRANCH  15  16
ENDBRANCH  13  15
ENDBRANCH   5  13
TORSDOF 5
ENDMDL
