MODEL 1
REMARK VINA RESULT:      -7.2      0.000      0.000
REMARK  8 active torsions:
REMARK  status: ('A' for Active; 'I' for Inactive)
REMARK    1  A    between atoms: O1_1  and  C1_2 
REMARK    2  A    between atoms: C1_2  and  C2_3 
REMARK    3  A    between atoms: C1_2  and  C10_13 
REMARK    4  A    between atoms: C2_3  and  N1_4 
REMARK    5  A    between atoms: N1_4  and  C3_5 
REMARK    6  A    between atoms: C3_5  and  C4_6 
REMARK    7  A    between atoms: C10_13  and  N2_14 
REMARK    8  A    between atoms: N2_14  and  C11_15 
ROOT
HETATM    1  C1  UNL     1      25.112   2.787  51.951  1.00  0.00     0.164 C 
ENDROOT
BRANCH   1   2
HETATM    2  O1  UNL     1      24.902   4.101  51.504  1.00  0.00    -0.392 OA
HETATM    3  H1  UNL     1      25.702   4.297  50.922  1.00  0.00     0.210 HD
ENDBRANCH   1   2
BRANCH   1   4
HETATM    4  C2  UNL     1      25.197   2.838  53.448  1.00  0.00     0.303 C 
BRANCH   4   5
HETATM    5  N1  UNL     1      26.481   2.472  53.952  1.00  0.00     0.090 N 
HETATM    6  H5  UNL     1      26.431   1.821  54.772  1.00  0.00     0.316 HD
BRANCH   5   7
HETATM    7  C3  UNL     1      27.434   2.082  52.969  1.00  0.00     0.308 C 
BRANCH   7   8
HETATM    8  C4  UNL     1      28.105   0.797  53.166  1.00  0.00    -0.028 A 
HETATM    9  C5  UNL     1      29.347   0.487  53.656  1.00  0.00     0.009 A 
HETATM   10  C6  UNL     1      29.773  -0.835  53.708  1.00  0.00     0.004 A 
HETATM   11  C7  UNL     1      28.976  -1.876  53.274  1.00  0.00     0.042 A 
HETATM   12  C8  UNL     1      27.735  -1.587  52.782  1.00  0.00     0.117 A 
HETATM   13  F1  UNL     1      26.987  -2.633  52.368  1.00  0.00    -0.206 F 
HETATM   14  C9  UNL     1      27.320  -0.278  52.735  1.00  0.00     0.051 A 
ENDBRANCH   7   8
ENDBRANCH   5   7
ENDBRANCH   4   5
ENDBRANCH   1   4
BRANCH   1  15
HETATM   15  C10 UNL     1      23.989   1.905  51.432  1.00  0.00     0.153 C 
BRANCH  15  16
HETATM   16  N2  UNL     1      23.186   1.614  52.606  1.00  0.00    -0.387 N 
HETATM   17  H14 UNL     1      22.763   2.331  53.261  1.00  0.00     0.159 HD
BRANCH  16  18
HETATM   18  C11 UNL     1      22.678   0.506  53.308  1.00  0.00     0.040 C 
HETATM   19  C12 UNL     1      23.682  -0.370  53.325  1.00  0.00     0.003 C 
HETATM   20  C13 UNL     1      23.799  -1.067  54.450  1.00  0.00     0.015 C 
HETATM   21  C14 UNL     1      22.567  -1.279  55.252  1.00  0.00     0.013 C 
HETATM   22  C15 UNL     1      21.427  -0.996  54.637  1.00  0.00    -0.024 C 
HETATM   23  C16 UNL     1      21.432   0.137  53.956  1.00  0.00     0.042 C 
ENDBRANCH  16  18
ENDBRANCH  15  16
ENDBRANCH   1  15
TORSDOF 8
ENDMDL
MODEL 2
REMARK VINA RESULT:      -7.0      1.847      2.266
REMARK  8 active torsions:
REMARK  status: ('A' for Active; 'I' for Inactive)
REMARK    1  A    between atoms: O1_1  and  C1_2 
REMARK    2  A    between atoms: C1_2  and  C2_3 
REMARK    3  A    between atoms: C1_2  and  C10_13 
REMARK    4  A    between atoms: C2_3  and  N1_4 
REMARK    5  A    between atoms: N1_4  and  C3_5 
REMARK    6  A    between atoms: C3_5  and  C4_6 
REMARK    7  A    between atoms: C10_13  and  N2_14 
REMARK    8  A    between atoms: N2_14  and  C11_15 
ROOT
HETATM    1  C1  UNL     1      23.781   4.015  52.221  1.00  0.00     0.164 C 
ENDROOT
BRANCH   1   2
HETATM    2  O1  UNL     1      24.505   3.847  53.411  1.00  0.00    -0.392 OA
HETATM    3  H1  UNL     1      23.883   4.182  54.131  1.00  0.00     0.210 HD
ENDBRANCH   1   2
BRANCH   1   4
HETATM    4  C2  UNL     1      24.701   3.661  51.089  1.00  0.00     0.303 C 
BRANCH   4   5
HETATM    5  N1  UNL     1      26.001   3.266  51.523  1.00  0.00     0.090 N 
HETATM    6  H5  UNL     1      26.198   3.524  52.520  1.00  0.00     0.316 HD
BRANCH   5   7
HETATM    7  C3  UNL     1      26.376   1.933  51.193  1.00  0.00     0.308 C 
BRANCH   7   8
HETATM    8  C4  UNL     1      27.153   1.194  52.187  1.00  0.00    -0.028 A 
HETATM    9  C5  UNL     1      27.186  -0.138  52.507  1.00  0.00     0.009 A 
HETATM   10  C6  UNL     1      27.999  -0.594  53.538  1.00  0.00     0.004 A 
HETATM   11  C7  UNL     1      28.796   0.262  54.273  1.00  0.00     0.042 A 
HETATM   12  C8  UNL     1      28.776   1.594  53.969  1.00  0.00     0.117 A 
HETATM   13  F1  UNL     1      29.569   2.398  54.711  1.00  0.00    -0.206 F 
HETATM   14  C9  UNL     1      27.971   2.037  52.948  1.00  0.00     0.051 A 
ENDBRANCH   7   8
ENDBRANCH   5   7
ENDBRANCH   4   5
ENDBRANCH   1   4
BRANCH   1  15
HETATM   15  C10 UNL     1      22.529   3.156  52.282  1.00  0.00     0.153 C 
BRANCH  15  16
HETATM   16  N2  UNL     1      23.014   1.833  52.633  1.00  0.00    -0.387 N 
HETATM   17  H14 UNL     1      23.992   1.466  52.459  1.00  0.00     0.159 HD
BRANCH  16  18
HETATM   18  C11 UNL     1      22.553   0.649  53.235  1.00  0.00     0.040 C 
HETATM   19  C12 UNL     1      23.628  -0.134  53.303  1.00  0.00     0.003 C 
HETATM   20  C13 UNL     1      23.713  -0.877  54.402  1.00  0.00     0.015 C 
HETATM   21  C14 UNL     1      22.442  -1.239  55.080  1.00  0.00     0.013 C 
HETATM   22  C15 UNL     1      21.337  -1.025  54.378  1.00  0.00    -0.024 C 
HETATM   23  C16 UNL     1      21.295   0.139  53.753  1.00  0.00     0.042 C 
ENDBRANCH  16  18
ENDBRANCH  15  16
ENDBRANCH   1  15
TORSDOF 8
ENDMDL
MODEL 3
REMARK VINA RESULT:      -6.7      1.606      5.561
REMARK  8 active torsions:
REMARK  status: ('A' for Active; 'I' for Inactive)
REMARK    1  A    between atoms: O1_1  and  C1_2 
REMARK    2  A    between atoms: C1_2  and  C2_3 
REMARK    3  A    between atoms: C1_2  and  C10_13 
REMARK    4  A    between atoms: C2_3  and  N1_4 
REMARK    5  A    between atoms: N1_4  and  C3_5 
REMARK    6  A    between atoms: C3_5  and  C4_6 
REMARK    7  A    between atoms: C10_13  and  N2_14 
REMARK    8  A    between atoms: N2_14  and  C11_15 
ROOT
HETATM    1  C1  UNL     1      25.055   3.249  51.087  1.00  0.00     0.164 C 
ENDROOT
BRANCH   1   2
HETATM    2  O1  UNL     1      25.061   4.647  50.970  1.00  0.00    -0.392 OA
HETATM    3  H1  UNL     1      26.019   4.874  50.750  1.00  0.00     0.210 HD
ENDBRANCH   1   2
BRANCH   1   4
HETATM    4  C2  UNL     1      23.999   2.732  50.155  1.00  0.00     0.303 C 
BRANCH   4   5
HETATM    5  N1  UNL     1      23.026   1.913  50.804  1.00  0.00     0.090 N 
HETATM    6  H5  UNL     1      22.720   1.098  50.221  1.00  0.00     0.316 HD
BRANCH   5   7
HETATM    7  C3  UNL     1      23.319   1.572  52.154  1.00  0.00     0.308 C 
BRANCH   7   8
HETATM    8  C4  UNL     1      22.417   0.626  52.812  1.00  0.00    -0.028 A 
HETATM    9  C5  UNL     1      21.072   0.405  52.670  1.00  0.00     0.009 A 
HETATM   10  C6  UNL     1      20.429  -0.544  53.454  1.00  0.00     0.004 A 
HETATM   11  C7  UNL     1      21.106  -1.293  54.397  1.00  0.00     0.042 A 
HETATM   12  C8  UNL     1      22.447  -1.086  54.553  1.00  0.00     0.117 A 
HETATM   13  F1  UNL     1      23.072  -1.838  55.486  1.00  0.00    -0.206 F 
HETATM   14  C9  UNL     1      23.077  -0.147  53.774  1.00  0.00     0.051 A 
ENDBRANCH   7   8
ENDBRANCH   5   7
ENDBRANCH   4   5
ENDBRANCH   1   4
BRANCH   1  15
HETATM   15  C10 UNL     1      26.447   2.723  50.784  1.00  0.00     0.153 C 
BRANCH  15  16
HETATM   16  N2  UNL     1      27.059   2.544  52.089  1.00  0.00    -0.387 N 
HETATM   17  H14 UNL     1      27.182   3.297  52.823  1.00  0.00     0.159 HD
BRANCH  16  18
HETATM   18  C11 UNL     1      27.655   1.531  52.862  1.00  0.00     0.040 C 
HETATM   19  C12 UNL     1      26.813   0.503  52.775  1.00  0.00     0.003 C 
HETATM   20  C13 UNL     1      27.391  -0.692  52.708  1.00  0.00     0.015 C 
HETATM   21  C14 UNL     1      28.734  -0.835  53.327  1.00  0.00     0.013 C 
HETATM   22  C15 UNL     1      29.106   0.158  54.125  1.00  0.00    -0.024 C 
HETATM   23  C16 UNL     1      28.862   1.368  53.652  1.00  0.00     0.042 C 
ENDBRANCH  16  18
ENDBRANCH  15  16
ENDBRANCH   1  15
TORSDOF 8
ENDMDL
MODEL 4
REMARK VINA RESULT:      -6.7      2.527      5.356
REMARK  8 active torsions:
REMARK  status: ('A' for Active; 'I' for Inactive)
REMARK    1  A    between atoms: O1_1  and  C1_2 
REMARK    2  A    between atoms: C1_2  and  C2_3 
REMARK    3  A    between atoms: C1_2  and  C10_13 
REMARK    4  A    between atoms: C2_3  and  N1_4 
REMARK    5  A    between atoms: N1_4  and  C3_5 
REMARK    6  A    between atoms: C3_5  and  C4_6 
REMARK    7  A    between atoms: C10_13  and  N2_14 
REMARK    8  A    between atoms: N2_14  and  C11_15 
ROOT
HETATM    1  C1  UNL     1      23.946   4.124  51.736  1.00  0.00     0.164 C 
ENDROOT
BRANCH   1   2
HETATM    2  O1  UNL     1      25.201   4.181  51.110  1.00  0.00    -0.392 OA
HETATM    3  H1  UNL     1      25.816   3.690  51.740  1.00  0.00     0.210 HD
ENDBRANCH   1   2
BRANCH   1   4
HETATM    4  C2  UNL     1      23.009   3.437  50.786  1.00  0.00     0.303 C 
BRANCH   4   5
HETATM    5  N1  UNL     1      23.257   2.037  50.665  1.00  0.00     0.090 N 
HETATM    6  H5  UNL     1      24.064   1.710  51.248  1.00  0.00     0.316 HD
BRANCH   5   7
HETATM    7  C3  UNL     1      22.107   1.203  50.762  1.00  0.00     0.308 C 
BRANCH   7   8
HETATM    8  C4  UNL     1      21.930   0.454  52.006  1.00  0.00    -0.028 A 
HETATM    9  C5  UNL     1      22.839  -0.045  52.902  1.00  0.00     0.009 A 
HETATM   10  C6  UNL     1      22.411  -0.767  54.009  1.00  0.00     0.004 A 
HETATM   11  C7  UNL     1      21.072  -1.010  54.250  1.00  0.00     0.042 A 
HETATM   12  C8  UNL     1      20.152  -0.520  53.367  1.00  0.00     0.117 A 
HETATM   13  F1  UNL     1      18.854  -0.780  53.638  1.00  0.00    -0.206 F 
HETATM   14  C9  UNL     1      20.582   0.194  52.276  1.00  0.00     0.051 A 
ENDBRANCH   7   8
ENDBRANCH   5   7
ENDBRANCH   4   5
ENDBRANCH   1   4
BRANCH   1  15
HETATM   15  C10 UNL     1      24.094   3.413  53.070  1.00  0.00     0.153 C 
BRANCH  15  16
HETATM   16  N2  UNL     1      25.431   2.848  53.034  1.00  0.00    -0.387 N 
HETATM   17  H14 UNL     1      26.336   3.397  53.078  1.00  0.00     0.159 HD
BRANCH  16  18
HETATM   18  C11 UNL     1      26.061   1.595  52.945  1.00  0.00     0.040 C 
HETATM   19  C12 UNL     1      26.337   1.266  54.205  1.00  0.00     0.003 C 
HETATM   20  C13 UNL     1      26.196  -0.023  54.494  1.00  0.00     0.015 C 
HETATM   21  C14 UNL     1      26.367  -0.993  53.382  1.00  0.00     0.013 C 
HETATM   22  C15 UNL     1      26.914  -0.506  52.276  1.00  0.00    -0.024 C 
HETATM   23  C16 UNL     1      26.439   0.666  51.893  1.00  0.00     0.042 C 
ENDBRANCH  16  18
ENDBRANCH  15  16
ENDBRANCH   1  15
TORSDOF 8
ENDMDL
MODEL 5
REMARK VINA RESULT:      -6.7      3.494      6.029
REMARK  8 active torsions:
REMARK  status: ('A' for Active; 'I' for Inactive)
REMARK    1  A    between atoms: O1_1  and  C1_2 
REMARK    2  A    between atoms: C1_2  and  C2_3 
REMARK    3  A    between atoms: C1_2  and  C10_13 
REMARK    4  A    between atoms: C2_3  and  N1_4 
REMARK    5  A    between atoms: N1_4  and  C3_5 
REMARK    6  A    between atoms: C3_5  and  C4_6 
REMARK    7  A    between atoms: C10_13  and  N2_14 
REMARK    8  A    between atoms: N2_14  and  C11_15 
ROOT
HETATM    1  C1  UNL     1      25.959   2.656  51.185  1.00  0.00     0.164 C 
ENDROOT
BRANCH   1   2
HETATM    2  O1  UNL     1      27.289   3.032  51.421  1.00  0.00    -0.392 OA
HETATM    3  H1  UNL     1      27.216   3.872  51.977  1.00  0.00     0.210 HD
ENDBRANCH   1   2
BRANCH   1   4
HETATM    4  C2  UNL     1      25.228   2.769  52.491  1.00  0.00     0.303 C 
BRANCH   4   5
HETATM    5  N1  UNL     1      26.056   2.511  53.623  1.00  0.00     0.090 N 
HETATM    6  H5  UNL     1      25.879   3.168  54.420  1.00  0.00     0.316 HD
BRANCH   5   7
HETATM    7  C3  UNL     1      26.144   1.145  54.016  1.00  0.00     0.308 C 
BRANCH   7   8
HETATM    8  C4  UNL     1      27.441   0.488  53.852  1.00  0.00    -0.028 A 
HETATM    9  C5  UNL     1      28.720   0.951  54.011  1.00  0.00     0.009 A 
HETATM   10  C6  UNL     1      29.805   0.123  53.752  1.00  0.00     0.004 A 
HETATM   11  C7  UNL     1      29.643  -1.182  53.328  1.00  0.00     0.042 A 
HETATM   12  C8  UNL     1      28.375  -1.661  53.163  1.00  0.00     0.117 A 
HETATM   13  F1  UNL     1      28.259  -2.942  52.748  1.00  0.00    -0.206 F 
HETATM   14  C9  UNL     1      27.307  -0.838  53.422  1.00  0.00     0.051 A 
ENDBRANCH   7   8
ENDBRANCH   5   7
ENDBRANCH   4   5
ENDBRANCH   1   4
BRANCH   1  15
HETATM   15  C10 UNL     1      25.386   3.536  50.086  1.00  0.00     0.153 C 
BRANCH  15  16
HETATM   16  N2  UNL     1      26.300   4.661  50.010  1.00  0.00    -0.387 N 
HETATM   17  H14 UNL     1      26.670   5.216  50.833  1.00  0.00     0.159 HD
BRANCH  16  18
HETATM   18  C11 UNL     1      26.997   5.411  49.045  1.00  0.00     0.040 C 
HETATM   19  C12 UNL     1      26.109   6.301  48.606  1.00  0.00     0.003 C 
HETATM   20  C13 UNL     1      26.605   7.506  48.343  1.00  0.00     0.015 C 
HETATM   21  C14 UNL     1      28.038   7.584  47.964  1.00  0.00     0.013 C 
HETATM   22  C15 UNL     1      28.614   6.430  47.655  1.00  0.00    -0.024 C 
HETATM   23  C16 UNL     1      28.334   5.434  48.478  1.00  0.00     0.042 C 
ENDBRANCH  16  18
ENDBRANCH  15  16
ENDBRANCH   1  15
TORSDOF 8
ENDMDL
MODEL 6
REMARK VINA RESULT:      -6.6      2.316      3.503
REMARK  8 active torsions:
REMARK  status: ('A' for Active; 'I' for Inactive)
REMARK    1  A    between atoms: O1_1  and  C1_2 
REMARK    2  A    between atoms: C1_2  and  C2_3 
REMARK    3  A    between atoms: C1_2  and  C10_13 
REMARK    4  A    between atoms: C2_3  and  N1_4 
REMARK    5  A    between atoms: N1_4  and  C3_5 
REMARK    6  A    between atoms: C3_5  and  C4_6 
REMARK    7  A    between atoms: C10_13  and  N2_14 
REMARK    8  A    between atoms: N2_14  and  C11_15 
ROOT
HETATM    1  C1  UNL     1      23.603   5.659  51.530  1.00  0.00     0.164 C 
ENDROOT
BRANCH   1   2
HETATM    2  O1  UNL     1      24.333   6.617  52.249  1.00  0.00    -0.392 OA
HETATM    3  H1  UNL     1      23.629   7.167  52.717  1.00  0.00     0.210 HD
ENDBRANCH   1   2
BRANCH   1   4
HETATM    4  C2  UNL     1      24.590   4.863  50.726  1.00  0.00     0.303 C 
BRANCH   4   5
HETATM    5  N1  UNL     1      25.302   3.901  51.502  1.00  0.00     0.090 N 
HETATM    6  H5  UNL     1      25.050   3.924  52.518  1.00  0.00     0.316 HD
BRANCH   5   7
HETATM    7  C3  UNL     1      25.347   2.588  50.954  1.00  0.00     0.308 C 
BRANCH   7   8
HETATM    8  C4  UNL     1      25.302   1.471  51.898  1.00  0.00    -0.028 A 
HETATM    9  C5  UNL     1      24.354   1.094  52.813  1.00  0.00     0.009 A 
HETATM   10  C6  UNL     1      24.568  -0.007  53.634  1.00  0.00     0.004 A 
HETATM   11  C7  UNL     1      25.727  -0.755  53.565  1.00  0.00     0.042 A 
HETATM   12  C8  UNL     1      26.683  -0.394  52.659  1.00  0.00     0.117 A 
HETATM   13  F1  UNL     1      27.802  -1.151  52.623  1.00  0.00    -0.206 F 
HETATM   14  C9  UNL     1      26.465   0.694  51.850  1.00  0.00     0.051 A 
ENDBRANCH   7   8
ENDBRANCH   5   7
ENDBRANCH   4   5
ENDBRANCH   1   4
BRANCH   1  15
HETATM   15  C10 UNL     1      22.794   4.822  52.505  1.00  0.00     0.153 C 
BRANCH  15  16
HETATM   16  N2  UNL     1      21.910   4.037  51.663  1.00  0.00    -0.387 N 
HETATM   17  H14 UNL     1      21.458   4.366  50.763  1.00  0.00     0.159 HD
BRANCH  16  18
HETATM   18  C11 UNL     1      21.337   2.753  51.615  1.00  0.00     0.040 C 
HETATM   19  C12 UNL     1      21.438   2.387  50.339  1.00  0.00     0.003 C 
HETATM   20  C13 UNL     1      21.713   1.102  50.143  1.00  0.00     0.015 C 
HETATM   21  C14 UNL     1      21.283   0.146  51.195  1.00  0.00     0.013 C 
HETATM   22  C15 UNL     1      20.428   0.623  52.090  1.00  0.00    -0.024 C 
HETATM   23  C16 UNL     1      20.725   1.826  52.551  1.00  0.00     0.042 C 
ENDBRANCH  16  18
ENDBRANCH  15  16
ENDBRANCH   1  15
TORSDOF 8
ENDMDL
MODEL 7
REMARK VINA RESULT:      -6.4      3.948      6.387
REMARK  8 active torsions:
REMARK  status: ('A' for Active; 'I' for Inactive)
REMARK    1  A    between atoms: O1_1  and  C1_2 
REMARK    2  A    between atoms: C1_2  and  C2_3 
REMARK    3  A    between atoms: C1_2  and  C10_13 
REMARK    4  A    between atoms: C2_3  and  N1_4 
REMARK    5  A    between atoms: N1_4  and  C3_5 
REMARK    6  A    between atoms: C3_5  and  C4_6 
REMARK    7  A    between atoms: C10_13  and  N2_14 
REMARK    8  A    between atoms: N2_14  and  C11_15 
ROOT
HETATM    1  C1  UNL     1      24.272   2.811  52.453  1.00  0.00     0.164 C 
ENDROOT
BRANCH   1   2
HETATM    2  O1  UNL     1      25.039   3.329  53.508  1.00  0.00    -0.392 OA
HETATM    3  H1  UNL     1      24.813   4.313  53.519  1.00  0.00     0.210 HD
ENDBRANCH   1   2
BRANCH   1   4
HETATM    4  C2  UNL     1      24.100   3.912  51.448  1.00  0.00     0.303 C 
BRANCH   4   5
HETATM    5  N1  UNL     1      25.310   4.248  50.770  1.00  0.00     0.090 N 
HETATM    6  H5  UNL     1      26.078   3.553  50.928  1.00  0.00     0.316 HD
BRANCH   5   7
HETATM    7  C3  UNL     1      25.159   4.633  49.408  1.00  0.00     0.308 C 
BRANCH   7   8
HETATM    8  C4  UNL     1      26.176   5.527  48.852  1.00  0.00    -0.028 A 
HETATM    9  C5  UNL     1      26.094   6.807  48.372  1.00  0.00     0.009 A 
HETATM   10  C6  UNL     1      27.220   7.437  47.854  1.00  0.00     0.004 A 
HETATM   11  C7  UNL     1      28.449   6.809  47.800  1.00  0.00     0.042 A 
HETATM   12  C8  UNL     1      28.549   5.531  48.274  1.00  0.00     0.117 A 
HETATM   13  F1  UNL     1      29.768   4.952  48.205  1.00  0.00    -0.206 F 
HETATM   14  C9  UNL     1      27.434   4.915  48.786  1.00  0.00     0.051 A 
ENDBRANCH   7   8
ENDBRANCH   5   7
ENDBRANCH   4   5
ENDBRANCH   1   4
BRANCH   1  15
HETATM   15  C10 UNL     1      24.967   1.579  51.898  1.00  0.00     0.153 C 
BRANCH  15  16
HETATM   16  N2  UNL     1      26.293   1.614  52.490  1.00  0.00    -0.387 N 
HETATM   17  H14 UNL     1      26.786   2.478  52.854  1.00  0.00     0.159 HD
BRANCH  16  18
HETATM   18  C11 UNL     1      27.346   0.738  52.808  1.00  0.00     0.040 C 
HETATM   19  C12 UNL     1      28.335   1.534  53.210  1.00  0.00     0.003 C 
HETATM   20  C13 UNL     1      29.063   1.060  54.216  1.00  0.00     0.015 C 
HETATM   21  C14 UNL     1      29.142  -0.416  54.364  1.00  0.00     0.013 C 
HETATM   22  C15 UNL     1      28.713  -1.120  53.324  1.00  0.00    -0.024 C 
HETATM   23  C16 UNL     1      27.575  -0.696  52.802  1.00  0.00     0.042 C 
ENDBRANCH  16  18
ENDBRANCH  15  16
ENDBRANCH   1  15
TORSDOF 8
ENDMDL
MODEL 8
REMARK VINA RESULT:      -6.3      4.662      5.980
REMARK  8 active torsions:
REMARK  status: ('A' for Active; 'I' for Inactive)
REMARK    1  A    between atoms: O1_1  and  C1_2 
REMARK    2  A    between atoms: C1_2  and  C2_3 
REMARK    3  A    between atoms: C1_2  and  C10_13 
REMARK    4  A    between atoms: C2_3  and  N1_4 
REMARK    5  A    between atoms: N1_4  and  C3_5 
REMARK    6  A    between atoms: C3_5  and  C4_6 
REMARK    7  A    between atoms: C10_13  and  N2_14 
REMARK    8  A    between atoms: N2_14  and  C11_15 
ROOT
HETATM    1  C1  UNL     1      23.642   5.637  51.697  1.00  0.00     0.164 C 
ENDROOT
BRANCH   1   2
HETATM    2  O1  UNL     1      24.503   6.606  52.233  1.00  0.00    -0.392 OA
HETATM    3  H1  UNL     1      24.042   6.910  53.077  1.00  0.00     0.210 HD
ENDBRANCH   1   2
BRANCH   1   4
HETATM    4  C2  UNL     1      24.349   5.014  50.529  1.00  0.00     0.303 C 
BRANCH   4   5
HETATM    5  N1  UNL     1      25.655   5.546  50.312  1.00  0.00     0.090 N 
HETATM    6  H5  UNL     1      26.217   5.628  51.193  1.00  0.00     0.316 HD
BRANCH   5   7
HETATM    7  C3  UNL     1      26.374   4.974  49.225  1.00  0.00     0.308 C 
BRANCH   7   8
HETATM    8  C4  UNL     1      27.334   5.837  48.535  1.00  0.00    -0.028 A 
HETATM    9  C5  UNL     1      27.193   7.070  47.955  1.00  0.00     0.009 A 
HETATM   10  C6  UNL     1      28.270   7.675  47.318  1.00  0.00     0.004 A 
HETATM   11  C7  UNL     1      29.508   7.068  47.242  1.00  0.00     0.042 A 
HETATM   12  C8  UNL     1      29.668   5.838  47.815  1.00  0.00     0.117 A 
HETATM   13  F1  UNL     1      30.894   5.278  47.719  1.00  0.00    -0.206 F 
HETATM   14  C9  UNL     1      28.600   5.246  48.444  1.00  0.00     0.051 A 
ENDBRANCH   7   8
ENDBRANCH   5   7
ENDBRANCH   4   5
ENDBRANCH   1   4
BRANCH   1  15
HETATM   15  C10 UNL     1      23.277   4.645  52.789  1.00  0.00     0.153 C 
BRANCH  15  16
HETATM   16  N2  UNL     1      23.776   3.371  52.303  1.00  0.00    -0.387 N 
HETATM   17  H14 UNL     1      24.541   3.240  51.582  1.00  0.00     0.159 HD
BRANCH  16  18
HETATM   18  C11 UNL     1      23.557   1.995  52.489  1.00  0.00     0.040 C 
HETATM   19  C12 UNL     1      24.670   1.414  52.044  1.00  0.00     0.003 C 
HETATM   20  C13 UNL     1      25.067   0.354  52.741  1.00  0.00     0.015 C 
HETATM   21  C14 UNL     1      24.024  -0.416  53.464  1.00  0.00     0.013 C 
HETATM   22  C15 UNL     1      22.771  -0.142  53.126  1.00  0.00    -0.024 C 
HETATM   23  C16 UNL     1      22.499   1.146  53.009  1.00  0.00     0.042 C 
ENDBRANCH  16  18
ENDBRANCH  15  16
ENDBRANCH   1  15
TORSDOF 8
ENDMDL
MODEL 9
REMARK VINA RESULT:      -6.2      3.946      7.297
REMARK  8 active torsions:
REMARK  status: ('A' for Active; 'I' for Inactive)
REMARK    1  A    between atoms: O1_1  and  C1_2 
REMARK    2  A    between atoms: C1_2  and  C2_3 
REMARK    3  A    between atoms: C1_2  and  C10_13 
REMARK    4  A    between atoms: C2_3  and  N1_4 
REMARK    5  A    between atoms: N1_4  and  C3_5 
REMARK    6  A    between atoms: C3_5  and  C4_6 
REMARK    7  A    between atoms: C10_13  and  N2_14 
REMARK    8  A    between atoms: N2_14  and  C11_15 
ROOT
HETATM    1  C1  UNL     1      26.168   2.887  50.769  1.00  0.00     0.164 C 
ENDROOT
BRANCH   1   2
HETATM    2  O1  UNL     1      27.258   3.012  51.644  1.00  0.00    -0.392 OA
HETATM    3  H1  UNL     1      28.067   2.980  51.041  1.00  0.00     0.210 HD
ENDBRANCH   1   2
BRANCH   1   4
HETATM    4  C2  UNL     1      25.109   3.838  51.244  1.00  0.00     0.303 C 
BRANCH   4   5
HETATM    5  N1  UNL     1      24.413   3.373  52.400  1.00  0.00     0.090 N 
HETATM    6  H5  UNL     1      24.356   4.091  53.161  1.00  0.00     0.316 HD
BRANCH   5   7
HETATM    7  C3  UNL     1      23.180   2.710  52.146  1.00  0.00     0.308 C 
BRANCH   7   8
HETATM    8  C4  UNL     1      22.939   1.456  52.860  1.00  0.00    -0.028 A 
HETATM    9  C5  UNL     1      21.783   0.875  53.310  1.00  0.00     0.009 A 
HETATM   10  C6  UNL     1      21.825  -0.326  54.008  1.00  0.00     0.004 A 
HETATM   11  C7  UNL     1      23.015  -0.975  54.274  1.00  0.00     0.042 A 
HETATM   12  C8  UNL     1      24.178  -0.411  53.833  1.00  0.00     0.117 A 
HETATM   13  F1  UNL     1      25.320  -1.077  54.113  1.00  0.00    -0.206 F 
HETATM   14  C9  UNL     1      24.130   0.775  53.143  1.00  0.00     0.051 A 
ENDBRANCH   7   8
ENDBRANCH   5   7
ENDBRANCH   4   5
ENDBRANCH   1   4
BRANCH   1  15
HETATM   15  C10 UNL     1      26.641   3.159  49.351  1.00  0.00     0.153 C 
BRANCH  15  16
HETATM   16  N2  UNL     1      27.044   4.554  49.365  1.00  0.00    -0.387 N 
HETATM   17  H14 UNL     1      26.755   5.275  50.085  1.00  0.00     0.159 HD
BRANCH  16  18
HETATM   18  C11 UNL     1      27.832   5.448  48.618  1.00  0.00     0.040 C 
HETATM   19  C12 UNL     1      27.013   6.458  48.330  1.00  0.00     0.003 C 
HETATM   20  C13 UNL     1      27.576   7.662  48.354  1.00  0.00     0.015 C 
HETATM   21  C14 UNL     1      29.033   7.738  48.076  1.00  0.00     0.013 C 
HETATM   22  C15 UNL     1      29.577   6.643  47.561  1.00  0.00    -0.024 C 
HETATM   23  C16 UNL     1      29.202   5.515  48.140  1.00  0.00     0.042 C 
ENDBRANCH  16  18
ENDBRANCH  15  16
ENDBRANCH   1  15
TORSDOF 8
ENDMDL
