MODEL 1
REMARK VINA RESULT:      -9.0      0.000      0.000
REMARK  6 active torsions:
REMARK  status: ('A' for Active; 'I' for Inactive)
REMARK       I    between atoms: C1_2  and  N1_3 
REMARK       I    between atoms: C1_2  and  N3_12 
REMARK    1  A    between atoms: N1_3  and  C2_4 
REMARK    2  A    between atoms: C2_4  and  C3_5 
REMARK    3  A    between atoms: C3_5  and  N2_6 
REMARK    4  A    between atoms: N3_12  and  C9_13 
REMARK    5  A    between atoms: C14_20  and  N6_21 
REMARK    6  A    between atoms: N6_21  and  C15_22 
ROOT
HETATM    1  C9  UNL     1      22.741   1.383  51.888  1.00  0.00     0.037 A 
HETATM    2  C10 UNL     1      21.631   1.132  52.687  1.00  0.00     0.032 A 
HETATM    3  C11 UNL     1      21.727   0.329  53.824  1.00  0.00     0.035 A 
HETATM    4  C12 UNL     1      22.962  -0.232  54.163  1.00  0.00     0.072 A 
HETATM    5  N4  UNL     1      23.079  -1.014  55.262  1.00  0.00    -0.241 NA
HETATM    6  C13 UNL     1      24.298  -1.530  55.542  1.00  0.00     0.236 A 
HETATM    7  N5  UNL     1      25.361  -1.268  54.746  1.00  0.00    -0.224 NA
HETATM    8  C14 UNL     1      25.276  -0.504  53.661  1.00  0.00     0.141 A 
HETATM    9  C20 UNL     1      24.059   0.039  53.341  1.00  0.00     0.041 A 
HETATM   10  C21 UNL     1      23.932   0.828  52.237  1.00  0.00     0.047 A 
ENDROOT
BRANCH   1  11
HETATM   11  N3  UNL     1      22.634   2.203  50.732  1.00  0.00    -0.309 N 
HETATM   12  C1  UNL     1      22.912   3.588  50.545  1.00  0.00     0.320 C 
HETATM   13  O1  UNL     1      23.329   4.415  51.397  1.00  0.00    -0.247 OA
HETATM   14  N1  UNL     1      22.715   4.150  49.275  1.00  0.00    -0.341 N 
HETATM   15  H1  UNL     1      22.375   3.641  48.427  1.00  0.00     0.164 HD
HETATM   16  H16 UNL     1      22.289   1.649  49.908  1.00  0.00     0.170 HD
BRANCH  14  17
HETATM   17  C2  UNL     1      23.036   5.585  49.205  1.00  0.00     0.143 C 
BRANCH  17  18
HETATM   18  C3  UNL     1      24.344   5.749  48.495  1.00  0.00     0.136 C 
BRANCH  18  19
HETATM   19  N2  UNL     1      25.479   5.934  49.326  1.00  0.00    -0.411 N 
HETATM   20  C4  UNL     1      26.307   4.783  49.490  1.00  0.00     0.117 C 
HETATM   21  C5  UNL     1      27.546   4.775  48.651  1.00  0.00     0.019 C 
HETATM   22  C6  UNL     1      28.131   6.099  48.326  1.00  0.00     0.003 C 
HETATM   23  C7  UNL     1      27.023   7.094  47.960  1.00  0.00     0.019 C 
HETATM   24  C8  UNL     1      26.176   7.170  49.213  1.00  0.00     0.117 C 
ENDBRANCH  18  19
ENDBRANCH  17  18
ENDBRANCH  14  17
ENDBRANCH   1  11
BRANCH   8  25
HETATM   25  N6  UNL     1      26.447  -0.306  52.917  1.00  0.00    -0.342 N 
HETATM   26  H20 UNL     1      26.748  -0.710  52.005  1.00  0.00     0.167 HD
BRANCH  25  27
HETATM   27  C15 UNL     1      27.452   0.569  53.399  1.00  0.00     0.029 A 
HETATM   28  C16 UNL     1      27.481   1.841  53.033  1.00  0.00     0.026 A 
HETATM   29  C17 UNL     1      28.615   2.516  53.671  1.00  0.00    -0.001 A 
HETATM   30  C18 UNL     1      29.239   1.610  54.408  1.00  0.00    -0.005 A 
HETATM   31  C19 UNL     1      28.582   0.268  54.328  1.00  0.00     0.130 A 
HETATM   32 BR1  UNL     1      29.750  -1.080  53.638  1.00  0.00    -0.080 Br
ENDBRANCH  25  27
ENDBRANCH   8  25
TORSDOF 6
ENDMDL
MODEL 2
REMARK VINA RESULT:      -8.5      2.175      2.985
REMARK  6 active torsions:
REMARK  status: ('A' for Active; 'I' for Inactive)
REMARK       I    between atoms: C1_2  and  N1_3 
REMARK       I    between atoms: C1_2  and  N3_12 
REMARK    1  A    between atoms: N1_3  and  C2_4 
REMARK    2  A    between atoms: C2_4  and  C3_5 
REMARK    3  A    between atoms: C3_5  and  N2_6 
REMARK    4  A    between atoms: N3_12  and  C9_13 
REMARK    5  A    between atoms: C14_20  and  N6_21 
REMARK    6  A    between atoms: N6_21  and  C15_22 
ROOT
HETATM    1  C9  UNL     1      24.799   2.613  51.868  1.00  0.00     0.037 A 
HETATM    2  C10 UNL     1      23.529   2.153  51.542  1.00  0.00     0.032 A 
HETATM    3  C11 UNL     1      22.967   1.058  52.198  1.00  0.00     0.035 A 
HETATM    4  C12 UNL     1      23.697   0.413  53.201  1.00  0.00     0.072 A 
HETATM    5  N4  UNL     1      23.172  -0.652  53.852  1.00  0.00    -0.241 NA
HETATM    6  C13 UNL     1      23.924  -1.236  54.814  1.00  0.00     0.236 A 
HETATM    7  N5  UNL     1      25.157  -0.766  55.110  1.00  0.00    -0.224 NA
HETATM    8  C14 UNL     1      25.699   0.277  54.488  1.00  0.00     0.141 A 
HETATM    9  C20 UNL     1      24.971   0.899  53.506  1.00  0.00     0.041 A 
HETATM   10  C21 UNL     1      25.491   1.972  52.847  1.00  0.00     0.047 A 
ENDROOT
BRANCH   1  11
HETATM   11  N3  UNL     1      25.363   3.731  51.194  1.00  0.00    -0.309 N 
HETATM   12  C1  UNL     1      26.325   3.795  50.144  1.00  0.00     0.320 C 
HETATM   13  O1  UNL     1      26.904   2.838  49.567  1.00  0.00    -0.247 OA
HETATM   14  N1  UNL     1      26.709   5.052  49.658  1.00  0.00    -0.341 N 
HETATM   15  H1  UNL     1      26.352   5.975  49.997  1.00  0.00     0.164 HD
HETATM   16  H16 UNL     1      24.974   4.632  51.568  1.00  0.00     0.170 HD
BRANCH  14  17
HETATM   17  C2  UNL     1      27.706   4.992  48.576  1.00  0.00     0.143 C 
BRANCH  17  18
HETATM   18  C3  UNL     1      27.990   6.385  48.108  1.00  0.00     0.136 C 
BRANCH  18  19
HETATM   19  N2  UNL     1      29.274   6.895  48.430  1.00  0.00    -0.411 N 
HETATM   20  C4  UNL     1      30.306   5.916  48.551  1.00  0.00     0.117 C 
HETATM   21  C5  UNL     1      31.203   5.797  47.359  1.00  0.00     0.019 C 
HETATM   22  C6  UNL     1      31.409   7.032  46.564  1.00  0.00     0.003 C 
HETATM   23  C7  UNL     1      30.082   7.781  46.391  1.00  0.00     0.019 C 
HETATM   24  C8  UNL     1      29.667   8.114  47.810  1.00  0.00     0.117 C 
ENDBRANCH  18  19
ENDBRANCH  17  18
ENDBRANCH  14  17
ENDBRANCH   1  11
BRANCH   8  25
HETATM   25  N6  UNL     1      26.984   0.670  54.884  1.00  0.00    -0.342 N 
HETATM   26  H20 UNL     1      27.292   1.371  55.591  1.00  0.00     0.167 HD
BRANCH  25  27
HETATM   27  C15 UNL     1      28.122   0.076  54.283  1.00  0.00     0.029 A 
HETATM   28  C16 UNL     1      29.233   0.770  54.093  1.00  0.00     0.026 A 
HETATM   29  C17 UNL     1      30.245  -0.078  53.458  1.00  0.00    -0.001 A 
HETATM   30  C18 UNL     1      29.698  -1.271  53.285  1.00  0.00    -0.005 A 
HETATM   31  C19 UNL     1      28.289  -1.322  53.784  1.00  0.00     0.130 A 
HETATM   32 BR1  UNL     1      27.037  -1.754  52.405  1.00  0.00    -0.080 Br
ENDBRANCH  25  27
ENDBRANCH   8  25
TORSDOF 6
ENDMDL
MODEL 3
REMARK VINA RESULT:      -8.1      2.532      3.671
REMARK  6 active torsions:
REMARK  status: ('A' for Active; 'I' for Inactive)
REMARK       I    between atoms: C1_2  and  N1_3 
REMARK       I    between atoms: C1_2  and  N3_12 
REMARK    1  A    between atoms: N1_3  and  C2_4 
REMARK    2  A    between atoms: C2_4  and  C3_5 
REMARK    3  A    between atoms: C3_5  and  N2_6 
REMARK    4  A    between atoms: N3_12  and  C9_13 
REMARK    5  A    between atoms: C14_20  and  N6_21 
REMARK    6  A    between atoms: N6_21  and  C15_22 
ROOT
HETATM    1  C9  UNL     1      25.682   3.256  50.790  1.00  0.00     0.037 A 
HETATM    2  C10 UNL     1      24.470   3.009  50.157  1.00  0.00     0.032 A 
HETATM    3  C11 UNL     1      23.566   2.077  50.667  1.00  0.00     0.035 A 
HETATM    4  C12 UNL     1      23.889   1.379  51.835  1.00  0.00     0.072 A 
HETATM    5  N4  UNL     1      23.027   0.470  52.348  1.00  0.00    -0.241 NA
HETATM    6  C13 UNL     1      23.392  -0.175  53.481  1.00  0.00     0.236 A 
HETATM    7  N5  UNL     1      24.579   0.086  54.075  1.00  0.00    -0.224 NA
HETATM    8  C14 UNL     1      25.445   0.973  53.594  1.00  0.00     0.141 A 
HETATM    9  C20 UNL     1      25.115   1.649  52.448  1.00  0.00     0.041 A 
HETATM   10  C21 UNL     1      25.976   2.567  51.924  1.00  0.00     0.047 A 
ENDROOT
BRANCH   1  11
HETATM   11  N3  UNL     1      26.597   4.208  50.263  1.00  0.00    -0.309 N 
HETATM   12  C1  UNL     1      26.405   5.257  49.317  1.00  0.00     0.320 C 
HETATM   13  O1  UNL     1      25.344   5.576  48.721  1.00  0.00    -0.247 OA
HETATM   14  N1  UNL     1      27.501   6.061  48.971  1.00  0.00    -0.341 N 
HETATM   15  H1  UNL     1      28.472   5.968  49.348  1.00  0.00     0.164 HD
HETATM   16  H16 UNL     1      27.556   4.074  50.670  1.00  0.00     0.170 HD
BRANCH  14  17
HETATM   17  C2  UNL     1      27.181   7.109  47.987  1.00  0.00     0.143 C 
BRANCH  17  18
HETATM   18  C3  UNL     1      28.398   7.953  47.774  1.00  0.00     0.136 C 
BRANCH  18  19
HETATM   19  N2  UNL     1      29.052   8.403  48.950  1.00  0.00    -0.411 N 
HETATM   20  C4  UNL     1      30.475   8.294  48.935  1.00  0.00     0.117 C 
HETATM   21  C5  UNL     1      31.201   9.569  48.645  1.00  0.00     0.019 C 
HETATM   22  C6  UNL     1      30.534  10.821  49.079  1.00  0.00     0.003 C 
HETATM   23  C7  UNL     1      29.035  10.762  48.765  1.00  0.00     0.019 C 
HETATM   24  C8  UNL     1      28.542   9.578  49.572  1.00  0.00     0.117 C 
ENDBRANCH  18  19
ENDBRANCH  17  18
ENDBRANCH  14  17
ENDBRANCH   1  11
BRANCH   8  25
HETATM   25  N6  UNL     1      26.642   1.156  54.299  1.00  0.00    -0.342 N 
HETATM   26  H20 UNL     1      26.867   1.774  55.107  1.00  0.00     0.167 HD
BRANCH  25  27
HETATM   27  C15 UNL     1      27.798   0.425  53.930  1.00  0.00     0.029 A 
HETATM   28  C16 UNL     1      28.948   1.039  53.696  1.00  0.00     0.026 A 
HETATM   29  C17 UNL     1      29.972   0.056  53.335  1.00  0.00    -0.001 A 
HETATM   30  C18 UNL     1      29.393  -1.135  53.363  1.00  0.00    -0.005 A 
HETATM   31  C19 UNL     1      27.949  -1.049  53.742  1.00  0.00     0.130 A 
HETATM   32 BR1  UNL     1      26.792  -1.728  52.379  1.00  0.00    -0.080 Br
ENDBRANCH  25  27
ENDBRANCH   8  25
TORSDOF 6
ENDMDL
MODEL 4
REMARK VINA RESULT:      -8.0      1.691      2.163
REMARK  6 active torsions:
REMARK  status: ('A' for Active; 'I' for Inactive)
REMARK       I    between atoms: C1_2  and  N1_3 
REMARK       I    between atoms: C1_2  and  N3_12 
REMARK    1  A    between atoms: N1_3  and  C2_4 
REMARK    2  A    between atoms: C2_4  and  C3_5 
REMARK    3  A    between atoms: C3_5  and  N2_6 
REMARK    4  A    between atoms: N3_12  and  C9_13 
REMARK    5  A    between atoms: C14_20  and  N6_21 
REMARK    6  A    between atoms: N6_21  and  C15_22 
ROOT
HETATM    1  C9  UNL     1      21.954   1.003  52.402  1.00  0.00     0.037 A 
HETATM    2  C10 UNL     1      21.020   0.568  53.335  1.00  0.00     0.032 A 
HETATM    3  C11 UNL     1      21.402  -0.205  54.433  1.00  0.00     0.035 A 
HETATM    4  C12 UNL     1      22.748  -0.546  54.593  1.00  0.00     0.072 A 
HETATM    5  N4  UNL     1      23.142  -1.295  55.650  1.00  0.00    -0.241 NA
HETATM    6  C13 UNL     1      24.457  -1.595  55.755  1.00  0.00     0.236 A 
HETATM    7  N5  UNL     1      25.343  -1.157  54.831  1.00  0.00    -0.224 NA
HETATM    8  C14 UNL     1      24.986  -0.421  53.784  1.00  0.00     0.141 A 
HETATM    9  C20 UNL     1      23.662  -0.094  53.639  1.00  0.00     0.041 A 
HETATM   10  C21 UNL     1      23.258   0.660  52.578  1.00  0.00     0.047 A 
ENDROOT
BRANCH   1  11
HETATM   11  N3  UNL     1      21.556   1.790  51.287  1.00  0.00    -0.309 N 
HETATM   12  C1  UNL     1      21.159   3.157  51.208  1.00  0.00     0.320 C 
HETATM   13  O1  UNL     1      21.073   3.992  52.146  1.00  0.00    -0.247 OA
HETATM   14  N1  UNL     1      20.812   3.687  49.958  1.00  0.00    -0.341 N 
HETATM   15  H1  UNL     1      20.814   3.167  49.050  1.00  0.00     0.164 HD
HETATM   16  H16 UNL     1      21.574   1.225  50.402  1.00  0.00     0.170 HD
BRANCH  14  17
HETATM   17  C2  UNL     1      20.421   5.106  50.002  1.00  0.00     0.143 C 
BRANCH  17  18
HETATM   18  C3  UNL     1      20.987   5.796  48.800  1.00  0.00     0.136 C 
BRANCH  18  19
HETATM   19  N2  UNL     1      22.090   6.655  49.044  1.00  0.00    -0.411 N 
HETATM   20  C4  UNL     1      22.368   6.914  50.420  1.00  0.00     0.117 C 
HETATM   21  C5  UNL     1      23.501   6.121  50.992  1.00  0.00     0.019 C 
HETATM   22  C6  UNL     1      24.582   5.742  50.051  1.00  0.00     0.003 C 
HETATM   23  C7  UNL     1      23.988   5.281  48.715  1.00  0.00     0.019 C 
HETATM   24  C8  UNL     1      23.235   6.498  48.214  1.00  0.00     0.117 C 
ENDBRANCH  18  19
ENDBRANCH  17  18
ENDBRANCH  14  17
ENDBRANCH   1  11
BRANCH   8  25
HETATM   25  N6  UNL     1      25.996  -0.028  52.896  1.00  0.00    -0.342 N 
HETATM   26  H20 UNL     1      26.086  -0.164  51.866  1.00  0.00     0.167 HD
BRANCH  25  27
HETATM   27  C15 UNL     1      27.127   0.677  53.377  1.00  0.00     0.029 A 
HETATM   28  C16 UNL     1      27.308   1.956  53.086  1.00  0.00     0.026 A 
HETATM   29  C17 UNL     1      28.546   2.436  53.705  1.00  0.00    -0.001 A 
HETATM   30  C18 UNL     1      29.076   1.412  54.356  1.00  0.00    -0.005 A 
HETATM   31  C19 UNL     1      28.245   0.174  54.230  1.00  0.00     0.130 A 
HETATM   32 BR1  UNL     1      29.195  -1.266  53.404  1.00  0.00    -0.080 Br
ENDBRANCH  25  27
ENDBRANCH   8  25
TORSDOF 6
ENDMDL
MODEL 5
REMARK VINA RESULT:      -8.0      4.052      6.373
REMARK  6 active torsions:
REMARK  status: ('A' for Active; 'I' for Inactive)
REMARK       I    between atoms: C1_2  and  N1_3 
REMARK       I    between atoms: C1_2  and  N3_12 
REMARK    1  A    between atoms: N1_3  and  C2_4 
REMARK    2  A    between atoms: C2_4  and  C3_5 
REMARK    3  A    between atoms: C3_5  and  N2_6 
REMARK    4  A    between atoms: N3_12  and  C9_13 
REMARK    5  A    between atoms: C14_20  and  N6_21 
REMARK    6  A    between atoms: N6_21  and  C15_22 
ROOT
HETATM    1  C9  UNL     1      27.141   5.003  48.917  1.00  0.00     0.037 A 
HETATM    2  C10 UNL     1      26.250   6.070  48.898  1.00  0.00     0.032 A 
HETATM    3  C11 UNL     1      25.068   6.036  49.639  1.00  0.00     0.035 A 
HETATM    4  C12 UNL     1      24.777   4.908  50.411  1.00  0.00     0.072 A 
HETATM    5  N4  UNL     1      23.636   4.853  51.138  1.00  0.00    -0.241 NA
HETATM    6  C13 UNL     1      23.406   3.736  51.867  1.00  0.00     0.236 A 
HETATM    7  N5  UNL     1      24.291   2.713  51.865  1.00  0.00    -0.224 NA
HETATM    8  C14 UNL     1      25.419   2.739  51.162  1.00  0.00     0.141 A 
HETATM    9  C20 UNL     1      25.691   3.852  50.409  1.00  0.00     0.041 A 
HETATM   10  C21 UNL     1      26.838   3.916  49.675  1.00  0.00     0.047 A 
ENDROOT
BRANCH   1  11
HETATM   11  N3  UNL     1      28.343   5.046  48.159  1.00  0.00    -0.309 N 
HETATM   12  C1  UNL     1      29.409   5.991  48.161  1.00  0.00     0.320 C 
HETATM   13  O1  UNL     1      29.519   7.032  48.860  1.00  0.00    -0.247 OA
HETATM   14  N1  UNL     1      30.494   5.786  47.296  1.00  0.00    -0.341 N 
HETATM   15  H1  UNL     1      30.603   4.986  46.631  1.00  0.00     0.164 HD
HETATM   16  H16 UNL     1      28.407   4.224  47.508  1.00  0.00     0.170 HD
BRANCH  14  17
HETATM   17  C2  UNL     1      31.532   6.826  47.387  1.00  0.00     0.143 C 
BRANCH  17  18
HETATM   18  C3  UNL     1      32.864   6.199  47.119  1.00  0.00     0.136 C 
BRANCH  18  19
HETATM   19  N2  UNL     1      32.835   4.846  46.693  1.00  0.00    -0.411 N 
HETATM   20  C4  UNL     1      33.246   4.624  45.344  1.00  0.00     0.117 C 
HETATM   21  C5  UNL     1      34.646   4.120  45.188  1.00  0.00     0.019 C 
HETATM   22  C6  UNL     1      35.175   3.288  46.296  1.00  0.00     0.003 C 
HETATM   23  C7  UNL     1      34.775   3.888  47.650  1.00  0.00     0.019 C 
HETATM   24  C8  UNL     1      33.261   3.859  47.625  1.00  0.00     0.117 C 
ENDBRANCH  18  19
ENDBRANCH  17  18
ENDBRANCH  14  17
ENDBRANCH   1  11
BRANCH   8  25
HETATM   25  N6  UNL     1      26.256   1.618  51.241  1.00  0.00    -0.342 N 
HETATM   26  H20 UNL     1      26.496   0.897  50.528  1.00  0.00     0.167 HD
BRANCH  25  27
HETATM   27  C15 UNL     1      26.936   1.327  52.450  1.00  0.00     0.029 A 
HETATM   28  C16 UNL     1      27.965   2.059  52.847  1.00  0.00     0.026 A 
HETATM   29  C17 UNL     1      28.479   1.545  54.119  1.00  0.00    -0.001 A 
HETATM   30  C18 UNL     1      27.729   0.503  54.447  1.00  0.00    -0.005 A 
HETATM   31  C19 UNL     1      26.662   0.237  53.434  1.00  0.00     0.130 A 
HETATM   32 BR1  UNL     1      26.811  -1.502  52.651  1.00  0.00    -0.080 Br
ENDBRANCH  25  27
ENDBRANCH   8  25
TORSDOF 6
ENDMDL
MODEL 6
REMARK VINA RESULT:      -7.9      2.438      4.438
REMARK  6 active torsions:
REMARK  status: ('A' for Active; 'I' for Inactive)
REMARK       I    between atoms: C1_2  and  N1_3 
REMARK       I    between atoms: C1_2  and  N3_12 
REMARK    1  A    between atoms: N1_3  and  C2_4 
REMARK    2  A    between atoms: C2_4  and  C3_5 
REMARK    3  A    between atoms: C3_5  and  N2_6 
REMARK    4  A    between atoms: N3_12  and  C9_13 
REMARK    5  A    between atoms: C14_20  and  N6_21 
REMARK    6  A    between atoms: N6_21  and  C15_22 
ROOT
HETATM    1  C9  UNL     1      23.916   5.702  51.240  1.00  0.00     0.037 A 
HETATM    2  C10 UNL     1      22.762   5.925  50.498  1.00  0.00     0.032 A 
HETATM    3  C11 UNL     1      21.739   4.977  50.452  1.00  0.00     0.035 A 
HETATM    4  C12 UNL     1      21.881   3.782  51.164  1.00  0.00     0.072 A 
HETATM    5  N4  UNL     1      20.902   2.848  51.134  1.00  0.00    -0.241 NA
HETATM    6  C13 UNL     1      21.093   1.711  51.842  1.00  0.00     0.236 A 
HETATM    7  N5  UNL     1      22.227   1.522  52.556  1.00  0.00    -0.224 NA
HETATM    8  C14 UNL     1      23.205   2.420  52.605  1.00  0.00     0.141 A 
HETATM    9  C20 UNL     1      23.052   3.587  51.900  1.00  0.00     0.041 A 
HETATM   10  C21 UNL     1      24.033   4.533  51.926  1.00  0.00     0.047 A 
ENDROOT
BRANCH   1  11
HETATM   11  N3  UNL     1      24.953   6.674  51.283  1.00  0.00    -0.309 N 
HETATM   12  C1  UNL     1      25.590   7.400  50.235  1.00  0.00     0.320 C 
HETATM   13  O1  UNL     1      25.363   7.333  48.999  1.00  0.00    -0.247 OA
HETATM   14  N1  UNL     1      26.601   8.313  50.565  1.00  0.00    -0.341 N 
HETATM   15  H1  UNL     1      26.945   8.522  51.531  1.00  0.00     0.164 HD
HETATM   16  H16 UNL     1      25.264   6.849  52.271  1.00  0.00     0.170 HD
BRANCH  14  17
HETATM   17  C2  UNL     1      27.183   9.002  49.402  1.00  0.00     0.143 C 
BRANCH  17  18
HETATM   18  C3  UNL     1      28.662   8.776  49.402  1.00  0.00     0.136 C 
BRANCH  18  19
HETATM   19  N2  UNL     1      29.204   8.227  48.211  1.00  0.00    -0.411 N 
HETATM   20  C4  UNL     1      30.606   7.960  48.246  1.00  0.00     0.117 C 
HETATM   21  C5  UNL     1      30.968   6.527  48.477  1.00  0.00     0.019 C 
HETATM   22  C6  UNL     1      30.009   5.515  47.971  1.00  0.00     0.003 C 
HETATM   23  C7  UNL     1      28.569   5.949  48.273  1.00  0.00     0.019 C 
HETATM   24  C8  UNL     1      28.421   7.257  47.524  1.00  0.00     0.117 C 
ENDBRANCH  18  19
ENDBRANCH  17  18
ENDBRANCH  14  17
ENDBRANCH   1  11
BRANCH   8  25
HETATM   25  N6  UNL     1      24.331   2.109  53.378  1.00  0.00    -0.342 N 
HETATM   26  H20 UNL     1      24.689   2.538  54.258  1.00  0.00     0.167 HD
BRANCH  25  27
HETATM   27  C15 UNL     1      25.190   1.053  52.985  1.00  0.00     0.029 A 
HETATM   28  C16 UNL     1      24.914  -0.203  53.298  1.00  0.00     0.026 A 
HETATM   29  C17 UNL     1      25.959  -1.087  52.773  1.00  0.00    -0.001 A 
HETATM   30  C18 UNL     1      26.841  -0.317  52.154  1.00  0.00    -0.005 A 
HETATM   31  C19 UNL     1      26.465   1.129  52.211  1.00  0.00     0.130 A 
HETATM   32 BR1  UNL     1      27.786   2.197  53.092  1.00  0.00    -0.080 Br
ENDBRANCH  25  27
ENDBRANCH   8  25
TORSDOF 6
ENDMDL
MODEL 7
REMARK VINA RESULT:      -7.9      3.322      5.893
REMARK  6 active torsions:
REMARK  status: ('A' for Active; 'I' for Inactive)
REMARK       I    between atoms: C1_2  and  N1_3 
REMARK       I    between atoms: C1_2  and  N3_12 
REMARK    1  A    between atoms: N1_3  and  C2_4 
REMARK    2  A    between atoms: C2_4  and  C3_5 
REMARK    3  A    between atoms: C3_5  and  N2_6 
REMARK    4  A    between atoms: N3_12  and  C9_13 
REMARK    5  A    between atoms: C14_20  and  N6_21 
REMARK    6  A    between atoms: N6_21  and  C15_22 
ROOT
HETATM    1  C9  UNL     1      24.901   7.141  50.698  1.00  0.00     0.037 A 
HETATM    2  C10 UNL     1      23.745   7.910  50.771  1.00  0.00     0.032 A 
HETATM    3  C11 UNL     1      22.481   7.322  50.703  1.00  0.00     0.035 A 
HETATM    4  C12 UNL     1      22.380   5.935  50.557  1.00  0.00     0.072 A 
HETATM    5  N4  UNL     1      21.164   5.342  50.488  1.00  0.00    -0.241 NA
HETATM    6  C13 UNL     1      21.126   3.997  50.347  1.00  0.00     0.236 A 
HETATM    7  N5  UNL     1      22.268   3.275  50.278  1.00  0.00    -0.224 NA
HETATM    8  C14 UNL     1      23.475   3.829  50.343  1.00  0.00     0.141 A 
HETATM    9  C20 UNL     1      23.559   5.190  50.486  1.00  0.00     0.041 A 
HETATM   10  C21 UNL     1      24.778   5.795  50.557  1.00  0.00     0.047 A 
ENDROOT
BRANCH   1  11
HETATM   11  N3  UNL     1      26.184   7.749  50.769  1.00  0.00    -0.309 N 
HETATM   12  C1  UNL     1      27.040   8.237  49.740  1.00  0.00     0.320 C 
HETATM   13  O1  UNL     1      26.837   8.232  48.498  1.00  0.00    -0.247 OA
HETATM   14  N1  UNL     1      28.274   8.799  50.099  1.00  0.00    -0.341 N 
HETATM   15  H1  UNL     1      28.639   8.901  51.074  1.00  0.00     0.164 HD
HETATM   16  H16 UNL     1      26.507   7.830  51.766  1.00  0.00     0.170 HD
BRANCH  14  17
HETATM   17  C2  UNL     1      29.070   9.267  48.952  1.00  0.00     0.143 C 
BRANCH  17  18
HETATM   18  C3  UNL     1      30.403   8.589  48.986  1.00  0.00     0.136 C 
BRANCH  18  19
HETATM   19  N2  UNL     1      30.770   7.886  47.809  1.00  0.00    -0.411 N 
HETATM   20  C4  UNL     1      32.104   7.380  47.793  1.00  0.00     0.117 C 
HETATM   21  C5  UNL     1      32.227   5.921  48.101  1.00  0.00     0.019 C 
HETATM   22  C6  UNL     1      31.079   5.066  47.712  1.00  0.00     0.003 C 
HETATM   23  C7  UNL     1      29.757   5.762  48.054  1.00  0.00     0.019 C 
HETATM   24  C8  UNL     1      29.792   7.032  47.228  1.00  0.00     0.117 C 
ENDBRANCH  18  19
ENDBRANCH  17  18
ENDBRANCH  14  17
ENDBRANCH   1  11
BRANCH   8  25
HETATM   25  N6  UNL     1      24.583   2.976  50.261  1.00  0.00    -0.342 N 
HETATM   26  H20 UNL     1      25.032   2.524  49.436  1.00  0.00     0.167 HD
BRANCH  25  27
HETATM   27  C15 UNL     1      25.278   2.603  51.438  1.00  0.00     0.029 A 
HETATM   28  C16 UNL     1      26.589   2.418  51.427  1.00  0.00     0.026 A 
HETATM   29  C17 UNL     1      27.049   2.041  52.766  1.00  0.00    -0.001 A 
HETATM   30  C18 UNL     1      25.981   2.011  53.548  1.00  0.00    -0.005 A 
HETATM   31  C19 UNL     1      24.730   2.362  52.807  1.00  0.00     0.130 A 
HETATM   32 BR1  UNL     1      23.440   0.951  52.834  1.00  0.00    -0.080 Br
ENDBRANCH  25  27
ENDBRANCH   8  25
TORSDOF 6
ENDMDL
MODEL 8
REMARK VINA RESULT:      -7.9      3.079      5.059
REMARK  6 active torsions:
REMARK  status: ('A' for Active; 'I' for Inactive)
REMARK       I    between atoms: C1_2  and  N1_3 
REMARK       I    between atoms: C1_2  and  N3_12 
REMARK    1  A    between atoms: N1_3  and  C2_4 
REMARK    2  A    between atoms: C2_4  and  C3_5 
REMARK    3  A    between atoms: C3_5  and  N2_6 
REMARK    4  A    between atoms: N3_12  and  C9_13 
REMARK    5  A    between atoms: C14_20  and  N6_21 
REMARK    6  A    between atoms: N6_21  and  C15_22 
ROOT
HETATM    1  C9  UNL     1      24.866   4.665  49.856  1.00  0.00     0.037 A 
HETATM    2  C10 UNL     1      23.972   4.707  48.792  1.00  0.00     0.032 A 
HETATM    3  C11 UNL     1      22.939   3.775  48.680  1.00  0.00     0.035 A 
HETATM    4  C12 UNL     1      22.805   2.783  49.655  1.00  0.00     0.072 A 
HETATM    5  N4  UNL     1      21.811   1.868  49.567  1.00  0.00    -0.241 NA
HETATM    6  C13 UNL     1      21.728   0.930  50.539  1.00  0.00     0.236 A 
HETATM    7  N5  UNL     1      22.613   0.914  51.563  1.00  0.00    -0.224 NA
HETATM    8  C14 UNL     1      23.599   1.799  51.676  1.00  0.00     0.141 A 
HETATM    9  C20 UNL     1      23.719   2.767  50.711  1.00  0.00     0.041 A 
HETATM   10  C21 UNL     1      24.716   3.692  50.793  1.00  0.00     0.047 A 
ENDROOT
BRANCH   1  11
HETATM   11  N3  UNL     1      25.914   5.619  49.962  1.00  0.00    -0.309 N 
HETATM   12  C1  UNL     1      25.904   7.035  49.798  1.00  0.00     0.320 C 
HETATM   13  O1  UNL     1      24.925   7.772  49.511  1.00  0.00    -0.247 OA
HETATM   14  N1  UNL     1      27.103   7.742  49.964  1.00  0.00    -0.341 N 
HETATM   15  H1  UNL     1      28.032   7.324  50.204  1.00  0.00     0.164 HD
HETATM   16  H16 UNL     1      26.824   5.153  50.204  1.00  0.00     0.170 HD
BRANCH  14  17
HETATM   17  C2  UNL     1      26.968   9.195  49.770  1.00  0.00     0.143 C 
BRANCH  17  18
HETATM   18  C3  UNL     1      28.332   9.811  49.795  1.00  0.00     0.136 C 
BRANCH  18  19
HETATM   19  N2  UNL     1      28.683  10.582  48.657  1.00  0.00    -0.411 N 
HETATM   20  C4  UNL     1      28.799  11.986  48.886  1.00  0.00     0.117 C 
HETATM   21  C5  UNL     1      30.202  12.485  49.035  1.00  0.00     0.019 C 
HETATM   22  C6  UNL     1      31.248  11.742  48.293  1.00  0.00     0.003 C 
HETATM   23  C7  UNL     1      31.008  10.231  48.405  1.00  0.00     0.019 C 
HETATM   24  C8  UNL     1      29.648  10.032  47.768  1.00  0.00     0.117 C 
ENDBRANCH  18  19
ENDBRANCH  17  18
ENDBRANCH  14  17
ENDBRANCH   1  11
BRANCH   8  25
HETATM   25  N6  UNL     1      24.451   1.679  52.781  1.00  0.00    -0.342 N 
HETATM   26  H20 UNL     1      24.485   2.216  53.674  1.00  0.00     0.167 HD
BRANCH  25  27
HETATM   27  C15 UNL     1      25.472   0.696  52.784  1.00  0.00     0.029 A 
HETATM   28  C16 UNL     1      25.240  -0.527  53.234  1.00  0.00     0.026 A 
HETATM   29  C17 UNL     1      26.457  -1.336  53.125  1.00  0.00    -0.001 A 
HETATM   30  C18 UNL     1      27.394  -0.557  52.606  1.00  0.00    -0.005 A 
HETATM   31  C19 UNL     1      26.888   0.823  52.326  1.00  0.00     0.130 A 
HETATM   32 BR1  UNL     1      27.846   2.165  53.294  1.00  0.00    -0.080 Br
ENDBRANCH  25  27
ENDBRANCH   8  25
TORSDOF 6
ENDMDL
MODEL 9
REMARK VINA RESULT:      -7.8      3.170      8.528
REMARK  6 active torsions:
REMARK  status: ('A' for Active; 'I' for Inactive)
REMARK       I    between atoms: C1_2  and  N1_3 
REMARK       I    between atoms: C1_2  and  N3_12 
REMARK    1  A    between atoms: N1_3  and  C2_4 
REMARK    2  A    between atoms: C2_4  and  C3_5 
REMARK    3  A    between atoms: C3_5  and  N2_6 
REMARK    4  A    between atoms: N3_12  and  C9_13 
REMARK    5  A    between atoms: C14_20  and  N6_21 
REMARK    6  A    between atoms: N6_21  and  C15_22 
ROOT
HETATM    1  C9  UNL     1      23.908   6.687  51.183  1.00  0.00     0.037 A 
HETATM    2  C10 UNL     1      22.692   7.146  50.691  1.00  0.00     0.032 A 
HETATM    3  C11 UNL     1      22.638   8.138  49.711  1.00  0.00     0.035 A 
HETATM    4  C12 UNL     1      23.830   8.678  49.218  1.00  0.00     0.072 A 
HETATM    5  N4  UNL     1      23.802   9.641  48.267  1.00  0.00    -0.241 NA
HETATM    6  C13 UNL     1      24.985  10.128  47.827  1.00  0.00     0.236 A 
HETATM    7  N5  UNL     1      26.154   9.662  48.326  1.00  0.00    -0.224 NA
HETATM    8  C14 UNL     1      26.212   8.717  49.259  1.00  0.00     0.141 A 
HETATM    9  C20 UNL     1      25.036   8.197  49.733  1.00  0.00     0.041 A 
HETATM   10  C21 UNL     1      25.054   7.226  50.690  1.00  0.00     0.047 A 
ENDROOT
BRANCH   1  11
HETATM   11  N3  UNL     1      23.953   5.676  52.181  1.00  0.00    -0.309 N 
HETATM   12  C1  UNL     1      24.307   4.299  52.094  1.00  0.00     0.320 C 
HETATM   13  O1  UNL     1      24.669   3.657  51.074  1.00  0.00    -0.247 OA
HETATM   14  N1  UNL     1      24.263   3.516  53.256  1.00  0.00    -0.341 N 
HETATM   15  H1  UNL     1      23.990   3.850  54.209  1.00  0.00     0.164 HD
HETATM   16  H16 UNL     1      23.671   6.059  53.118  1.00  0.00     0.170 HD
BRANCH  14  17
HETATM   17  C2  UNL     1      24.650   2.111  53.042  1.00  0.00     0.143 C 
BRANCH  17  18
HETATM   18  C3  UNL     1      25.943   1.857  53.751  1.00  0.00     0.136 C 
BRANCH  18  19
HETATM   19  N2  UNL     1      26.149   0.529  54.205  1.00  0.00    -0.411 N 
HETATM   20  C4  UNL     1      25.643  -0.493  53.347  1.00  0.00     0.117 C 
HETATM   21  C5  UNL     1      26.673  -1.160  52.490  1.00  0.00     0.019 C 
HETATM   22  C6  UNL     1      28.045  -1.238  53.047  1.00  0.00     0.003 C 
HETATM   23  C7  UNL     1      28.421   0.087  53.721  1.00  0.00     0.019 C 
HETATM   24  C8  UNL     1      27.396   0.236  54.825  1.00  0.00     0.117 C 
ENDBRANCH  18  19
ENDBRANCH  17  18
ENDBRANCH  14  17
ENDBRANCH   1  11
BRANCH   8  25
HETATM   25  N6  UNL     1      27.482   8.317  49.695  1.00  0.00    -0.342 N 
HETATM   26  H20 UNL     1      27.881   8.253  50.656  1.00  0.00     0.167 HD
BRANCH  25  27
HETATM   27  C15 UNL     1      28.460   7.913  48.752  1.00  0.00     0.029 A 
HETATM   28  C16 UNL     1      28.534   6.657  48.342  1.00  0.00     0.026 A 
HETATM   29  C17 UNL     1      29.625   6.514  47.374  1.00  0.00    -0.001 A 
HETATM   30  C18 UNL     1      30.179   7.709  47.236  1.00  0.00    -0.005 A 
HETATM   31  C19 UNL     1      29.512   8.741  48.088  1.00  0.00     0.130 A 
HETATM   32 BR1  UNL     1      30.709   9.538  49.348  1.00  0.00    -0.080 Br
ENDBRANCH  25  27
ENDBRANCH   8  25
TORSDOF 6
ENDMDL
