MODEL 1
REMARK VINA RESULT:      -9.0      0.000      0.000
REMARK  3 active torsions:
REMARK  status: ('A' for Active; 'I' for Inactive)
REMARK    1  A    between atoms: C2_2  and  C3_3 
REMARK       I    between atoms: C3_3  and  N1_5 
REMARK    2  A    between atoms: N1_5  and  C4_6 
REMARK    3  A    between atoms: C14_19  and  C15_20 
ROOT
HETATM    1  C4  UNL     1      28.507   5.862  48.162  1.00  0.00     0.035 A 
HETATM    2  C5  UNL     1      27.888   7.115  48.197  1.00  0.00     0.032 A 
HETATM    3  C6  UNL     1      26.637   7.240  48.801  1.00  0.00     0.040 A 
HETATM    4  C7  UNL     1      26.068   6.099  49.340  1.00  0.00     0.086 A 
HETATM    5  C8  UNL     1      26.661   4.852  49.318  1.00  0.00    -0.004 A 
HETATM    6  C9  UNL     1      27.899   4.753  48.714  1.00  0.00     0.041 A 
HETATM    7  C10 UNL     1      26.279   3.535  49.803  1.00  0.00     0.161 C 
HETATM    8  N2  UNL     1      25.386   3.540  50.937  1.00  0.00    -0.380 N 
HETATM    9  C11 UNL     1      24.225   4.352  51.082  1.00  0.00     0.112 A 
HETATM   10  C12 UNL     1      23.957   5.642  50.634  1.00  0.00     0.200 A 
HETATM   11  N3  UNL     1      22.795   6.255  50.884  1.00  0.00    -0.215 NA
HETATM   12  C13 UNL     1      21.875   5.574  51.595  1.00  0.00     0.236 A 
HETATM   13  N4  UNL     1      22.080   4.315  52.059  1.00  0.00    -0.239 NA
HETATM   14  C14 UNL     1      23.255   3.661  51.819  1.00  0.00     0.099 A 
HETATM   15  O2  UNL     1      24.839   6.446  49.885  1.00  0.00    -0.289 OA
HETATM   16  H10 UNL     1      25.481   2.940  51.813  1.00  0.00     0.160 HD
ENDROOT
BRANCH  14  17
HETATM   17  C15 UNL     1      23.419   2.310  52.338  1.00  0.00    -0.004 A 
HETATM   18  C16 UNL     1      22.314   1.522  51.993  1.00  0.00     0.014 A 
HETATM   19  C17 UNL     1      22.213   0.189  52.349  1.00  0.00     0.002 A 
HETATM   20  C18 UNL     1      23.239  -0.380  53.070  1.00  0.00     0.019 A 
HETATM   21  C19 UNL     1      24.333   0.383  53.415  1.00  0.00     0.011 A 
HETATM   22 BR1  UNL     1      25.823  -0.271  54.408  1.00  0.00    -0.051 Br
HETATM   23  C20 UNL     1      24.437   1.706  53.064  1.00  0.00     0.033 A 
ENDBRANCH  14  17
BRANCH   1  24
HETATM   24  N1  UNL     1      29.769   5.923  47.511  1.00  0.00    -0.324 N 
HETATM   25  C3  UNL     1      31.005   5.707  48.177  1.00  0.00     0.241 C 
HETATM   26  O1  UNL     1      31.037   5.444  49.406  1.00  0.00    -0.269 OA
HETATM   27  H4  UNL     1      29.601   6.147  46.505  1.00  0.00     0.169 HD
BRANCH  25  28
HETATM   28  C2  UNL     1      32.108   5.835  47.258  1.00  0.00     0.048 C 
HETATM   29  C1  UNL     1      32.636   4.957  46.407  1.00  0.00     0.037 C 
ENDBRANCH  25  28
ENDBRANCH   1  24
TORSDOF 3
ENDMDL
MODEL 2
REMARK VINA RESULT:      -8.9      3.671      5.883
REMARK  3 active torsions:
REMARK  status: ('A' for Active; 'I' for Inactive)
REMARK    1  A    between atoms: C2_2  and  C3_3 
REMARK       I    between atoms: C3_3  and  N1_5 
REMARK    2  A    between atoms: N1_5  and  C4_6 
REMARK    3  A    between atoms: C14_19  and  C15_20 
ROOT
HETATM    1  C4  UNL     1      25.810   3.101  50.486  1.00  0.00     0.035 A 
HETATM    2  C5  UNL     1      26.739   2.439  51.294  1.00  0.00     0.032 A 
HETATM    3  C6  UNL     1      26.286   1.525  52.245  1.00  0.00     0.040 A 
HETATM    4  C7  UNL     1      24.920   1.322  52.339  1.00  0.00     0.086 A 
HETATM    5  C8  UNL     1      23.985   1.964  51.553  1.00  0.00    -0.004 A 
HETATM    6  C9  UNL     1      24.458   2.865  50.618  1.00  0.00     0.041 A 
HETATM    7  C10 UNL     1      22.534   1.925  51.459  1.00  0.00     0.161 C 
HETATM    8  N2  UNL     1      21.932   0.679  51.872  1.00  0.00    -0.380 N 
HETATM    9  C11 UNL     1      22.260  -0.060  53.044  1.00  0.00     0.112 A 
HETATM   10  C12 UNL     1      23.471  -0.214  53.711  1.00  0.00     0.200 A 
HETATM   11  N3  UNL     1      23.589  -0.972  54.807  1.00  0.00    -0.215 NA
HETATM   12  C13 UNL     1      22.479  -1.592  55.253  1.00  0.00     0.236 A 
HETATM   13  N4  UNL     1      21.271  -1.480  54.645  1.00  0.00    -0.239 NA
HETATM   14  C14 UNL     1      21.119  -0.713  53.525  1.00  0.00     0.099 A 
HETATM   15  O2  UNL     1      24.691   0.384  53.337  1.00  0.00    -0.289 OA
HETATM   16  H10 UNL     1      21.167   0.149  51.350  1.00  0.00     0.160 HD
ENDROOT
BRANCH  14  17
HETATM   17  C15 UNL     1      19.798  -0.626  52.915  1.00  0.00    -0.004 A 
HETATM   18  C16 UNL     1      18.900  -1.464  53.586  1.00  0.00     0.014 A 
HETATM   19  C17 UNL     1      17.569  -1.568  53.222  1.00  0.00     0.002 A 
HETATM   20  C18 UNL     1      17.115  -0.819  52.160  1.00  0.00     0.019 A 
HETATM   21  C19 UNL     1      17.988   0.010  51.491  1.00  0.00     0.011 A 
HETATM   22 BR1  UNL     1      17.501   1.103  50.006  1.00  0.00    -0.051 Br
HETATM   23  C20 UNL     1      19.310   0.117  51.848  1.00  0.00     0.033 A 
ENDBRANCH  14  17
BRANCH   1  24
HETATM   24  N1  UNL     1      26.450   3.990  49.580  1.00  0.00    -0.324 N 
HETATM   25  C3  UNL     1      26.180   5.385  49.531  1.00  0.00     0.241 C 
HETATM   26  O1  UNL     1      25.342   5.907  50.308  1.00  0.00    -0.269 OA
HETATM   27  H4  UNL     1      27.114   3.434  48.998  1.00  0.00     0.169 HD
BRANCH  25  28
HETATM   28  C2  UNL     1      26.979   6.021  48.514  1.00  0.00     0.048 C 
HETATM   29  C1  UNL     1      28.274   5.902  48.224  1.00  0.00     0.037 C 
ENDBRANCH  25  28
ENDBRANCH   1  24
TORSDOF 3
ENDMDL
MODEL 3
REMARK VINA RESULT:      -8.7      3.089      4.860
REMARK  3 active torsions:
REMARK  status: ('A' for Active; 'I' for Inactive)
REMARK    1  A    between atoms: C2_2  and  C3_3 
REMARK       I    between atoms: C3_3  and  N1_5 
REMARK    2  A    between atoms: N1_5  and  C4_6 
REMARK    3  A    between atoms: C14_19  and  C15_20 
ROOT
HETATM    1  C4  UNL     1      25.323   5.833  48.909  1.00  0.00     0.035 A 
HETATM    2  C5  UNL     1      26.654   5.430  48.758  1.00  0.00     0.032 A 
HETATM    3  C6  UNL     1      27.104   4.298  49.436  1.00  0.00     0.040 A 
HETATM    4  C7  UNL     1      26.196   3.626  50.235  1.00  0.00     0.086 A 
HETATM    5  C8  UNL     1      24.878   4.004  50.399  1.00  0.00    -0.004 A 
HETATM    6  C9  UNL     1      24.455   5.129  49.717  1.00  0.00     0.041 A 
HETATM    7  C10 UNL     1      23.756   3.479  51.160  1.00  0.00     0.161 C 
HETATM    8  N2  UNL     1      23.806   2.059  51.415  1.00  0.00    -0.380 N 
HETATM    9  C11 UNL     1      24.945   1.330  51.861  1.00  0.00     0.112 A 
HETATM   10  C12 UNL     1      26.300   1.515  51.605  1.00  0.00     0.200 A 
HETATM   11  N3  UNL     1      27.237   0.706  52.110  1.00  0.00    -0.215 NA
HETATM   12  C13 UNL     1      26.822  -0.313  52.888  1.00  0.00     0.236 A 
HETATM   13  N4  UNL     1      25.516  -0.544  53.173  1.00  0.00    -0.239 NA
HETATM   14  C14 UNL     1      24.535   0.265  52.674  1.00  0.00     0.099 A 
HETATM   15  O2  UNL     1      26.847   2.542  50.810  1.00  0.00    -0.289 OA
HETATM   16  H10 UNL     1      22.998   1.373  51.300  1.00  0.00     0.160 HD
ENDROOT
BRANCH  14  17
HETATM   17  C15 UNL     1      23.149  -0.029  53.013  1.00  0.00    -0.004 A 
HETATM   18  C16 UNL     1      23.077  -0.618  54.281  1.00  0.00     0.014 A 
HETATM   19  C17 UNL     1      21.877  -0.990  54.860  1.00  0.00     0.002 A 
HETATM   20  C18 UNL     1      20.712  -0.771  54.160  1.00  0.00     0.019 A 
HETATM   21  C19 UNL     1      20.767  -0.191  52.911  1.00  0.00     0.011 A 
HETATM   22 BR1  UNL     1      19.239   0.171  51.831  1.00  0.00    -0.051 Br
HETATM   23  C20 UNL     1      21.956   0.179  52.333  1.00  0.00     0.033 A 
ENDBRANCH  14  17
BRANCH   1  24
HETATM   24  N1  UNL     1      25.043   7.000  48.148  1.00  0.00    -0.324 N 
HETATM   25  C3  UNL     1      25.047   8.311  48.696  1.00  0.00     0.241 C 
HETATM   26  O1  UNL     1      25.304   8.501  49.911  1.00  0.00    -0.269 OA
HETATM   27  H4  UNL     1      24.848   6.705  47.166  1.00  0.00     0.169 HD
BRANCH  25  28
HETATM   28  C2  UNL     1      24.728   9.287  47.684  1.00  0.00     0.048 C 
HETATM   29  C1  UNL     1      24.953   9.283  46.371  1.00  0.00     0.037 C 
ENDBRANCH  25  28
ENDBRANCH   1  24
TORSDOF 3
ENDMDL
MODEL 4
REMARK VINA RESULT:      -8.7      5.065      6.924
REMARK  3 active torsions:
REMARK  status: ('A' for Active; 'I' for Inactive)
REMARK    1  A    between atoms: C2_2  and  C3_3 
REMARK       I    between atoms: C3_3  and  N1_5 
REMARK    2  A    between atoms: N1_5  and  C4_6 
REMARK    3  A    between atoms: C14_19  and  C15_20 
ROOT
HETATM    1  C4  UNL     1      26.145   0.318  52.873  1.00  0.00     0.035 A 
HETATM    2  C5  UNL     1      25.133  -0.535  53.325  1.00  0.00     0.032 A 
HETATM    3  C6  UNL     1      23.804  -0.124  53.231  1.00  0.00     0.040 A 
HETATM    4  C7  UNL     1      23.556   1.125  52.687  1.00  0.00     0.086 A 
HETATM    5  C8  UNL     1      24.538   1.983  52.235  1.00  0.00    -0.004 A 
HETATM    6  C9  UNL     1      25.847   1.554  52.339  1.00  0.00     0.041 A 
HETATM    7  C10 UNL     1      24.535   3.309  51.639  1.00  0.00     0.161 C 
HETATM    8  N2  UNL     1      23.334   3.647  50.912  1.00  0.00    -0.380 N 
HETATM    9  C11 UNL     1      22.000   3.423  51.354  1.00  0.00     0.112 A 
HETATM   10  C12 UNL     1      21.459   2.405  52.134  1.00  0.00     0.200 A 
HETATM   11  N3  UNL     1      20.158   2.356  52.438  1.00  0.00    -0.215 NA
HETATM   12  C13 UNL     1      19.372   3.339  51.958  1.00  0.00     0.236 A 
HETATM   13  N4  UNL     1      19.841   4.357  51.192  1.00  0.00    -0.239 NA
HETATM   14  C14 UNL     1      21.165   4.436  50.866  1.00  0.00     0.099 A 
HETATM   15  O2  UNL     1      22.182   1.330  52.688  1.00  0.00    -0.289 OA
HETATM   16  H10 UNL     1      23.292   4.103  49.949  1.00  0.00     0.160 HD
ENDROOT
BRANCH  14  17
HETATM   17  C15 UNL     1      21.614   5.552  50.043  1.00  0.00    -0.004 A 
HETATM   18  C16 UNL     1      21.784   6.696  50.833  1.00  0.00     0.014 A 
HETATM   19  C17 UNL     1      22.218   7.901  50.309  1.00  0.00     0.002 A 
HETATM   20  C18 UNL     1      22.490   7.974  48.961  1.00  0.00     0.019 A 
HETATM   21  C19 UNL     1      22.327   6.856  48.172  1.00  0.00     0.011 A 
HETATM   22 BR1  UNL     1      22.665   6.811  46.297  1.00  0.00    -0.051 Br
HETATM   23  C20 UNL     1      21.897   5.658  48.688  1.00  0.00     0.033 A 
ENDBRANCH  14  17
BRANCH   1  24
HETATM   24  N1  UNL     1      27.430  -0.263  53.047  1.00  0.00    -0.324 N 
HETATM   25  C3  UNL     1      28.311   0.088  54.105  1.00  0.00     0.241 C 
HETATM   26  O1  UNL     1      27.983   0.952  54.957  1.00  0.00    -0.269 OA
HETATM   27  H4  UNL     1      27.577  -0.956  52.280  1.00  0.00     0.169 HD
BRANCH  25  28
HETATM   28  C2  UNL     1      29.536  -0.667  54.019  1.00  0.00     0.048 C 
HETATM   29  C1  UNL     1      29.792  -1.847  53.457  1.00  0.00     0.037 C 
ENDBRANCH  25  28
ENDBRANCH   1  24
TORSDOF 3
ENDMDL
MODEL 5
REMARK VINA RESULT:      -8.5      4.900      6.809
REMARK  3 active torsions:
REMARK  status: ('A' for Active; 'I' for Inactive)
REMARK    1  A    between atoms: C2_2  and  C3_3 
REMARK       I    between atoms: C3_3  and  N1_5 
REMARK    2  A    between atoms: N1_5  and  C4_6 
REMARK    3  A    between atoms: C14_19  and  C15_20 
ROOT
HETATM    1  C4  UNL     1      26.189   0.210  52.772  1.00  0.00     0.035 A 
HETATM    2  C5  UNL     1      25.182  -0.278  53.610  1.00  0.00     0.032 A 
HETATM    3  C6  UNL     1      23.899   0.262  53.518  1.00  0.00     0.040 A 
HETATM    4  C7  UNL     1      23.690   1.266  52.589  1.00  0.00     0.086 A 
HETATM    5  C8  UNL     1      24.669   1.763  51.752  1.00  0.00    -0.004 A 
HETATM    6  C9  UNL     1      25.932   1.214  51.861  1.00  0.00     0.041 A 
HETATM    7  C10 UNL     1      24.701   2.787  50.719  1.00  0.00     0.161 C 
HETATM    8  N2  UNL     1      23.441   3.019  50.054  1.00  0.00    -0.380 N 
HETATM    9  C11 UNL     1      22.174   3.158  50.690  1.00  0.00     0.112 A 
HETATM   10  C12 UNL     1      21.665   2.562  51.840  1.00  0.00     0.200 A 
HETATM   11  N3  UNL     1      20.427   2.809  52.282  1.00  0.00    -0.215 NA
HETATM   12  C13 UNL     1      19.674   3.667  51.565  1.00  0.00     0.236 A 
HETATM   13  N4  UNL     1      20.115   4.277  50.437  1.00  0.00    -0.239 NA
HETATM   14  C14 UNL     1      21.375   4.047  49.962  1.00  0.00     0.099 A 
HETATM   15  O2  UNL     1      22.359   1.654  52.665  1.00  0.00    -0.289 OA
HETATM   16  H10 UNL     1      23.295   3.114  49.002  1.00  0.00     0.160 HD
ENDROOT
BRANCH  14  17
HETATM   17  C15 UNL     1      21.797   4.731  48.746  1.00  0.00    -0.004 A 
HETATM   18  C16 UNL     1      21.188   4.148  47.628  1.00  0.00     0.014 A 
HETATM   19  C17 UNL     1      21.404   4.610  46.341  1.00  0.00     0.002 A 
HETATM   20  C18 UNL     1      22.248   5.681  46.158  1.00  0.00     0.019 A 
HETATM   21  C19 UNL     1      22.854   6.264  47.249  1.00  0.00     0.011 A 
HETATM   22 BR1  UNL     1      24.044   7.750  47.146  1.00  0.00    -0.051 Br
HETATM   23  C20 UNL     1      22.643   5.810  48.528  1.00  0.00     0.033 A 
ENDBRANCH  14  17
BRANCH   1  24
HETATM   24  N1  UNL     1      27.425  -0.453  53.004  1.00  0.00    -0.324 N 
HETATM   25  C3  UNL     1      28.420   0.035  53.893  1.00  0.00     0.241 C 
HETATM   26  O1  UNL     1      28.246   1.104  54.531  1.00  0.00    -0.269 OA
HETATM   27  H4  UNL     1      27.441  -1.316  52.418  1.00  0.00     0.169 HD
BRANCH  25  28
HETATM   28  C2  UNL     1      29.558  -0.849  53.918  1.00  0.00     0.048 C 
HETATM   29  C1  UNL     1      29.725  -2.065  53.401  1.00  0.00     0.037 C 
ENDBRANCH  25  28
ENDBRANCH   1  24
TORSDOF 3
ENDMDL
MODEL 6
REMARK VINA RESULT:      -8.3      3.977      9.365
REMARK  3 active torsions:
REMARK  status: ('A' for Active; 'I' for Inactive)
REMARK    1  A    between atoms: C2_2  and  C3_3 
REMARK       I    between atoms: C3_3  and  N1_5 
REMARK    2  A    between atoms: N1_5  and  C4_6 
REMARK    3  A    between atoms: C14_19  and  C15_20 
ROOT
HETATM    1  C4  UNL     1      24.494   4.770  49.711  1.00  0.00     0.035 A 
HETATM    2  C5  UNL     1      25.227   3.580  49.732  1.00  0.00     0.032 A 
HETATM    3  C6  UNL     1      26.565   3.598  49.338  1.00  0.00     0.040 A 
HETATM    4  C7  UNL     1      27.101   4.811  48.942  1.00  0.00     0.086 A 
HETATM    5  C8  UNL     1      26.396   5.998  48.913  1.00  0.00    -0.004 A 
HETATM    6  C9  UNL     1      25.073   5.955  49.308  1.00  0.00     0.041 A 
HETATM    7  C10 UNL     1      26.723   7.367  48.548  1.00  0.00     0.161 C 
HETATM    8  N2  UNL     1      28.113   7.723  48.707  1.00  0.00    -0.380 N 
HETATM    9  C11 UNL     1      29.228   6.941  48.294  1.00  0.00     0.112 A 
HETATM   10  C12 UNL     1      29.400   5.561  48.241  1.00  0.00     0.200 A 
HETATM   11  N3  UNL     1      30.544   5.001  47.831  1.00  0.00    -0.215 NA
HETATM   12  C13 UNL     1      31.542   5.829  47.466  1.00  0.00     0.236 A 
HETATM   13  N4  UNL     1      31.434   7.181  47.497  1.00  0.00    -0.239 NA
HETATM   14  C14 UNL     1      30.279   7.783  47.909  1.00  0.00     0.099 A 
HETATM   15  O2  UNL     1      28.430   4.603  48.596  1.00  0.00    -0.289 OA
HETATM   16  H10 UNL     1      28.484   8.616  49.157  1.00  0.00     0.160 HD
ENDROOT
BRANCH  14  17
HETATM   17  C15 UNL     1      30.217   9.238  47.920  1.00  0.00    -0.004 A 
HETATM   18  C16 UNL     1      30.727   9.734  49.127  1.00  0.00     0.014 A 
HETATM   19  C17 UNL     1      30.799  11.088  49.401  1.00  0.00     0.002 A 
HETATM   20  C18 UNL     1      30.352  11.978  48.451  1.00  0.00     0.019 A 
HETATM   21  C19 UNL     1      29.848  11.504  47.259  1.00  0.00     0.011 A 
HETATM   22 BR1  UNL     1      29.195  12.618  45.856  1.00  0.00    -0.051 Br
HETATM   23  C20 UNL     1      29.775  10.162  46.982  1.00  0.00     0.033 A 
ENDBRANCH  14  17
BRANCH   1  24
HETATM   24  N1  UNL     1      23.155   4.563  50.142  1.00  0.00    -0.324 N 
HETATM   25  C3  UNL     1      22.726   4.754  51.482  1.00  0.00     0.241 C 
HETATM   26  O1  UNL     1      23.534   5.125  52.371  1.00  0.00    -0.269 OA
HETATM   27  H4  UNL     1      22.595   4.260  49.315  1.00  0.00     0.169 HD
BRANCH  25  28
HETATM   28  C2  UNL     1      21.319   4.468  51.612  1.00  0.00     0.048 C 
HETATM   29  C1  UNL     1      20.689   3.467  52.224  1.00  0.00     0.037 C 
ENDBRANCH  25  28
ENDBRANCH   1  24
TORSDOF 3
ENDMDL
MODEL 7
REMARK VINA RESULT:      -8.0      4.141      6.953
REMARK  3 active torsions:
REMARK  status: ('A' for Active; 'I' for Inactive)
REMARK    1  A    between atoms: C2_2  and  C3_3 
REMARK       I    between atoms: C3_3  and  N1_5 
REMARK    2  A    between atoms: N1_5  and  C4_6 
REMARK    3  A    between atoms: C14_19  and  C15_20 
ROOT
HETATM    1  C4  UNL     1      26.001   1.816  51.926  1.00  0.00     0.035 A 
HETATM    2  C5  UNL     1      24.876   1.838  52.755  1.00  0.00     0.032 A 
HETATM    3  C6  UNL     1      23.929   2.849  52.592  1.00  0.00     0.040 A 
HETATM    4  C7  UNL     1      24.159   3.789  51.603  1.00  0.00     0.086 A 
HETATM    5  C8  UNL     1      25.262   3.787  50.773  1.00  0.00    -0.004 A 
HETATM    6  C9  UNL     1      26.187   2.776  50.953  1.00  0.00     0.041 A 
HETATM    7  C10 UNL     1      25.721   4.640  49.687  1.00  0.00     0.161 C 
HETATM    8  N2  UNL     1      24.673   5.326  48.970  1.00  0.00    -0.380 N 
HETATM    9  C11 UNL     1      23.570   6.011  49.555  1.00  0.00     0.112 A 
HETATM   10  C12 UNL     1      22.852   5.751  50.718  1.00  0.00     0.200 A 
HETATM   11  N3  UNL     1      21.822   6.511  51.104  1.00  0.00    -0.215 NA
HETATM   12  C13 UNL     1      21.493   7.555  50.318  1.00  0.00     0.236 A 
HETATM   13  N4  UNL     1      22.155   7.858  49.173  1.00  0.00    -0.239 NA
HETATM   14  C14 UNL     1      23.212   7.102  48.753  1.00  0.00     0.099 A 
HETATM   15  O2  UNL     1      23.105   4.693  51.613  1.00  0.00    -0.289 OA
HETATM   16  H10 UNL     1      24.587   5.406  47.910  1.00  0.00     0.160 HD
ENDROOT
BRANCH  14  17
HETATM   17  C15 UNL     1      23.888   7.475  47.516  1.00  0.00    -0.004 A 
HETATM   18  C16 UNL     1      23.043   7.260  46.421  1.00  0.00     0.014 A 
HETATM   19  C17 UNL     1      23.427   7.541  45.121  1.00  0.00     0.002 A 
HETATM   20  C18 UNL     1      24.687   8.050  44.902  1.00  0.00     0.019 A 
HETATM   21  C19 UNL     1      25.529   8.267  45.971  1.00  0.00     0.011 A 
HETATM   22 BR1  UNL     1      27.296   8.966  45.816  1.00  0.00    -0.051 Br
HETATM   23  C20 UNL     1      25.152   7.989  47.261  1.00  0.00     0.033 A 
ENDBRANCH  14  17
BRANCH   1  24
HETATM   24  N1  UNL     1      26.854   0.721  52.234  1.00  0.00    -0.324 N 
HETATM   25  C3  UNL     1      27.807   0.744  53.287  1.00  0.00     0.241 C 
HETATM   26  O1  UNL     1      27.943   1.762  54.012  1.00  0.00    -0.269 OA
HETATM   27  H4  UNL     1      26.641  -0.051  51.564  1.00  0.00     0.169 HD
BRANCH  25  28
HETATM   28  C2  UNL     1      28.520  -0.507  53.355  1.00  0.00     0.048 C 
HETATM   29  C1  UNL     1      29.763  -0.779  53.749  1.00  0.00     0.037 C 
ENDBRANCH  25  28
ENDBRANCH   1  24
TORSDOF 3
ENDMDL
MODEL 8
REMARK VINA RESULT:      -7.7      4.282      5.909
REMARK  3 active torsions:
REMARK  status: ('A' for Active; 'I' for Inactive)
REMARK    1  A    between atoms: C2_2  and  C3_3 
REMARK       I    between atoms: C3_3  and  N1_5 
REMARK    2  A    between atoms: N1_5  and  C4_6 
REMARK    3  A    between atoms: C14_19  and  C15_20 
ROOT
HETATM    1  C4  UNL     1      26.200   1.380  51.976  1.00  0.00     0.035 A 
HETATM    2  C5  UNL     1      26.804   2.388  51.218  1.00  0.00     0.032 A 
HETATM    3  C6  UNL     1      26.011   3.196  50.404  1.00  0.00     0.040 A 
HETATM    4  C7  UNL     1      24.648   2.953  50.392  1.00  0.00     0.086 A 
HETATM    5  C8  UNL     1      24.030   1.964  51.132  1.00  0.00    -0.004 A 
HETATM    6  C9  UNL     1      24.837   1.176  51.930  1.00  0.00     0.041 A 
HETATM    7  C10 UNL     1      22.655   1.520  51.288  1.00  0.00     0.161 C 
HETATM    8  N2  UNL     1      21.657   2.538  51.056  1.00  0.00    -0.380 N 
HETATM    9  C11 UNL     1      21.640   3.458  49.970  1.00  0.00     0.112 A 
HETATM   10  C12 UNL     1      22.684   4.066  49.278  1.00  0.00     0.200 A 
HETATM   11  N3  UNL     1      22.468   4.928  48.278  1.00  0.00    -0.215 NA
HETATM   12  C13 UNL     1      21.187   5.196  47.957  1.00  0.00     0.236 A 
HETATM   13  N4  UNL     1      20.129   4.636  48.595  1.00  0.00    -0.239 NA
HETATM   14  C14 UNL     1      20.316   3.750  49.618  1.00  0.00     0.099 A 
HETATM   15  O2  UNL     1      24.056   3.862  49.526  1.00  0.00    -0.289 OA
HETATM   16  H10 UNL     1      20.807   2.734  51.668  1.00  0.00     0.160 HD
ENDROOT
BRANCH  14  17
HETATM   17  C15 UNL     1      19.145   3.177  50.267  1.00  0.00    -0.004 A 
HETATM   18  C16 UNL     1      18.339   4.193  50.795  1.00  0.00     0.014 A 
HETATM   19  C17 UNL     1      17.152   3.932  51.456  1.00  0.00     0.002 A 
HETATM   20  C18 UNL     1      16.752   2.622  51.599  1.00  0.00     0.019 A 
HETATM   21  C19 UNL     1      17.535   1.612  51.085  1.00  0.00     0.011 A 
HETATM   22 BR1  UNL     1      17.107  -0.242  51.208  1.00  0.00    -0.051 Br
HETATM   23  C20 UNL     1      18.713   1.867  50.428  1.00  0.00     0.033 A 
ENDBRANCH  14  17
BRANCH   1  24
HETATM   24  N1  UNL     1      27.158   0.660  52.741  1.00  0.00    -0.324 N 
HETATM   25  C3  UNL     1      27.837   1.208  53.861  1.00  0.00     0.241 C 
HETATM   26  O1  UNL     1      27.615   2.387  54.236  1.00  0.00    -0.269 OA
HETATM   27  H4  UNL     1      27.247  -0.294  52.327  1.00  0.00     0.169 HD
BRANCH  25  28
HETATM   28  C2  UNL     1      28.744   0.242  54.430  1.00  0.00     0.048 C 
HETATM   29  C1  UNL     1      29.627  -0.567  53.849  1.00  0.00     0.037 C 
ENDBRANCH  25  28
ENDBRANCH   1  24
TORSDOF 3
ENDMDL
MODEL 9
REMARK VINA RESULT:      -7.7      3.670      8.285
REMARK  3 active torsions:
REMARK  status: ('A' for Active; 'I' for Inactive)
REMARK    1  A    between atoms: C2_2  and  C3_3 
REMARK       I    between atoms: C3_3  and  N1_5 
REMARK    2  A    between atoms: N1_5  and  C4_6 
REMARK    3  A    between atoms: C14_19  and  C15_20 
ROOT
HETATM    1  C4  UNL     1      24.262   1.021  52.147  1.00  0.00     0.035 A 
HETATM    2  C5  UNL     1      25.640   0.823  52.282  1.00  0.00     0.032 A 
HETATM    3  C6  UNL     1      26.519   1.661  51.596  1.00  0.00     0.040 A 
HETATM    4  C7  UNL     1      25.971   2.656  50.806  1.00  0.00     0.086 A 
HETATM    5  C8  UNL     1      24.615   2.871  50.657  1.00  0.00    -0.004 A 
HETATM    6  C9  UNL     1      23.764   2.029  51.347  1.00  0.00     0.041 A 
HETATM    7  C10 UNL     1      23.811   3.823  49.908  1.00  0.00     0.161 C 
HETATM    8  N2  UNL     1      24.454   5.090  49.649  1.00  0.00    -0.380 N 
HETATM    9  C11 UNL     1      25.789   5.270  49.189  1.00  0.00     0.112 A 
HETATM   10  C12 UNL     1      26.941   4.529  49.430  1.00  0.00     0.200 A 
HETATM   11  N3  UNL     1      28.128   4.868  48.913  1.00  0.00    -0.215 NA
HETATM   12  C13 UNL     1      28.173   5.969  48.137  1.00  0.00     0.236 A 
HETATM   13  N4  UNL     1      27.084   6.731  47.867  1.00  0.00    -0.239 NA
HETATM   14  C14 UNL     1      25.859   6.411  48.378  1.00  0.00     0.099 A 
HETATM   15  O2  UNL     1      27.012   3.365  50.221  1.00  0.00    -0.289 OA
HETATM   16  H10 UNL     1      24.013   6.053  49.772  1.00  0.00     0.160 HD
ENDROOT
BRANCH  14  17
HETATM   17  C15 UNL     1      24.723   7.263  48.053  1.00  0.00    -0.004 A 
HETATM   18  C16 UNL     1      24.715   8.393  48.881  1.00  0.00     0.014 A 
HETATM   19  C17 UNL     1      23.750   9.380  48.780  1.00  0.00     0.002 A 
HETATM   20  C18 UNL     1      22.763   9.242  47.831  1.00  0.00     0.019 A 
HETATM   21  C19 UNL     1      22.758   8.135  47.010  1.00  0.00     0.011 A 
HETATM   22 BR1  UNL     1      21.456   7.813  45.655  1.00  0.00    -0.051 Br
HETATM   23  C20 UNL     1      23.713   7.154  47.106  1.00  0.00     0.033 A 
ENDBRANCH  14  17
BRANCH   1  24
HETATM   24  N1  UNL     1      23.524   0.079  52.914  1.00  0.00    -0.324 N 
HETATM   25  C3  UNL     1      22.208   0.320  53.392  1.00  0.00     0.241 C 
HETATM   26  O1  UNL     1      21.623   1.406  53.151  1.00  0.00    -0.269 OA
HETATM   27  H4  UNL     1      24.119  -0.769  53.041  1.00  0.00     0.169 HD
BRANCH  25  28
HETATM   28  C2  UNL     1      21.721  -0.815  54.136  1.00  0.00     0.048 C 
HETATM   29  C1  UNL     1      22.313  -1.563  55.065  1.00  0.00     0.037 C 
ENDBRANCH  25  28
ENDBRANCH   1  24
TORSDOF 3
ENDMDL
