MODEL 1
REMARK VINA RESULT:      -6.8      0.000      0.000
REMARK  7 active torsions:
REMARK  status: ('A' for Active; 'I' for Inactive)
REMARK    1  A    between atoms: C6_7  and  N1_8 
REMARK       I    between atoms: N1_8  and  C7_9 
REMARK    2  A    between atoms: C7_9  and  C8_11 
REMARK    3  A    between atoms: C11_14  and  N2_15 
REMARK    4  A    between atoms: N2_15  and  C12_16 
REMARK    5  A    between atoms: N2_15  and  C14_19 
REMARK    6  A    between atoms: C12_16  and  C13_17 
REMARK    7  A    between atoms: C14_19  and  C15_20 
ROOT
HETATM    1  C8  UNL     1      26.677   5.048  49.059  1.00  0.00     0.032 A 
HETATM    2  C9  UNL     1      27.988   5.058  48.637  1.00  0.00     0.019 A 
HETATM    3  C10 UNL     1      28.477   6.180  47.998  1.00  0.00     0.030 A 
HETATM    4  C11 UNL     1      27.768   7.353  47.721  1.00  0.00     0.030 A 
HETATM    5  C16 UNL     1      26.485   7.235  48.180  1.00  0.00     0.030 A 
HETATM    6  C17 UNL     1      25.924   6.176  48.813  1.00  0.00     0.019 A 
ENDROOT
BRANCH   1   7
HETATM    7  C7  UNL     1      26.172   3.870  49.728  1.00  0.00     0.256 C 
HETATM    8  N1  UNL     1      26.685   3.371  50.948  1.00  0.00    -0.322 N 
HETATM    9  H5  UNL     1      27.473   3.842  51.438  1.00  0.00     0.169 HD
HETATM   10  O1  UNL     1      25.233   3.227  49.238  1.00  0.00    -0.267 OA
BRANCH   8  11
HETATM   11  C6  UNL     1      26.265   2.232  51.684  1.00  0.00     0.046 A 
HETATM   12  C2  UNL     1      25.136   2.170  52.613  1.00  0.00    -0.017 A 
HETATM   13  C1  UNL     1      24.318   3.160  52.925  1.00  0.00     0.026 C 
HETATM   14  C3  UNL     1      25.026   0.832  53.169  1.00  0.00     0.036 A 
HETATM   15  C4  UNL     1      26.027   0.137  52.607  1.00  0.00     0.037 A 
HETATM   16 CL1  UNL     1      26.371  -1.561  52.924  1.00  0.00    -0.084 Cl
HETATM   17  C5  UNL     1      26.765   1.008  51.710  1.00  0.00     0.054 A 
ENDBRANCH   8  11
ENDBRANCH   1   7
BRANCH   4  18
HETATM   18  N2  UNL     1      28.346   8.505  47.052  1.00  0.00    -0.379 N 
BRANCH  18  19
HETATM   19  C12 UNL     1      28.295   9.625  47.934  1.00  0.00     0.138 C 
BRANCH  19  20
HETATM   20  C13 UNL     1      29.105   9.703  49.160  1.00  0.00     0.134 C 
HETATM   21 CL2  UNL     1      30.661   8.900  49.193  1.00  0.00    -0.129 Cl
ENDBRANCH  19  20
ENDBRANCH  18  19
BRANCH  18  22
HETATM   22  C14 UNL     1      28.853   8.152  45.756  1.00  0.00     0.138 C 
BRANCH  22  23
HETATM   23  C15 UNL     1      30.258   8.563  45.467  1.00  0.00     0.134 C 
HETATM   24 CL3  UNL     1      31.388   7.266  46.079  1.00  0.00    -0.129 Cl
ENDBRANCH  22  23
ENDBRANCH  18  22
ENDBRANCH   4  18
TORSDOF 7
ENDMDL
MODEL 2
REMARK VINA RESULT:      -6.7      7.209     10.748
REMARK  7 active torsions:
REMARK  status: ('A' for Active; 'I' for Inactive)
REMARK    1  A    between atoms: C6_7  and  N1_8 
REMARK       I    between atoms: N1_8  and  C7_9 
REMARK    2  A    between atoms: C7_9  and  C8_11 
REMARK    3  A    between atoms: C11_14  and  N2_15 
REMARK    4  A    between atoms: N2_15  and  C12_16 
REMARK    5  A    between atoms: N2_15  and  C14_19 
REMARK    6  A    between atoms: C12_16  and  C13_17 
REMARK    7  A    between atoms: C14_19  and  C15_20 
ROOT
HETATM    1  C8  UNL     1      22.321  -0.245  53.226  1.00  0.00     0.032 A 
HETATM    2  C9  UNL     1      21.381  -0.774  54.081  1.00  0.00     0.019 A 
HETATM    3  C10 UNL     1      20.052  -0.758  53.709  1.00  0.00     0.030 A 
HETATM    4  C11 UNL     1      19.530  -0.246  52.517  1.00  0.00     0.030 A 
HETATM    5  C16 UNL     1      20.544   0.253  51.746  1.00  0.00     0.030 A 
HETATM    6  C17 UNL     1      21.869   0.278  52.033  1.00  0.00     0.019 A 
ENDROOT
BRANCH   1   7
HETATM    7  C7  UNL     1      23.712  -0.267  53.622  1.00  0.00     0.256 C 
HETATM    8  N1  UNL     1      24.751   0.367  52.900  1.00  0.00    -0.322 N 
HETATM    9  H5  UNL     1      24.559   0.895  52.024  1.00  0.00     0.169 HD
HETATM   10  O1  UNL     1      24.060  -0.865  54.649  1.00  0.00    -0.267 OA
BRANCH   8  11
HETATM   11  C6  UNL     1      26.138   0.407  53.199  1.00  0.00     0.046 A 
HETATM   12  C2  UNL     1      27.105  -0.665  52.967  1.00  0.00    -0.017 A 
HETATM   13  C1  UNL     1      26.853  -1.852  52.441  1.00  0.00     0.026 C 
HETATM   14  C3  UNL     1      28.425  -0.244  53.405  1.00  0.00     0.036 A 
HETATM   15  C4  UNL     1      28.257   1.003  53.870  1.00  0.00     0.037 A 
HETATM   16 CL1  UNL     1      29.544   2.007  54.534  1.00  0.00    -0.084 Cl
HETATM   17  C5  UNL     1      26.861   1.377  53.735  1.00  0.00     0.054 A 
ENDBRANCH   8  11
ENDBRANCH   1   7
BRANCH   4  18
HETATM   18  N2  UNL     1      18.117  -0.267  52.180  1.00  0.00    -0.379 N 
BRANCH  18  19
HETATM   19  C12 UNL     1      17.890   0.618  51.086  1.00  0.00     0.138 C 
BRANCH  19  20
HETATM   20  C13 UNL     1      17.293   1.952  51.257  1.00  0.00     0.134 C 
HETATM   21 CL2  UNL     1      18.349   3.310  51.586  1.00  0.00    -0.129 Cl
ENDBRANCH  19  20
ENDBRANCH  18  19
BRANCH  18  22
HETATM   22  C14 UNL     1      17.406  -1.215  52.990  1.00  0.00     0.138 C 
BRANCH  22  23
HETATM   23  C15 UNL     1      16.133  -1.742  52.417  1.00  0.00     0.134 C 
HETATM   24 CL3  UNL     1      15.962  -3.499  52.880  1.00  0.00    -0.129 Cl
ENDBRANCH  22  23
ENDBRANCH  18  22
ENDBRANCH   4  18
TORSDOF 7
ENDMDL
MODEL 3
REMARK VINA RESULT:      -6.7      0.369      2.001
REMARK  7 active torsions:
REMARK  status: ('A' for Active; 'I' for Inactive)
REMARK    1  A    between atoms: C6_7  and  N1_8 
REMARK       I    between atoms: N1_8  and  C7_9 
REMARK    2  A    between atoms: C7_9  and  C8_11 
REMARK    3  A    between atoms: C11_14  and  N2_15 
REMARK    4  A    between atoms: N2_15  and  C12_16 
REMARK    5  A    between atoms: N2_15  and  C14_19 
REMARK    6  A    between atoms: C12_16  and  C13_17 
REMARK    7  A    between atoms: C14_19  and  C15_20 
ROOT
HETATM    1  C8  UNL     1      26.721   5.006  49.186  1.00  0.00     0.032 A 
HETATM    2  C9  UNL     1      25.947   6.144  49.176  1.00  0.00     0.019 A 
HETATM    3  C10 UNL     1      26.433   7.280  48.561  1.00  0.00     0.030 A 
HETATM    4  C11 UNL     1      27.669   7.412  47.921  1.00  0.00     0.030 A 
HETATM    5  C16 UNL     1      28.353   6.230  47.990  1.00  0.00     0.030 A 
HETATM    6  C17 UNL     1      27.953   5.073  48.572  1.00  0.00     0.019 A 
ENDROOT
BRANCH   1   7
HETATM    7  C7  UNL     1      26.204   3.819  49.832  1.00  0.00     0.256 C 
HETATM    8  N1  UNL     1      26.708   3.296  51.046  1.00  0.00    -0.322 N 
HETATM    9  H5  UNL     1      27.496   3.753  51.548  1.00  0.00     0.169 HD
HETATM   10  O1  UNL     1      25.265   3.191  49.326  1.00  0.00    -0.267 OA
BRANCH   8  11
HETATM   11  C6  UNL     1      26.276   2.148  51.760  1.00  0.00     0.046 A 
HETATM   12  C2  UNL     1      25.133   2.073  52.670  1.00  0.00    -0.017 A 
HETATM   13  C1  UNL     1      24.309   3.059  52.982  1.00  0.00     0.026 C 
HETATM   14  C3  UNL     1      25.014   0.728  53.207  1.00  0.00     0.036 A 
HETATM   15  C4  UNL     1      26.024   0.041  52.651  1.00  0.00     0.037 A 
HETATM   16 CL1  UNL     1      26.363  -1.662  52.951  1.00  0.00    -0.084 Cl
HETATM   17  C5  UNL     1      26.776   0.924  51.777  1.00  0.00     0.054 A 
ENDBRANCH   8  11
ENDBRANCH   1   7
BRANCH   4  18
HETATM   18  N2  UNL     1      28.119   8.637  47.282  1.00  0.00    -0.379 N 
BRANCH  18  19
HETATM   19  C12 UNL     1      28.261   8.403  45.883  1.00  0.00     0.138 C 
BRANCH  19  20
HETATM   20  C13 UNL     1      29.562   8.461  45.198  1.00  0.00     0.134 C 
HETATM   21 CL2  UNL     1      30.946   7.700  45.956  1.00  0.00    -0.129 Cl
ENDBRANCH  19  20
ENDBRANCH  18  19
BRANCH  18  22
HETATM   22  C14 UNL     1      28.209   9.712  48.229  1.00  0.00     0.138 C 
BRANCH  22  23
HETATM   23  C15 UNL     1      29.577  10.250  48.482  1.00  0.00     0.134 C 
HETATM   24 CL3  UNL     1      30.574   8.961  49.305  1.00  0.00    -0.129 Cl
ENDBRANCH  22  23
ENDBRANCH  18  22
ENDBRANCH   4  18
TORSDOF 7
ENDMDL
MODEL 4
REMARK VINA RESULT:      -6.5      2.248      9.051
REMARK  7 active torsions:
REMARK  status: ('A' for Active; 'I' for Inactive)
REMARK    1  A    between atoms: C6_7  and  N1_8 
REMARK       I    between atoms: N1_8  and  C7_9 
REMARK    2  A    between atoms: C7_9  and  C8_11 
REMARK    3  A    between atoms: C11_14  and  N2_15 
REMARK    4  A    between atoms: N2_15  and  C12_16 
REMARK    5  A    between atoms: N2_15  and  C14_19 
REMARK    6  A    between atoms: C12_16  and  C13_17 
REMARK    7  A    between atoms: C14_19  and  C15_20 
ROOT
HETATM    1  C8  UNL     1      25.688   3.457  50.327  1.00  0.00     0.032 A 
HETATM    2  C9  UNL     1      24.362   3.182  50.576  1.00  0.00     0.019 A 
HETATM    3  C10 UNL     1      24.041   2.129  51.410  1.00  0.00     0.030 A 
HETATM    4  C11 UNL     1      24.942   1.278  52.056  1.00  0.00     0.030 A 
HETATM    5  C16 UNL     1      26.224   1.637  51.740  1.00  0.00     0.030 A 
HETATM    6  C17 UNL     1      26.627   2.650  50.935  1.00  0.00     0.019 A 
ENDROOT
BRANCH   1   7
HETATM    7  C7  UNL     1      26.017   4.561  49.454  1.00  0.00     0.256 C 
HETATM    8  N1  UNL     1      27.330   5.046  49.251  1.00  0.00    -0.322 N 
HETATM    9  H5  UNL     1      28.147   4.619  49.735  1.00  0.00     0.169 HD
HETATM   10  O1  UNL     1      25.125   5.148  48.825  1.00  0.00    -0.267 OA
BRANCH   8  11
HETATM   11  C6  UNL     1      27.759   6.116  48.422  1.00  0.00     0.046 A 
HETATM   12  C2  UNL     1      29.090   6.276  47.835  1.00  0.00    -0.017 A 
HETATM   13  C1  UNL     1      30.116   5.454  47.976  1.00  0.00     0.026 C 
HETATM   14  C3  UNL     1      29.140   7.497  47.048  1.00  0.00     0.036 A 
HETATM   15  C4  UNL     1      27.915   8.033  47.159  1.00  0.00     0.037 A 
HETATM   16 CL1  UNL     1      27.408   9.539  46.398  1.00  0.00    -0.084 Cl
HETATM   17  C5  UNL     1      27.095   7.178  47.997  1.00  0.00     0.054 A 
ENDBRANCH   8  11
ENDBRANCH   1   7
BRANCH   4  18
HETATM   18  N2  UNL     1      24.539   0.190  52.930  1.00  0.00    -0.379 N 
BRANCH  18  19
HETATM   19  C12 UNL     1      23.114   0.129  52.963  1.00  0.00     0.138 C 
BRANCH  19  20
HETATM   20  C13 UNL     1      22.384  -1.050  53.455  1.00  0.00     0.134 C 
HETATM   21 CL2  UNL     1      22.495  -1.457  55.155  1.00  0.00    -0.129 Cl
ENDBRANCH  19  20
ENDBRANCH  18  19
BRANCH  18  22
HETATM   22  C14 UNL     1      25.679  -0.526  53.426  1.00  0.00     0.138 C 
BRANCH  22  23
HETATM   23  C15 UNL     1      26.074  -0.236  54.836  1.00  0.00     0.134 C 
HETATM   24 CL3  UNL     1      27.832   0.253  54.866  1.00  0.00    -0.129 Cl
ENDBRANCH  22  23
ENDBRANCH  18  22
ENDBRANCH   4  18
TORSDOF 7
ENDMDL
MODEL 5
REMARK VINA RESULT:      -6.5      2.489      3.262
REMARK  7 active torsions:
REMARK  status: ('A' for Active; 'I' for Inactive)
REMARK    1  A    between atoms: C6_7  and  N1_8 
REMARK       I    between atoms: N1_8  and  C7_9 
REMARK    2  A    between atoms: C7_9  and  C8_11 
REMARK    3  A    between atoms: C11_14  and  N2_15 
REMARK    4  A    between atoms: N2_15  and  C12_16 
REMARK    5  A    between atoms: N2_15  and  C14_19 
REMARK    6  A    between atoms: C12_16  and  C13_17 
REMARK    7  A    between atoms: C14_19  and  C15_20 
ROOT
HETATM    1  C8  UNL     1      25.395   4.397  49.972  1.00  0.00     0.032 A 
HETATM    2  C9  UNL     1      25.263   5.753  49.775  1.00  0.00     0.019 A 
HETATM    3  C10 UNL     1      26.258   6.432  49.101  1.00  0.00     0.030 A 
HETATM    4  C11 UNL     1      27.429   5.879  48.573  1.00  0.00     0.030 A 
HETATM    5  C16 UNL     1      27.458   4.535  48.825  1.00  0.00     0.030 A 
HETATM    6  C17 UNL     1      26.530   3.792  49.477  1.00  0.00     0.019 A 
ENDROOT
BRANCH   1   7
HETATM    7  C7  UNL     1      24.348   3.692  50.679  1.00  0.00     0.256 C 
HETATM    8  N1  UNL     1      24.346   2.296  50.904  1.00  0.00    -0.322 N 
HETATM    9  H5  UNL     1      25.120   1.690  50.562  1.00  0.00     0.169 HD
HETATM   10  O1  UNL     1      23.374   4.310  51.132  1.00  0.00    -0.267 OA
BRANCH   8  11
HETATM   11  C6  UNL     1      23.376   1.511  51.581  1.00  0.00     0.046 A 
HETATM   12  C2  UNL     1      22.145   0.969  51.005  1.00  0.00    -0.017 A 
HETATM   13  C1  UNL     1      21.727   1.119  49.760  1.00  0.00     0.026 C 
HETATM   14  C3  UNL     1      21.415   0.220  52.013  1.00  0.00     0.036 A 
HETATM   15  C4  UNL     1      22.164   0.308  53.123  1.00  0.00     0.037 A 
HETATM   16 CL1  UNL     1      21.752  -0.426  54.671  1.00  0.00    -0.084 Cl
HETATM   17  C5  UNL     1      23.349   1.096  52.837  1.00  0.00     0.054 A 
ENDBRANCH   8  11
ENDBRANCH   1   7
BRANCH   4  18
HETATM   18  N2  UNL     1      28.435   6.649  47.864  1.00  0.00    -0.379 N 
BRANCH  18  19
HETATM   19  C12 UNL     1      29.689   5.980  47.971  1.00  0.00     0.138 C 
BRANCH  19  20
HETATM   20  C13 UNL     1      30.893   6.635  48.506  1.00  0.00     0.134 C 
HETATM   21 CL2  UNL     1      31.800   5.826  49.768  1.00  0.00    -0.129 Cl
ENDBRANCH  19  20
ENDBRANCH  18  19
BRANCH  18  22
HETATM   22  C14 UNL     1      27.853   7.791  47.217  1.00  0.00     0.138 C 
BRANCH  22  23
HETATM   23  C15 UNL     1      28.433   9.117  47.581  1.00  0.00     0.134 C 
HETATM   24 CL3  UNL     1      28.541   9.233  49.399  1.00  0.00    -0.129 Cl
ENDBRANCH  22  23
ENDBRANCH  18  22
ENDBRANCH   4  18
TORSDOF 7
ENDMDL
MODEL 6
REMARK VINA RESULT:      -6.5      2.041      2.450
REMARK  7 active torsions:
REMARK  status: ('A' for Active; 'I' for Inactive)
REMARK    1  A    between atoms: C6_7  and  N1_8 
REMARK       I    between atoms: N1_8  and  C7_9 
REMARK    2  A    between atoms: C7_9  and  C8_11 
REMARK    3  A    between atoms: C11_14  and  N2_15 
REMARK    4  A    between atoms: N2_15  and  C12_16 
REMARK    5  A    between atoms: N2_15  and  C14_19 
REMARK    6  A    between atoms: C12_16  and  C13_17 
REMARK    7  A    between atoms: C14_19  and  C15_20 
ROOT
HETATM    1  C8  UNL     1      26.026   4.729  49.679  1.00  0.00     0.032 A 
HETATM    2  C9  UNL     1      27.175   4.473  48.965  1.00  0.00     0.019 A 
HETATM    3  C10 UNL     1      27.881   5.532  48.430  1.00  0.00     0.030 A 
HETATM    4  C11 UNL     1      27.551   6.887  48.535  1.00  0.00     0.030 A 
HETATM    5  C16 UNL     1      26.400   7.027  49.259  1.00  0.00     0.030 A 
HETATM    6  C17 UNL     1      25.646   6.047  49.817  1.00  0.00     0.019 A 
ENDROOT
BRANCH   1   7
HETATM    7  C7  UNL     1      25.292   3.615  50.238  1.00  0.00     0.256 C 
HETATM    8  N1  UNL     1      25.490   3.113  51.546  1.00  0.00    -0.322 N 
HETATM    9  H5  UNL     1      26.193   3.534  52.188  1.00  0.00     0.169 HD
HETATM   10  O1  UNL     1      24.428   3.036  49.565  1.00  0.00    -0.267 OA
BRANCH   8  11
HETATM   11  C6  UNL     1      24.828   2.034  52.187  1.00  0.00     0.046 A 
HETATM   12  C2  UNL     1      25.366   0.690  52.397  1.00  0.00    -0.017 A 
HETATM   13  C1  UNL     1      26.557   0.252  52.024  1.00  0.00     0.026 C 
HETATM   14  C3  UNL     1      24.389  -0.132  53.090  1.00  0.00     0.036 A 
HETATM   15  C4  UNL     1      23.332   0.672  53.284  1.00  0.00     0.037 A 
HETATM   16 CL1  UNL     1      21.840   0.190  54.089  1.00  0.00    -0.084 Cl
HETATM   17  C5  UNL     1      23.622   1.981  52.728  1.00  0.00     0.054 A 
ENDBRANCH   8  11
ENDBRANCH   1   7
BRANCH   4  18
HETATM   18  N2  UNL     1      28.344   7.956  47.954  1.00  0.00    -0.379 N 
BRANCH  18  19
HETATM   19  C12 UNL     1      29.206   8.489  48.957  1.00  0.00     0.138 C 
BRANCH  19  20
HETATM   20  C13 UNL     1      30.660   8.263  48.954  1.00  0.00     0.134 C 
HETATM   21 CL2  UNL     1      31.256   6.621  49.080  1.00  0.00    -0.129 Cl
ENDBRANCH  19  20
ENDBRANCH  18  19
BRANCH  18  22
HETATM   22  C14 UNL     1      28.077   8.096  46.550  1.00  0.00     0.138 C 
BRANCH  22  23
HETATM   23  C15 UNL     1      27.033   9.095  46.178  1.00  0.00     0.134 C 
HETATM   24 CL3  UNL     1      25.454   8.222  45.902  1.00  0.00    -0.129 Cl
ENDBRANCH  22  23
ENDBRANCH  18  22
ENDBRANCH   4  18
TORSDOF 7
ENDMDL
MODEL 7
REMARK VINA RESULT:      -6.4      1.642      2.100
REMARK  7 active torsions:
REMARK  status: ('A' for Active; 'I' for Inactive)
REMARK    1  A    between atoms: C6_7  and  N1_8 
REMARK       I    between atoms: N1_8  and  C7_9 
REMARK    2  A    between atoms: C7_9  and  C8_11 
REMARK    3  A    between atoms: C11_14  and  N2_15 
REMARK    4  A    between atoms: N2_15  and  C12_16 
REMARK    5  A    between atoms: N2_15  and  C14_19 
REMARK    6  A    between atoms: C12_16  and  C13_17 
REMARK    7  A    between atoms: C14_19  and  C15_20 
ROOT
HETATM    1  C8  UNL     1      26.727   5.032  49.085  1.00  0.00     0.032 A 
HETATM    2  C9  UNL     1      25.909   6.131  48.941  1.00  0.00     0.019 A 
HETATM    3  C10 UNL     1      26.403   7.255  48.309  1.00  0.00     0.030 A 
HETATM    4  C11 UNL     1      27.687   7.412  47.778  1.00  0.00     0.030 A 
HETATM    5  C16 UNL     1      28.410   6.268  47.975  1.00  0.00     0.030 A 
HETATM    6  C17 UNL     1      28.007   5.125  48.582  1.00  0.00     0.019 A 
ENDROOT
BRANCH   1   7
HETATM    7  C7  UNL     1      26.203   3.858  49.747  1.00  0.00     0.256 C 
HETATM    8  N1  UNL     1      26.701   3.350  50.970  1.00  0.00    -0.322 N 
HETATM    9  H5  UNL     1      27.491   3.810  51.466  1.00  0.00     0.169 HD
HETATM   10  O1  UNL     1      25.260   3.228  49.248  1.00  0.00    -0.267 OA
BRANCH   8  11
HETATM   11  C6  UNL     1      26.262   2.214  51.699  1.00  0.00     0.046 A 
HETATM   12  C2  UNL     1      25.107   2.155  52.596  1.00  0.00    -0.017 A 
HETATM   13  C1  UNL     1      24.279   3.145  52.879  1.00  0.00     0.026 C 
HETATM   14  C3  UNL     1      24.984   0.819  53.156  1.00  0.00     0.036 A 
HETATM   15  C4  UNL     1      26.001   0.124  52.625  1.00  0.00     0.037 A 
HETATM   16 CL1  UNL     1      26.339  -1.573  52.961  1.00  0.00    -0.084 Cl
HETATM   17  C5  UNL     1      26.763   0.991  51.745  1.00  0.00     0.054 A 
ENDBRANCH   8  11
ENDBRANCH   1   7
BRANCH   4  18
HETATM   18  N2  UNL     1      28.142   8.622  47.115  1.00  0.00    -0.379 N 
BRANCH  18  19
HETATM   19  C12 UNL     1      29.405   8.999  47.660  1.00  0.00     0.138 C 
BRANCH  19  20
HETATM   20  C13 UNL     1      29.534   9.700  48.947  1.00  0.00     0.134 C 
HETATM   21 CL2  UNL     1      30.453  11.190  49.004  1.00  0.00    -0.129 Cl
ENDBRANCH  19  20
ENDBRANCH  18  19
BRANCH  18  22
HETATM   22  C14 UNL     1      27.233   9.018  46.077  1.00  0.00     0.138 C 
BRANCH  22  23
HETATM   23  C15 UNL     1      26.579  10.348  46.252  1.00  0.00     0.134 C 
HETATM   24 CL3  UNL     1      24.768  10.116  46.262  1.00  0.00    -0.129 Cl
ENDBRANCH  22  23
ENDBRANCH  18  22
ENDBRANCH   4  18
TORSDOF 7
ENDMDL
MODEL 8
REMARK VINA RESULT:      -6.3      2.786      8.950
REMARK  7 active torsions:
REMARK  status: ('A' for Active; 'I' for Inactive)
REMARK    1  A    between atoms: C6_7  and  N1_8 
REMARK       I    between atoms: N1_8  and  C7_9 
REMARK    2  A    between atoms: C7_9  and  C8_11 
REMARK    3  A    between atoms: C11_14  and  N2_15 
REMARK    4  A    between atoms: N2_15  and  C12_16 
REMARK    5  A    between atoms: N2_15  and  C14_19 
REMARK    6  A    between atoms: C12_16  and  C13_17 
REMARK    7  A    between atoms: C14_19  and  C15_20 
ROOT
HETATM    1  C8  UNL     1      25.439   3.396  50.973  1.00  0.00     0.032 A 
HETATM    2  C9  UNL     1      26.374   2.397  50.820  1.00  0.00     0.019 A 
HETATM    3  C10 UNL     1      26.429   1.383  51.755  1.00  0.00     0.030 A 
HETATM    4  C11 UNL     1      25.613   1.248  52.882  1.00  0.00     0.030 A 
HETATM    5  C16 UNL     1      24.726   2.288  52.937  1.00  0.00     0.030 A 
HETATM    6  C17 UNL     1      24.604   3.320  52.067  1.00  0.00     0.019 A 
ENDROOT
BRANCH   1   7
HETATM    7  C7  UNL     1      25.386   4.455  49.989  1.00  0.00     0.256 C 
HETATM    8  N1  UNL     1      26.086   5.679  50.105  1.00  0.00    -0.322 N 
HETATM    9  H5  UNL     1      26.690   5.883  50.928  1.00  0.00     0.169 HD
HETATM   10  O1  UNL     1      24.699   4.325  48.967  1.00  0.00    -0.267 OA
BRANCH   8  11
HETATM   11  C6  UNL     1      26.104   6.776  49.204  1.00  0.00     0.046 A 
HETATM   12  C2  UNL     1      27.147   7.072  48.221  1.00  0.00    -0.017 A 
HETATM   13  C1  UNL     1      28.247   6.371  48.006  1.00  0.00     0.026 C 
HETATM   14  C3  UNL     1      26.806   8.278  47.486  1.00  0.00     0.036 A 
HETATM   15  C4  UNL     1      25.632   8.678  47.998  1.00  0.00     0.037 A 
HETATM   16 CL1  UNL     1      24.744  10.107  47.473  1.00  0.00    -0.084 Cl
HETATM   17  C5  UNL     1      25.225   7.751  49.039  1.00  0.00     0.054 A 
ENDBRANCH   8  11
ENDBRANCH   1   7
BRANCH   4  18
HETATM   18  N2  UNL     1      25.717   0.148  53.825  1.00  0.00    -0.379 N 
BRANCH  18  19
HETATM   19  C12 UNL     1      26.663   0.494  54.835  1.00  0.00     0.138 C 
BRANCH  19  20
HETATM   20  C13 UNL     1      28.072   0.077  54.775  1.00  0.00     0.134 C 
HETATM   21 CL2  UNL     1      28.596  -0.925  53.436  1.00  0.00    -0.129 Cl
ENDBRANCH  19  20
ENDBRANCH  18  19
BRANCH  18  22
HETATM   22  C14 UNL     1      24.793  -0.902  53.500  1.00  0.00     0.138 C 
BRANCH  22  23
HETATM   23  C15 UNL     1      23.382  -0.693  53.940  1.00  0.00     0.134 C 
HETATM   24 CL3  UNL     1      23.162  -1.446  55.588  1.00  0.00    -0.129 Cl
ENDBRANCH  22  23
ENDBRANCH  18  22
ENDBRANCH   4  18
TORSDOF 7
ENDMDL
MODEL 9
REMARK VINA RESULT:      -6.2      1.746      2.288
REMARK  7 active torsions:
REMARK  status: ('A' for Active; 'I' for Inactive)
REMARK    1  A    between atoms: C6_7  and  N1_8 
REMARK       I    between atoms: N1_8  and  C7_9 
REMARK    2  A    between atoms: C7_9  and  C8_11 
REMARK    3  A    between atoms: C11_14  and  N2_15 
REMARK    4  A    between atoms: N2_15  and  C12_16 
REMARK    5  A    between atoms: N2_15  and  C14_19 
REMARK    6  A    between atoms: C12_16  and  C13_17 
REMARK    7  A    between atoms: C14_19  and  C15_20 
ROOT
HETATM    1  C8  UNL     1      26.291   4.905  49.350  1.00  0.00     0.032 A 
HETATM    2  C9  UNL     1      27.531   4.611  48.830  1.00  0.00     0.019 A 
HETATM    3  C10 UNL     1      28.283   5.627  48.275  1.00  0.00     0.030 A 
HETATM    4  C11 UNL     1      27.916   6.973  48.178  1.00  0.00     0.030 A 
HETATM    5  C16 UNL     1      26.674   7.152  48.721  1.00  0.00     0.030 A 
HETATM    6  C17 UNL     1      25.871   6.216  49.283  1.00  0.00     0.019 A 
ENDROOT
BRANCH   1   7
HETATM    7  C7  UNL     1      25.509   3.835  49.930  1.00  0.00     0.256 C 
HETATM    8  N1  UNL     1      25.656   3.379  51.261  1.00  0.00    -0.322 N 
HETATM    9  H5  UNL     1      26.354   3.804  51.906  1.00  0.00     0.169 HD
HETATM   10  O1  UNL     1      24.647   3.255  49.256  1.00  0.00    -0.267 OA
BRANCH   8  11
HETATM   11  C6  UNL     1      24.945   2.346  51.925  1.00  0.00     0.046 A 
HETATM   12  C2  UNL     1      25.450   1.006  52.231  1.00  0.00    -0.017 A 
HETATM   13  C1  UNL     1      26.649   0.532  51.942  1.00  0.00     0.026 C 
HETATM   14  C3  UNL     1      24.425   0.237  52.917  1.00  0.00     0.036 A 
HETATM   15  C4  UNL     1      23.375   1.065  53.016  1.00  0.00     0.037 A 
HETATM   16 CL1  UNL     1      21.837   0.649  53.770  1.00  0.00    -0.084 Cl
HETATM   17  C5  UNL     1      23.714   2.339  52.407  1.00  0.00     0.054 A 
ENDBRANCH   8  11
ENDBRANCH   1   7
BRANCH   4  18
HETATM   18  N2  UNL     1      28.760   7.998  47.590  1.00  0.00    -0.379 N 
BRANCH  18  19
HETATM   19  C12 UNL     1      28.143   9.269  47.779  1.00  0.00     0.138 C 
BRANCH  19  20
HETATM   20  C13 UNL     1      28.353  10.397  46.858  1.00  0.00     0.134 C 
HETATM   21 CL2  UNL     1      28.016  10.164  45.154  1.00  0.00    -0.129 Cl
ENDBRANCH  19  20
ENDBRANCH  18  19
BRANCH  18  22
HETATM   22  C14 UNL     1      29.976   7.435  47.073  1.00  0.00     0.138 C 
BRANCH  22  23
HETATM   23  C15 UNL     1      31.244   8.051  47.562  1.00  0.00     0.134 C 
HETATM   24 CL3  UNL     1      31.153   8.220  49.377  1.00  0.00    -0.129 Cl
ENDBRANCH  22  23
ENDBRANCH  18  22
ENDBRANCH   4  18
TORSDOF 7
ENDMDL
