MODEL 1
REMARK VINA RESULT:      -9.4      0.000      0.000
REMARK  4 active torsions:
REMARK  status: ('A' for Active; 'I' for Inactive)
REMARK    1  A    between atoms: C4_5  and  C5_6 
REMARK       I    between atoms: C5_6  and  N1_8 
REMARK    2  A    between atoms: N1_8  and  C6_9 
REMARK    3  A    between atoms: C12_16  and  N3_17 
REMARK    4  A    between atoms: N3_17  and  C13_18 
ROOT
HETATM    1  C6  UNL     1      24.334  -0.475  54.199  1.00  0.00     0.035 A 
HETATM    2  C7  UNL     1      23.516  -1.087  55.113  1.00  0.00     0.030 A 
HETATM    3  C8  UNL     1      22.160  -1.090  54.880  1.00  0.00     0.014 A 
HETATM    4  C9  UNL     1      21.646  -0.487  53.752  1.00  0.00    -0.021 A 
HETATM    5  C10 UNL     1      20.276  -0.550  53.617  1.00  0.00     0.031 A 
HETATM    6  C11 UNL     1      19.792   0.059  52.479  1.00  0.00     0.120 A 
HETATM    7  N2  UNL     1      20.573   0.660  51.577  1.00  0.00    -0.242 NA
HETATM    8  C12 UNL     1      21.882   0.737  51.678  1.00  0.00     0.139 A 
HETATM    9  C19 UNL     1      22.417   0.143  52.798  1.00  0.00     0.022 A 
HETATM   10  C20 UNL     1      23.761   0.108  53.092  1.00  0.00     0.045 A 
ENDROOT
BRANCH   1  11
HETATM   11  N1  UNL     1      25.733  -0.477  54.447  1.00  0.00    -0.325 N 
HETATM   12  C5  UNL     1      26.603   0.619  54.621  1.00  0.00     0.245 C 
HETATM   13  O2  UNL     1      26.086   1.774  54.548  1.00  0.00    -0.271 OA
HETATM   14  H6  UNL     1      25.911  -1.521  54.462  1.00  0.00     0.169 HD
BRANCH  12  15
HETATM   15  C4  UNL     1      27.994   0.088  54.860  1.00  0.00     0.177 C 
HETATM   16  C3  UNL     1      28.937   1.090  54.223  1.00  0.00     0.044 C 
HETATM   17  C2  UNL     1      29.997   0.307  53.489  1.00  0.00     0.105 C 
HETATM   18  C1  UNL     1      29.457  -1.075  53.490  1.00  0.00     0.218 C 
HETATM   19  O1  UNL     1      30.101  -2.031  52.938  1.00  0.00    -0.274 OA
HETATM   20  N4  UNL     1      28.204  -1.136  54.157  1.00  0.00    -0.348 N 
HETATM   21  H17 UNL     1      27.622  -1.991  54.070  1.00  0.00     0.163 HD
ENDBRANCH  12  15
ENDBRANCH   1  11
BRANCH   8  22
HETATM   22  N3  UNL     1      22.748   1.362  50.750  1.00  0.00    -0.340 N 
HETATM   23  H11 UNL     1      23.112   0.892  49.924  1.00  0.00     0.167 HD
BRANCH  22  24
HETATM   24  C13 UNL     1      23.231   2.694  50.817  1.00  0.00     0.035 A 
HETATM   25  C14 UNL     1      22.666   3.683  51.577  1.00  0.00     0.029 A 
HETATM   26  C15 UNL     1      23.137   4.977  51.655  1.00  0.00     0.004 A 
HETATM   27  C16 UNL     1      24.239   5.350  50.944  1.00  0.00     0.019 A 
HETATM   28  C17 UNL     1      24.852   4.411  50.166  1.00  0.00     0.013 A 
HETATM   29 BR1  UNL     1      26.394   4.861  49.149  1.00  0.00    -0.051 Br
HETATM   30  C18 UNL     1      24.339   3.135  50.127  1.00  0.00     0.048 A 
ENDBRANCH  22  24
ENDBRANCH   8  22
TORSDOF 4
ENDMDL
MODEL 2
REMARK VINA RESULT:      -9.4      1.227      1.722
REMARK  4 active torsions:
REMARK  status: ('A' for Active; 'I' for Inactive)
REMARK    1  A    between atoms: C4_5  and  C5_6 
REMARK       I    between atoms: C5_6  and  N1_8 
REMARK    2  A    between atoms: N1_8  and  C6_9 
REMARK    3  A    between atoms: C12_16  and  N3_17 
REMARK    4  A    between atoms: N3_17  and  C13_18 
ROOT
HETATM    1  C6  UNL     1      24.373   0.408  53.072  1.00  0.00     0.035 A 
HETATM    2  C7  UNL     1      23.307  -0.193  53.689  1.00  0.00     0.030 A 
HETATM    3  C8  UNL     1      22.051   0.002  53.162  1.00  0.00     0.014 A 
HETATM    4  C9  UNL     1      21.879   0.785  52.041  1.00  0.00    -0.021 A 
HETATM    5  C10 UNL     1      20.580   0.911  51.597  1.00  0.00     0.031 A 
HETATM    6  C11 UNL     1      20.441   1.698  50.474  1.00  0.00     0.120 A 
HETATM    7  N2  UNL     1      21.468   2.292  49.859  1.00  0.00    -0.242 NA
HETATM    8  C12 UNL     1      22.717   2.191  50.259  1.00  0.00     0.139 A 
HETATM    9  C19 UNL     1      22.912   1.414  51.378  1.00  0.00     0.022 A 
HETATM   10  C20 UNL     1      24.138   1.178  51.956  1.00  0.00     0.045 A 
ENDROOT
BRANCH   1  11
HETATM   11  N1  UNL     1      25.667   0.203  53.622  1.00  0.00    -0.325 N 
HETATM   12  C5  UNL     1      26.560   1.150  54.163  1.00  0.00     0.245 C 
HETATM   13  O2  UNL     1      26.176   2.357  54.168  1.00  0.00    -0.271 OA
HETATM   14  H6  UNL     1      25.747  -0.848  53.505  1.00  0.00     0.169 HD
BRANCH  12  15
HETATM   15  C4  UNL     1      27.803   0.426  54.616  1.00  0.00     0.177 C 
HETATM   16  C3  UNL     1      28.949   1.037  53.833  1.00  0.00     0.044 C 
HETATM   17  C2  UNL     1      29.835  -0.095  53.376  1.00  0.00     0.105 C 
HETATM   18  C1  UNL     1      29.017  -1.300  53.659  1.00  0.00     0.218 C 
HETATM   19  O1  UNL     1      29.457  -2.470  53.391  1.00  0.00    -0.274 OA
HETATM   20  N4  UNL     1      27.765  -0.948  54.232  1.00  0.00    -0.348 N 
HETATM   21  H17 UNL     1      27.019  -1.665  54.306  1.00  0.00     0.163 HD
ENDBRANCH  12  15
ENDBRANCH   1  11
BRANCH   8  22
HETATM   22  N3  UNL     1      23.835   2.801  49.641  1.00  0.00    -0.340 N 
HETATM   23  H11 UNL     1      24.413   2.332  48.948  1.00  0.00     0.167 HD
BRANCH  22  24
HETATM   24  C13 UNL     1      24.313   4.115  49.879  1.00  0.00     0.035 A 
HETATM   25  C14 UNL     1      23.770   4.982  50.789  1.00  0.00     0.029 A 
HETATM   26  C15 UNL     1      24.237   6.256  51.032  1.00  0.00     0.004 A 
HETATM   27  C16 UNL     1      25.312   6.736  50.345  1.00  0.00     0.019 A 
HETATM   28  C17 UNL     1      25.902   5.923  49.422  1.00  0.00     0.013 A 
HETATM   29 BR1  UNL     1      27.406   6.526  48.427  1.00  0.00    -0.051 Br
HETATM   30  C18 UNL     1      25.394   4.660  49.220  1.00  0.00     0.048 A 
ENDBRANCH  22  24
ENDBRANCH   8  22
TORSDOF 4
ENDMDL
MODEL 3
REMARK VINA RESULT:      -9.3      2.555      4.816
REMARK  4 active torsions:
REMARK  status: ('A' for Active; 'I' for Inactive)
REMARK    1  A    between atoms: C4_5  and  C5_6 
REMARK       I    between atoms: C5_6  and  N1_8 
REMARK    2  A    between atoms: N1_8  and  C6_9 
REMARK    3  A    between atoms: C12_16  and  N3_17 
REMARK    4  A    between atoms: N3_17  and  C13_18 
ROOT
HETATM    1  C6  UNL     1      26.024   2.071  51.615  1.00  0.00     0.035 A 
HETATM    2  C7  UNL     1      26.698   2.532  50.514  1.00  0.00     0.030 A 
HETATM    3  C8  UNL     1      26.046   3.391  49.660  1.00  0.00     0.014 A 
HETATM    4  C9  UNL     1      24.745   3.773  49.914  1.00  0.00    -0.021 A 
HETATM    5  C10 UNL     1      24.190   4.638  48.995  1.00  0.00     0.031 A 
HETATM    6  C11 UNL     1      22.891   5.002  49.277  1.00  0.00     0.120 A 
HETATM    7  N2  UNL     1      22.218   4.563  50.345  1.00  0.00    -0.242 NA
HETATM    8  C12 UNL     1      22.720   3.739  51.238  1.00  0.00     0.139 A 
HETATM    9  C19 UNL     1      24.017   3.344  51.003  1.00  0.00     0.022 A 
HETATM   10  C20 UNL     1      24.728   2.489  51.815  1.00  0.00     0.045 A 
ENDROOT
BRANCH   1  11
HETATM   11  N1  UNL     1      26.704   1.184  52.492  1.00  0.00    -0.325 N 
HETATM   12  C5  UNL     1      27.381   1.473  53.694  1.00  0.00     0.245 C 
HETATM   13  O2  UNL     1      27.399   2.686  54.060  1.00  0.00    -0.271 OA
HETATM   14  H6  UNL     1      26.547   0.270  51.979  1.00  0.00     0.169 HD
BRANCH  12  15
HETATM   15  C4  UNL     1      27.932   0.184  54.250  1.00  0.00     0.177 C 
HETATM   16  C3  UNL     1      29.405   0.172  53.888  1.00  0.00     0.044 C 
HETATM   17  C2  UNL     1      29.740  -1.220  53.413  1.00  0.00     0.105 C 
HETATM   18  C1  UNL     1      28.407  -1.850  53.246  1.00  0.00     0.218 C 
HETATM   19  O1  UNL     1      28.298  -3.058  52.842  1.00  0.00    -0.274 OA
HETATM   20  N4  UNL     1      27.366  -0.945  53.587  1.00  0.00    -0.348 N 
HETATM   21  H17 UNL     1      26.385  -1.180  53.339  1.00  0.00     0.163 HD
ENDBRANCH  12  15
ENDBRANCH   1  11
BRANCH   8  22
HETATM   22  N3  UNL     1      22.047   3.248  52.381  1.00  0.00    -0.340 N 
HETATM   23  H11 UNL     1      22.113   3.687  53.297  1.00  0.00     0.167 HD
BRANCH  22  24
HETATM   24  C13 UNL     1      21.203   2.109  52.436  1.00  0.00     0.035 A 
HETATM   25  C14 UNL     1      20.017   1.994  51.761  1.00  0.00     0.029 A 
HETATM   26  C15 UNL     1      19.197   0.886  51.802  1.00  0.00     0.004 A 
HETATM   27  C16 UNL     1      19.546  -0.198  52.551  1.00  0.00     0.019 A 
HETATM   28  C17 UNL     1      20.717  -0.150  53.249  1.00  0.00     0.013 A 
HETATM   29 BR1  UNL     1      21.266  -1.626  54.314  1.00  0.00    -0.051 Br
HETATM   30  C18 UNL     1      21.496   0.982  53.172  1.00  0.00     0.048 A 
ENDBRANCH  22  24
ENDBRANCH   8  22
TORSDOF 4
ENDMDL
MODEL 4
REMARK VINA RESULT:      -8.9      1.692      1.937
REMARK  4 active torsions:
REMARK  status: ('A' for Active; 'I' for Inactive)
REMARK    1  A    between atoms: C4_5  and  C5_6 
REMARK       I    between atoms: C5_6  and  N1_8 
REMARK    2  A    between atoms: N1_8  and  C6_9 
REMARK    3  A    between atoms: C12_16  and  N3_17 
REMARK    4  A    between atoms: N3_17  and  C13_18 
ROOT
HETATM    1  C6  UNL     1      23.729   0.073  53.227  1.00  0.00     0.035 A 
HETATM    2  C7  UNL     1      23.340  -0.763  54.242  1.00  0.00     0.030 A 
HETATM    3  C8  UNL     1      22.009  -1.095  54.342  1.00  0.00     0.014 A 
HETATM    4  C9  UNL     1      21.095  -0.593  53.439  1.00  0.00    -0.021 A 
HETATM    5  C10 UNL     1      19.790  -0.991  53.631  1.00  0.00     0.031 A 
HETATM    6  C11 UNL     1      18.902  -0.475  52.712  1.00  0.00     0.120 A 
HETATM    7  N2  UNL     1      19.262   0.342  51.718  1.00  0.00    -0.242 NA
HETATM    8  C12 UNL     1      20.498   0.739  51.509  1.00  0.00     0.139 A 
HETATM    9  C19 UNL     1      21.427   0.251  52.400  1.00  0.00     0.022 A 
HETATM   10  C20 UNL     1      22.771   0.541  52.357  1.00  0.00     0.045 A 
ENDROOT
BRANCH   1  11
HETATM   11  N1  UNL     1      25.106   0.411  53.131  1.00  0.00    -0.325 N 
HETATM   12  C5  UNL     1      25.715   1.679  53.226  1.00  0.00     0.245 C 
HETATM   13  O2  UNL     1      24.947   2.667  53.424  1.00  0.00    -0.271 OA
HETATM   14  H6  UNL     1      25.517  -0.553  52.972  1.00  0.00     0.169 HD
BRANCH  12  15
HETATM   15  C4  UNL     1      27.203   1.504  53.057  1.00  0.00     0.177 C 
HETATM   16  C3  UNL     1      27.543   0.177  53.709  1.00  0.00     0.044 C 
HETATM   17  C2  UNL     1      28.808   0.377  54.504  1.00  0.00     0.105 C 
HETATM   18  C1  UNL     1      28.972   1.852  54.514  1.00  0.00     0.218 C 
HETATM   19  O1  UNL     1      29.959   2.399  55.114  1.00  0.00    -0.274 OA
HETATM   20  N4  UNL     1      27.923   2.489  53.797  1.00  0.00    -0.348 N 
HETATM   21  H17 UNL     1      27.801   3.517  53.880  1.00  0.00     0.163 HD
ENDBRANCH  12  15
ENDBRANCH   1  11
BRANCH   8  22
HETATM   22  N3  UNL     1      20.926   1.600  50.472  1.00  0.00    -0.340 N 
HETATM   23  H11 UNL     1      20.837   1.371  49.485  1.00  0.00     0.167 HD
BRANCH  22  24
HETATM   24  C13 UNL     1      21.525   2.876  50.632  1.00  0.00     0.035 A 
HETATM   25  C14 UNL     1      20.978   3.901  51.359  1.00  0.00     0.029 A 
HETATM   26  C15 UNL     1      21.560   5.139  51.528  1.00  0.00     0.004 A 
HETATM   27  C16 UNL     1      22.764   5.416  50.951  1.00  0.00     0.019 A 
HETATM   28  C17 UNL     1      23.365   4.438  50.212  1.00  0.00     0.013 A 
HETATM   29 BR1  UNL     1      25.045   4.754  49.379  1.00  0.00    -0.051 Br
HETATM   30  C18 UNL     1      22.738   3.220  50.077  1.00  0.00     0.048 A 
ENDBRANCH  22  24
ENDBRANCH   8  22
TORSDOF 4
ENDMDL
MODEL 5
REMARK VINA RESULT:      -8.8      3.001      6.531
REMARK  4 active torsions:
REMARK  status: ('A' for Active; 'I' for Inactive)
REMARK    1  A    between atoms: C4_5  and  C5_6 
REMARK       I    between atoms: C5_6  and  N1_8 
REMARK    2  A    between atoms: N1_8  and  C6_9 
REMARK    3  A    between atoms: C12_16  and  N3_17 
REMARK    4  A    between atoms: N3_17  and  C13_18 
ROOT
HETATM    1  C6  UNL     1      23.680  -0.137  53.079  1.00  0.00     0.035 A 
HETATM    2  C7  UNL     1      24.302  -0.724  54.151  1.00  0.00     0.030 A 
HETATM    3  C8  UNL     1      25.592  -0.347  54.445  1.00  0.00     0.014 A 
HETATM    4  C9  UNL     1      26.236   0.597  53.674  1.00  0.00    -0.021 A 
HETATM    5  C10 UNL     1      27.524   0.900  54.059  1.00  0.00     0.031 A 
HETATM    6  C11 UNL     1      28.140   1.849  53.271  1.00  0.00     0.120 A 
HETATM    7  N2  UNL     1      27.551   2.431  52.222  1.00  0.00    -0.242 NA
HETATM    8  C12 UNL     1      26.325   2.162  51.830  1.00  0.00     0.139 A 
HETATM    9  C19 UNL     1      25.663   1.221  52.586  1.00  0.00     0.022 A 
HETATM   10  C20 UNL     1      24.375   0.799  52.347  1.00  0.00     0.045 A 
ENDROOT
BRANCH   1  11
HETATM   11  N1  UNL     1      22.348  -0.532  52.781  1.00  0.00    -0.325 N 
HETATM   12  C5  UNL     1      21.170  -0.300  53.520  1.00  0.00     0.245 C 
HETATM   13  O2  UNL     1      21.294   0.345  54.603  1.00  0.00    -0.271 OA
HETATM   14  H6  UNL     1      22.511  -1.034  51.862  1.00  0.00     0.169 HD
BRANCH  12  15
HETATM   15  C4  UNL     1      20.014  -0.921  52.776  1.00  0.00     0.177 C 
HETATM   16  C3  UNL     1      19.643   0.067  51.686  1.00  0.00     0.044 C 
HETATM   17  C2  UNL     1      18.138   0.152  51.650  1.00  0.00     0.105 C 
HETATM   18  C1  UNL     1      17.729  -0.551  52.892  1.00  0.00     0.218 C 
HETATM   19  O1  UNL     1      16.495  -0.673  53.201  1.00  0.00    -0.274 OA
HETATM   20  N4  UNL     1      18.861  -1.021  53.611  1.00  0.00    -0.348 N 
HETATM   21  H17 UNL     1      18.741  -1.361  54.585  1.00  0.00     0.163 HD
ENDBRANCH  12  15
ENDBRANCH   1  11
BRANCH   8  22
HETATM   22  N3  UNL     1      25.660   2.751  50.729  1.00  0.00    -0.340 N 
HETATM   23  H11 UNL     1      24.850   2.332  50.278  1.00  0.00     0.167 HD
BRANCH  22  24
HETATM   24  C13 UNL     1      26.001   3.976  50.099  1.00  0.00     0.035 A 
HETATM   25  C14 UNL     1      27.007   4.117  49.179  1.00  0.00     0.029 A 
HETATM   26  C15 UNL     1      27.336   5.301  48.555  1.00  0.00     0.004 A 
HETATM   27  C16 UNL     1      26.643   6.441  48.837  1.00  0.00     0.019 A 
HETATM   28  C17 UNL     1      25.627   6.371  49.745  1.00  0.00     0.013 A 
HETATM   29 BR1  UNL     1      24.619   7.921  50.187  1.00  0.00    -0.051 Br
HETATM   30  C18 UNL     1      25.342   5.162  50.338  1.00  0.00     0.048 A 
ENDBRANCH  22  24
ENDBRANCH   8  22
TORSDOF 4
ENDMDL
MODEL 6
REMARK VINA RESULT:      -8.7      2.356      3.427
REMARK  4 active torsions:
REMARK  status: ('A' for Active; 'I' for Inactive)
REMARK    1  A    between atoms: C4_5  and  C5_6 
REMARK       I    between atoms: C5_6  and  N1_8 
REMARK    2  A    between atoms: N1_8  and  C6_9 
REMARK    3  A    between atoms: C12_16  and  N3_17 
REMARK    4  A    between atoms: N3_17  and  C13_18 
ROOT
HETATM    1  C6  UNL     1      24.075   1.811  53.048  1.00  0.00     0.035 A 
HETATM    2  C7  UNL     1      22.929   1.058  53.034  1.00  0.00     0.030 A 
HETATM    3  C8  UNL     1      21.770   1.639  52.573  1.00  0.00     0.014 A 
HETATM    4  C9  UNL     1      21.772   2.948  52.138  1.00  0.00    -0.021 A 
HETATM    5  C10 UNL     1      20.558   3.428  51.695  1.00  0.00     0.031 A 
HETATM    6  C11 UNL     1      20.592   4.737  51.266  1.00  0.00     0.120 A 
HETATM    7  N2  UNL     1      21.698   5.486  51.272  1.00  0.00    -0.242 NA
HETATM    8  C12 UNL     1      22.869   5.057  51.689  1.00  0.00     0.139 A 
HETATM    9  C19 UNL     1      22.891   3.753  52.128  1.00  0.00     0.022 A 
HETATM   10  C20 UNL     1      24.013   3.111  52.601  1.00  0.00     0.045 A 
ENDROOT
BRANCH   1  11
HETATM   11  N1  UNL     1      25.267   1.204  53.527  1.00  0.00    -0.325 N 
HETATM   12  C5  UNL     1      26.446   0.891  52.820  1.00  0.00     0.245 C 
HETATM   13  O2  UNL     1      26.466   1.182  51.587  1.00  0.00    -0.271 OA
HETATM   14  H6  UNL     1      25.003   1.067  54.544  1.00  0.00     0.169 HD
BRANCH  12  15
HETATM   15  C4  UNL     1      27.421   0.259  53.781  1.00  0.00     0.177 C 
HETATM   16  C3  UNL     1      28.781   0.835  53.434  1.00  0.00     0.044 C 
HETATM   17  C2  UNL     1      29.772  -0.301  53.464  1.00  0.00     0.105 C 
HETATM   18  C1  UNL     1      28.905  -1.504  53.535  1.00  0.00     0.218 C 
HETATM   19  O1  UNL     1      29.412  -2.677  53.573  1.00  0.00    -0.274 OA
HETATM   20  N4  UNL     1      27.531  -1.145  53.552  1.00  0.00    -0.348 N 
HETATM   21  H17 UNL     1      26.811  -1.880  53.408  1.00  0.00     0.163 HD
ENDBRANCH  12  15
ENDBRANCH   1  11
BRANCH   8  22
HETATM   22  N3  UNL     1      24.066   5.811  51.714  1.00  0.00    -0.340 N 
HETATM   23  H11 UNL     1      24.541   6.073  52.575  1.00  0.00     0.167 HD
BRANCH  22  24
HETATM   24  C13 UNL     1      24.771   6.307  50.588  1.00  0.00     0.035 A 
HETATM   25  C14 UNL     1      24.669   5.790  49.323  1.00  0.00     0.029 A 
HETATM   26  C15 UNL     1      25.343   6.274  48.223  1.00  0.00     0.004 A 
HETATM   27  C16 UNL     1      26.183   7.340  48.347  1.00  0.00     0.019 A 
HETATM   28  C17 UNL     1      26.331   7.905  49.580  1.00  0.00     0.013 A 
HETATM   29 BR1  UNL     1      27.485   9.396  49.826  1.00  0.00    -0.051 Br
HETATM   30  C18 UNL     1      25.633   7.381  50.644  1.00  0.00     0.048 A 
ENDBRANCH  22  24
ENDBRANCH   8  22
TORSDOF 4
ENDMDL
MODEL 7
REMARK VINA RESULT:      -8.6      4.036      6.868
REMARK  4 active torsions:
REMARK  status: ('A' for Active; 'I' for Inactive)
REMARK    1  A    between atoms: C4_5  and  C5_6 
REMARK       I    between atoms: C5_6  and  N1_8 
REMARK    2  A    between atoms: N1_8  and  C6_9 
REMARK    3  A    between atoms: C12_16  and  N3_17 
REMARK    4  A    between atoms: N3_17  and  C13_18 
ROOT
HETATM    1  C6  UNL     1      25.597   3.287  51.199  1.00  0.00     0.035 A 
HETATM    2  C7  UNL     1      26.794   2.622  51.265  1.00  0.00     0.030 A 
HETATM    3  C8  UNL     1      26.819   1.376  51.848  1.00  0.00     0.014 A 
HETATM    4  C9  UNL     1      25.662   0.818  52.350  1.00  0.00    -0.021 A 
HETATM    5  C10 UNL     1      25.801  -0.434  52.909  1.00  0.00     0.031 A 
HETATM    6  C11 UNL     1      24.628  -0.966  53.400  1.00  0.00     0.120 A 
HETATM    7  N2  UNL     1      23.452  -0.334  53.345  1.00  0.00    -0.242 NA
HETATM    8  C12 UNL     1      23.289   0.860  52.818  1.00  0.00     0.139 A 
HETATM    9  C19 UNL     1      24.431   1.437  52.311  1.00  0.00     0.022 A 
HETATM   10  C20 UNL     1      24.477   2.678  51.717  1.00  0.00     0.045 A 
ENDROOT
BRANCH   1  11
HETATM   11  N1  UNL     1      25.579   4.574  50.597  1.00  0.00    -0.325 N 
HETATM   12  C5  UNL     1      26.282   5.030  49.463  1.00  0.00     0.245 C 
HETATM   13  O2  UNL     1      27.041   4.195  48.888  1.00  0.00    -0.271 OA
HETATM   14  H6  UNL     1      24.896   5.064  51.241  1.00  0.00     0.169 HD
BRANCH  12  15
HETATM   15  C4  UNL     1      25.918   6.475  49.229  1.00  0.00     0.177 C 
HETATM   16  C3  UNL     1      26.807   6.950  48.095  1.00  0.00     0.044 C 
HETATM   17  C2  UNL     1      27.311   8.322  48.463  1.00  0.00     0.105 C 
HETATM   18  C1  UNL     1      26.936   8.448  49.893  1.00  0.00     0.218 C 
HETATM   19  O1  UNL     1      27.215   9.506  50.554  1.00  0.00    -0.274 OA
HETATM   20  N4  UNL     1      26.269   7.281  50.354  1.00  0.00    -0.348 N 
HETATM   21  H17 UNL     1      26.119   7.148  51.372  1.00  0.00     0.163 HD
ENDBRANCH  12  15
ENDBRANCH   1  11
BRANCH   8  22
HETATM   22  N3  UNL     1      22.066   1.568  52.737  1.00  0.00    -0.340 N 
HETATM   23  H11 UNL     1      21.935   2.500  53.124  1.00  0.00     0.167 HD
BRANCH  22  24
HETATM   24  C13 UNL     1      20.870   1.112  52.125  1.00  0.00     0.035 A 
HETATM   25  C14 UNL     1      20.483   1.434  50.851  1.00  0.00     0.029 A 
HETATM   26  C15 UNL     1      19.328   0.986  50.248  1.00  0.00     0.004 A 
HETATM   27  C16 UNL     1      18.475   0.164  50.922  1.00  0.00     0.019 A 
HETATM   28  C17 UNL     1      18.801  -0.197  52.197  1.00  0.00     0.013 A 
HETATM   29 BR1  UNL     1      17.660  -1.343  53.197  1.00  0.00    -0.051 Br
HETATM   30  C18 UNL     1      19.968   0.280  52.750  1.00  0.00     0.048 A 
ENDBRANCH  22  24
ENDBRANCH   8  22
TORSDOF 4
ENDMDL
MODEL 8
REMARK VINA RESULT:      -8.6      1.891      2.047
REMARK  4 active torsions:
REMARK  status: ('A' for Active; 'I' for Inactive)
REMARK    1  A    between atoms: C4_5  and  C5_6 
REMARK       I    between atoms: C5_6  and  N1_8 
REMARK    2  A    between atoms: N1_8  and  C6_9 
REMARK    3  A    between atoms: C12_16  and  N3_17 
REMARK    4  A    between atoms: N3_17  and  C13_18 
ROOT
HETATM    1  C6  UNL     1      23.229  -0.249  53.686  1.00  0.00     0.035 A 
HETATM    2  C7  UNL     1      22.288  -0.620  54.612  1.00  0.00     0.030 A 
HETATM    3  C8  UNL     1      20.961  -0.575  54.251  1.00  0.00     0.014 A 
HETATM    4  C9  UNL     1      20.596  -0.165  52.986  1.00  0.00    -0.021 A 
HETATM    5  C10 UNL     1      19.242  -0.160  52.731  1.00  0.00     0.031 A 
HETATM    6  C11 UNL     1      18.909   0.252  51.459  1.00  0.00     0.120 A 
HETATM    7  N2  UNL     1      19.811   0.617  50.543  1.00  0.00    -0.242 NA
HETATM    8  C12 UNL     1      21.108   0.623  50.756  1.00  0.00     0.139 A 
HETATM    9  C19 UNL     1      21.495   0.218  52.013  1.00  0.00     0.022 A 
HETATM   10  C20 UNL     1      22.802   0.150  52.440  1.00  0.00     0.045 A 
ENDROOT
BRANCH   1  11
HETATM   11  N1  UNL     1      24.597  -0.298  54.066  1.00  0.00    -0.325 N 
HETATM   12  C5  UNL     1      25.597   0.682  53.901  1.00  0.00     0.245 C 
HETATM   13  O2  UNL     1      25.249   1.762  53.337  1.00  0.00    -0.271 OA
HETATM   14  H6  UNL     1      24.629  -1.265  54.498  1.00  0.00     0.169 HD
BRANCH  12  15
HETATM   15  C4  UNL     1      26.885   0.147  54.475  1.00  0.00     0.177 C 
HETATM   16  C3  UNL     1      27.974   1.094  54.008  1.00  0.00     0.044 C 
HETATM   17  C2  UNL     1      29.147   0.251  53.575  1.00  0.00     0.105 C 
HETATM   18  C1  UNL     1      28.582  -1.121  53.536  1.00  0.00     0.218 C 
HETATM   19  O1  UNL     1      29.305  -2.119  53.199  1.00  0.00    -0.274 OA
HETATM   20  N4  UNL     1      27.211  -1.122  53.909  1.00  0.00    -0.348 N 
HETATM   21  H17 UNL     1      26.639  -1.972  53.745  1.00  0.00     0.163 HD
ENDBRANCH  12  15
ENDBRANCH   1  11
BRANCH   8  22
HETATM   22  N3  UNL     1      22.099   1.000  49.820  1.00  0.00    -0.340 N 
HETATM   23  H11 UNL     1      22.795   0.355  49.455  1.00  0.00     0.167 HD
BRANCH  22  24
HETATM   24  C13 UNL     1      22.276   2.290  49.257  1.00  0.00     0.035 A 
HETATM   25  C14 UNL     1      22.738   3.378  49.950  1.00  0.00     0.029 A 
HETATM   26  C15 UNL     1      22.923   4.632  49.407  1.00  0.00     0.004 A 
HETATM   27  C16 UNL     1      22.640   4.859  48.092  1.00  0.00     0.019 A 
HETATM   28  C17 UNL     1      22.176   3.816  47.343  1.00  0.00     0.013 A 
HETATM   29 BR1  UNL     1      21.763   4.060  45.504  1.00  0.00    -0.051 Br
HETATM   30  C18 UNL     1      22.011   2.586  47.938  1.00  0.00     0.048 A 
ENDBRANCH  22  24
ENDBRANCH   8  22
TORSDOF 4
ENDMDL
MODEL 9
REMARK VINA RESULT:      -8.4      4.735      7.363
REMARK  4 active torsions:
REMARK  status: ('A' for Active; 'I' for Inactive)
REMARK    1  A    between atoms: C4_5  and  C5_6 
REMARK       I    between atoms: C5_6  and  N1_8 
REMARK    2  A    between atoms: N1_8  and  C6_9 
REMARK    3  A    between atoms: C12_16  and  N3_17 
REMARK    4  A    between atoms: N3_17  and  C13_18 
ROOT
HETATM    1  C6  UNL     1      25.569   3.767  49.858  1.00  0.00     0.035 A 
HETATM    2  C7  UNL     1      24.286   4.043  49.465  1.00  0.00     0.030 A 
HETATM    3  C8  UNL     1      24.053   5.198  48.753  1.00  0.00     0.014 A 
HETATM    4  C9  UNL     1      25.094   6.050  48.448  1.00  0.00    -0.021 A 
HETATM    5  C10 UNL     1      24.749   7.175  47.731  1.00  0.00     0.031 A 
HETATM    6  C11 UNL     1      25.810   8.006  47.440  1.00  0.00     0.120 A 
HETATM    7  N2  UNL     1      27.068   7.753  47.814  1.00  0.00    -0.242 NA
HETATM    8  C12 UNL     1      27.427   6.690  48.499  1.00  0.00     0.139 A 
HETATM    9  C19 UNL     1      26.404   5.825  48.816  1.00  0.00     0.022 A 
HETATM   10  C20 UNL     1      26.565   4.656  49.523  1.00  0.00     0.045 A 
ENDROOT
BRANCH   1  11
HETATM   11  N1  UNL     1      25.801   2.573  50.593  1.00  0.00    -0.325 N 
HETATM   12  C5  UNL     1      25.377   2.239  51.895  1.00  0.00     0.245 C 
HETATM   13  O2  UNL     1      24.696   3.109  52.514  1.00  0.00    -0.271 OA
HETATM   14  H6  UNL     1      26.370   2.032  49.881  1.00  0.00     0.169 HD
BRANCH  12  15
HETATM   15  C4  UNL     1      25.880   0.854  52.217  1.00  0.00     0.177 C 
HETATM   16  C3  UNL     1      24.828   0.227  53.112  1.00  0.00     0.044 C 
HETATM   17  C2  UNL     1      25.553  -0.489  54.224  1.00  0.00     0.105 C 
HETATM   18  C1  UNL     1      26.949  -0.004  54.085  1.00  0.00     0.218 C 
HETATM   19  O1  UNL     1      27.865  -0.405  54.881  1.00  0.00    -0.274 OA
HETATM   20  N4  UNL     1      27.069   0.909  53.003  1.00  0.00    -0.348 N 
HETATM   21  H17 UNL     1      27.936   1.472  52.906  1.00  0.00     0.163 HD
ENDBRANCH  12  15
ENDBRANCH   1  11
BRANCH   8  22
HETATM   22  N3  UNL     1      28.743   6.380  48.917  1.00  0.00    -0.340 N 
HETATM   23  H11 UNL     1      28.992   6.203  49.887  1.00  0.00     0.167 HD
BRANCH  22  24
HETATM   24  C13 UNL     1      29.885   6.271  48.084  1.00  0.00     0.035 A 
HETATM   25  C14 UNL     1      30.473   7.326  47.437  1.00  0.00     0.029 A 
HETATM   26  C15 UNL     1      31.590   7.228  46.635  1.00  0.00     0.004 A 
HETATM   27  C16 UNL     1      32.190   6.020  46.437  1.00  0.00     0.019 A 
HETATM   28  C17 UNL     1      31.655   4.926  47.054  1.00  0.00     0.013 A 
HETATM   29 BR1  UNL     1      32.439   3.210  46.824  1.00  0.00    -0.051 Br
HETATM   30  C18 UNL     1      30.539   5.082  47.844  1.00  0.00     0.048 A 
ENDBRANCH  22  24
ENDBRANCH   8  22
TORSDOF 4
ENDMDL
