MODEL 1
REMARK VINA RESULT:      -8.8      0.000      0.000
REMARK  9 active torsions:
REMARK  status: ('A' for Active; 'I' for Inactive)
REMARK    1  A    between atoms: C2_2  and  N1_3 
REMARK    2  A    between atoms: N1_3  and  C3_4 
REMARK    3  A    between atoms: N1_3  and  C5_6 
REMARK    4  A    between atoms: C5_6  and  C6_7 
REMARK    5  A    between atoms: C6_7  and  C7_8 
REMARK    6  A    between atoms: C8_9  and  C9_10 
REMARK       I    between atoms: C9_10  and  N2_12 
REMARK    7  A    between atoms: N2_12  and  C10_13 
REMARK    8  A    between atoms: C15_20  and  N5_21 
REMARK    9  A    between atoms: N5_21  and  C16_22 
ROOT
HETATM    1  C10 UNL     1      24.999   4.346  49.802  1.00  0.00     0.036 A 
HETATM    2  C11 UNL     1      23.994   3.961  48.941  1.00  0.00     0.032 A 
HETATM    3  C12 UNL     1      23.158   2.953  49.353  1.00  0.00     0.035 A 
HETATM    4  C13 UNL     1      23.389   2.393  50.612  1.00  0.00     0.072 A 
HETATM    5  N3  UNL     1      22.521   1.400  50.926  1.00  0.00    -0.241 NA
HETATM    6  C14 UNL     1      22.649   0.778  52.113  1.00  0.00     0.236 A 
HETATM    7  N4  UNL     1      23.631   1.131  52.992  1.00  0.00    -0.224 NA
HETATM    8  C15 UNL     1      24.487   2.108  52.685  1.00  0.00     0.142 A 
HETATM    9  C22 UNL     1      24.391   2.772  51.481  1.00  0.00     0.041 A 
HETATM   10  C23 UNL     1      25.215   3.786  51.042  1.00  0.00     0.047 A 
ENDROOT
BRANCH   1  11
HETATM   11  N2  UNL     1      25.888   5.406  49.357  1.00  0.00    -0.316 N 
HETATM   12  C9  UNL     1      27.048   4.669  49.010  1.00  0.00     0.300 C 
HETATM   13  O1  UNL     1      26.996   3.400  49.163  1.00  0.00    -0.258 OA
HETATM   14  H15 UNL     1      26.014   6.431  49.202  1.00  0.00     0.170 HD
BRANCH  12  15
HETATM   15  C8  UNL     1      28.307   5.164  48.497  1.00  0.00    -0.005 C 
HETATM   16  C7  UNL     1      29.358   5.562  48.089  1.00  0.00    -0.095 C 
BRANCH  16  17
HETATM   17  C6  UNL     1      30.681   6.038  47.592  1.00  0.00     0.114 C 
BRANCH  17  18
HETATM   18  C5  UNL     1      31.734   5.506  48.488  1.00  0.00     0.129 C 
BRANCH  18  19
HETATM   19  N1  UNL     1      32.728   4.800  47.772  1.00  0.00    -0.412 N 
BRANCH  19  20
HETATM   20  C2  UNL     1      33.976   5.427  47.617  1.00  0.00     0.112 C 
HETATM   21  C1  UNL     1      34.945   5.389  48.742  1.00  0.00     0.026 C 
ENDBRANCH  19  20
BRANCH  19  22
HETATM   22  C3  UNL     1      32.474   3.553  47.211  1.00  0.00     0.112 C 
HETATM   23  C4  UNL     1      33.150   2.341  47.780  1.00  0.00     0.026 C 
ENDBRANCH  19  22
ENDBRANCH  18  19
ENDBRANCH  17  18
ENDBRANCH  16  17
ENDBRANCH  12  15
ENDBRANCH   1  11
BRANCH   8  24
HETATM   24  N5  UNL     1      25.542   2.542  53.540  1.00  0.00    -0.340 N 
HETATM   25  H19 UNL     1      25.599   3.365  54.177  1.00  0.00     0.167 HD
BRANCH  24  26
HETATM   26  C16 UNL     1      26.699   1.702  53.513  1.00  0.00     0.035 A 
HETATM   27  C17 UNL     1      27.990   2.174  53.775  1.00  0.00     0.032 A 
HETATM   28  C18 UNL     1      29.090   1.348  53.725  1.00  0.00     0.046 A 
HETATM   29  C19 UNL     1      28.953   0.006  53.409  1.00  0.00     0.138 A 
HETATM   30  F1  UNL     1      30.003  -0.860  53.343  1.00  0.00    -0.204 F 
HETATM   31  C20 UNL     1      27.714  -0.533  53.138  1.00  0.00     0.074 A 
HETATM   32 CL1  UNL     1      27.435  -2.215  52.726  1.00  0.00    -0.081 Cl
HETATM   33  C21 UNL     1      26.658   0.347  53.206  1.00  0.00     0.056 A 
ENDBRANCH  24  26
ENDBRANCH   8  24
TORSDOF 9
ENDMDL
MODEL 2
REMARK VINA RESULT:      -8.4      1.247      1.830
REMARK  9 active torsions:
REMARK  status: ('A' for Active; 'I' for Inactive)
REMARK    1  A    between atoms: C2_2  and  N1_3 
REMARK    2  A    between atoms: N1_3  and  C3_4 
REMARK    3  A    between atoms: N1_3  and  C5_6 
REMARK    4  A    between atoms: C5_6  and  C6_7 
REMARK    5  A    between atoms: C6_7  and  C7_8 
REMARK    6  A    between atoms: C8_9  and  C9_10 
REMARK       I    between atoms: C9_10  and  N2_12 
REMARK    7  A    between atoms: N2_12  and  C10_13 
REMARK    8  A    between atoms: C15_20  and  N5_21 
REMARK    9  A    between atoms: N5_21  and  C16_22 
ROOT
HETATM    1  C10 UNL     1      24.674   4.140  49.856  1.00  0.00     0.036 A 
HETATM    2  C11 UNL     1      23.654   3.686  49.047  1.00  0.00     0.032 A 
HETATM    3  C12 UNL     1      22.878   2.658  49.521  1.00  0.00     0.035 A 
HETATM    4  C13 UNL     1      23.180   2.147  50.786  1.00  0.00     0.072 A 
HETATM    5  N3  UNL     1      22.368   1.129  51.163  1.00  0.00    -0.241 NA
HETATM    6  C14 UNL     1      22.568   0.550  52.362  1.00  0.00     0.236 A 
HETATM    7  N4  UNL     1      23.566   0.971  53.191  1.00  0.00    -0.224 NA
HETATM    8  C15 UNL     1      24.367   1.972  52.822  1.00  0.00     0.142 A 
HETATM    9  C22 UNL     1      24.197   2.594  51.604  1.00  0.00     0.041 A 
HETATM   10  C23 UNL     1      24.960   3.628  51.103  1.00  0.00     0.047 A 
ENDROOT
BRANCH   1  11
HETATM   11  N2  UNL     1      25.499   5.221  49.346  1.00  0.00    -0.316 N 
HETATM   12  C9  UNL     1      26.717   4.545  49.090  1.00  0.00     0.300 C 
HETATM   13  O1  UNL     1      26.750   3.292  49.348  1.00  0.00    -0.258 OA
HETATM   14  H15 UNL     1      25.556   6.237  49.109  1.00  0.00     0.170 HD
BRANCH  12  15
HETATM   15  C8  UNL     1      27.953   5.086  48.568  1.00  0.00    -0.005 C 
HETATM   16  C7  UNL     1      28.975   5.548  48.152  1.00  0.00    -0.095 C 
BRANCH  16  17
HETATM   17  C6  UNL     1      30.253   6.135  47.657  1.00  0.00     0.114 C 
BRANCH  17  18
HETATM   18  C5  UNL     1      31.241   6.097  48.760  1.00  0.00     0.129 C 
BRANCH  18  19
HETATM   19  N1  UNL     1      31.903   7.336  48.919  1.00  0.00    -0.412 N 
BRANCH  19  20
HETATM   20  C2  UNL     1      31.110   8.451  49.239  1.00  0.00     0.112 C 
HETATM   21  C1  UNL     1      31.258   9.693  48.437  1.00  0.00     0.026 C 
ENDBRANCH  19  20
BRANCH  19  22
HETATM   22  C3  UNL     1      33.275   7.458  48.729  1.00  0.00     0.112 C 
HETATM   23  C4  UNL     1      33.884   6.970  47.448  1.00  0.00     0.026 C 
ENDBRANCH  19  22
ENDBRANCH  18  19
ENDBRANCH  17  18
ENDBRANCH  16  17
ENDBRANCH  12  15
ENDBRANCH   1  11
BRANCH   8  24
HETATM   24  N5  UNL     1      25.434   2.477  53.623  1.00  0.00    -0.340 N 
HETATM   25  H19 UNL     1      25.476   3.314  54.241  1.00  0.00     0.167 HD
BRANCH  24  26
HETATM   26  C16 UNL     1      26.629   1.696  53.560  1.00  0.00     0.035 A 
HETATM   27  C17 UNL     1      27.903   2.231  53.789  1.00  0.00     0.032 A 
HETATM   28  C18 UNL     1      29.041   1.461  53.706  1.00  0.00     0.046 A 
HETATM   29  C19 UNL     1      28.962   0.115  53.389  1.00  0.00     0.138 A 
HETATM   30  F1  UNL     1      30.052  -0.697  53.291  1.00  0.00    -0.204 F 
HETATM   31  C20 UNL     1      27.744  -0.484  53.150  1.00  0.00     0.074 A 
HETATM   32 CL1  UNL     1      27.539  -2.178  52.739  1.00  0.00    -0.081 Cl
HETATM   33  C21 UNL     1      26.648   0.341  53.250  1.00  0.00     0.056 A 
ENDBRANCH  24  26
ENDBRANCH   8  24
TORSDOF 9
ENDMDL
MODEL 3
REMARK VINA RESULT:      -8.3      4.579     10.639
REMARK  9 active torsions:
REMARK  status: ('A' for Active; 'I' for Inactive)
REMARK    1  A    between atoms: C2_2  and  N1_3 
REMARK    2  A    between atoms: N1_3  and  C3_4 
REMARK    3  A    between atoms: N1_3  and  C5_6 
REMARK    4  A    between atoms: C5_6  and  C6_7 
REMARK    5  A    between atoms: C6_7  and  C7_8 
REMARK    6  A    between atoms: C8_9  and  C9_10 
REMARK       I    between atoms: C9_10  and  N2_12 
REMARK    7  A    between atoms: N2_12  and  C10_13 
REMARK    8  A    between atoms: C15_20  and  N5_21 
REMARK    9  A    between atoms: N5_21  and  C16_22 
ROOT
HETATM    1  C10 UNL     1      24.474  -0.375  53.410  1.00  0.00     0.036 A 
HETATM    2  C11 UNL     1      24.961  -0.541  54.690  1.00  0.00     0.032 A 
HETATM    3  C12 UNL     1      26.111   0.128  55.022  1.00  0.00     0.035 A 
HETATM    4  C13 UNL     1      26.704   0.926  54.041  1.00  0.00     0.072 A 
HETATM    5  N3  UNL     1      27.840   1.538  54.458  1.00  0.00    -0.241 NA
HETATM    6  C14 UNL     1      28.505   2.328  53.596  1.00  0.00     0.236 A 
HETATM    7  N4  UNL     1      28.056   2.519  52.321  1.00  0.00    -0.224 NA
HETATM    8  C15 UNL     1      26.939   1.918  51.908  1.00  0.00     0.142 A 
HETATM    9  C22 UNL     1      26.226   1.101  52.759  1.00  0.00     0.041 A 
HETATM   10  C23 UNL     1      25.068   0.417  52.452  1.00  0.00     0.047 A 
ENDROOT
BRANCH   1  11
HETATM   11  N2  UNL     1      23.262  -1.094  53.059  1.00  0.00    -0.316 N 
HETATM   12  C9  UNL     1      22.303  -0.052  53.081  1.00  0.00     0.300 C 
HETATM   13  O1  UNL     1      22.727   1.120  53.369  1.00  0.00    -0.258 OA
HETATM   14  H15 UNL     1      22.834  -2.016  52.816  1.00  0.00     0.170 HD
BRANCH  12  15
HETATM   15  C8  UNL     1      20.882  -0.131  52.818  1.00  0.00    -0.005 C 
HETATM   16  C7  UNL     1      19.712  -0.192  52.580  1.00  0.00    -0.095 C 
BRANCH  16  17
HETATM   17  C6  UNL     1      18.258  -0.273  52.258  1.00  0.00     0.114 C 
BRANCH  17  18
HETATM   18  C5  UNL     1      17.634  -1.260  53.169  1.00  0.00     0.129 C 
BRANCH  18  19
HETATM   19  N1  UNL     1      16.377  -1.698  52.691  1.00  0.00    -0.412 N 
BRANCH  19  20
HETATM   20  C2  UNL     1      16.092  -3.070  52.799  1.00  0.00     0.112 C 
HETATM   21  C1  UNL     1      17.012  -3.937  53.581  1.00  0.00     0.026 C 
ENDBRANCH  19  20
BRANCH  19  22
HETATM   22  C3  UNL     1      15.474  -0.819  52.103  1.00  0.00     0.112 C 
HETATM   23  C4  UNL     1      14.675   0.103  52.977  1.00  0.00     0.026 C 
ENDBRANCH  19  22
ENDBRANCH  18  19
ENDBRANCH  17  18
ENDBRANCH  16  17
ENDBRANCH  12  15
ENDBRANCH   1  11
BRANCH   8  24
HETATM   24  N5  UNL     1      26.396   2.058  50.597  1.00  0.00    -0.340 N 
HETATM   25  H19 UNL     1      26.130   1.335  49.896  1.00  0.00     0.167 HD
BRANCH  24  26
HETATM   26  C16 UNL     1      26.185   3.413  50.195  1.00  0.00     0.035 A 
HETATM   27  C17 UNL     1      26.978   4.057  49.237  1.00  0.00     0.032 A 
HETATM   28  C18 UNL     1      26.764   5.370  48.880  1.00  0.00     0.046 A 
HETATM   29  C19 UNL     1      25.745   6.104  49.464  1.00  0.00     0.138 A 
HETATM   30  F1  UNL     1      25.486   7.406  49.153  1.00  0.00    -0.204 F 
HETATM   31  C20 UNL     1      24.922   5.540  50.415  1.00  0.00     0.074 A 
HETATM   32 CL1  UNL     1      23.609   6.385  51.214  1.00  0.00    -0.081 Cl
HETATM   33  C21 UNL     1      25.190   4.226  50.725  1.00  0.00     0.056 A 
ENDBRANCH  24  26
ENDBRANCH   8  24
TORSDOF 9
ENDMDL
MODEL 4
REMARK VINA RESULT:      -8.2      4.489      9.147
REMARK  9 active torsions:
REMARK  status: ('A' for Active; 'I' for Inactive)
REMARK    1  A    between atoms: C2_2  and  N1_3 
REMARK    2  A    between atoms: N1_3  and  C3_4 
REMARK    3  A    between atoms: N1_3  and  C5_6 
REMARK    4  A    between atoms: C5_6  and  C6_7 
REMARK    5  A    between atoms: C6_7  and  C7_8 
REMARK    6  A    between atoms: C8_9  and  C9_10 
REMARK       I    between atoms: C9_10  and  N2_12 
REMARK    7  A    between atoms: N2_12  and  C10_13 
REMARK    8  A    between atoms: C15_20  and  N5_21 
REMARK    9  A    between atoms: N5_21  and  C16_22 
ROOT
HETATM    1  C10 UNL     1      24.516  -0.348  53.522  1.00  0.00     0.036 A 
HETATM    2  C11 UNL     1      24.975  -0.493  54.814  1.00  0.00     0.032 A 
HETATM    3  C12 UNL     1      26.135   0.159  55.152  1.00  0.00     0.035 A 
HETATM    4  C13 UNL     1      26.764   0.918  54.161  1.00  0.00     0.072 A 
HETATM    5  N3  UNL     1      27.906   1.514  54.584  1.00  0.00    -0.241 NA
HETATM    6  C14 UNL     1      28.605   2.266  53.714  1.00  0.00     0.236 A 
HETATM    7  N4  UNL     1      28.184   2.433  52.427  1.00  0.00    -0.224 NA
HETATM    8  C15 UNL     1      27.060   1.847  52.008  1.00  0.00     0.142 A 
HETATM    9  C22 UNL     1      26.313   1.070  52.866  1.00  0.00     0.041 A 
HETATM   10  C23 UNL     1      25.146   0.404  52.555  1.00  0.00     0.047 A 
ENDROOT
BRANCH   1  11
HETATM   11  N2  UNL     1      23.294  -1.049  53.167  1.00  0.00    -0.316 N 
HETATM   12  C9  UNL     1      22.401   0.032  52.967  1.00  0.00     0.300 C 
HETATM   13  O1  UNL     1      22.871   1.211  53.132  1.00  0.00    -0.258 OA
HETATM   14  H15 UNL     1      22.832  -1.973  53.013  1.00  0.00     0.170 HD
BRANCH  12  15
HETATM   15  C8  UNL     1      21.003  -0.013  52.596  1.00  0.00    -0.005 C 
HETATM   16  C7  UNL     1      19.845  -0.033  52.301  1.00  0.00    -0.095 C 
BRANCH  16  17
HETATM   17  C6  UNL     1      18.398  -0.031  51.938  1.00  0.00     0.114 C 
BRANCH  17  18
HETATM   18  C5  UNL     1      18.269   0.437  50.539  1.00  0.00     0.129 C 
BRANCH  18  19
HETATM   19  N1  UNL     1      18.764   1.751  50.373  1.00  0.00    -0.412 N 
BRANCH  19  20
HETATM   20  C2  UNL     1      19.614   1.984  49.278  1.00  0.00     0.112 C 
HETATM   21  C1  UNL     1      20.870   1.199  49.163  1.00  0.00     0.026 C 
ENDBRANCH  19  20
BRANCH  19  22
HETATM   22  C3  UNL     1      18.458   2.763  51.276  1.00  0.00     0.112 C 
HETATM   23  C4  UNL     1      19.498   3.795  51.600  1.00  0.00     0.026 C 
ENDBRANCH  19  22
ENDBRANCH  18  19
ENDBRANCH  17  18
ENDBRANCH  16  17
ENDBRANCH  12  15
ENDBRANCH   1  11
BRANCH   8  24
HETATM   24  N5  UNL     1      26.545   1.966  50.684  1.00  0.00    -0.340 N 
HETATM   25  H19 UNL     1      26.438   1.249  49.935  1.00  0.00     0.167 HD
BRANCH  24  26
HETATM   26  C16 UNL     1      26.106   3.283  50.345  1.00  0.00     0.035 A 
HETATM   27  C17 UNL     1      26.778   4.099  49.428  1.00  0.00     0.032 A 
HETATM   28  C18 UNL     1      26.343   5.372  49.132  1.00  0.00     0.046 A 
HETATM   29  C19 UNL     1      25.212   5.891  49.739  1.00  0.00     0.138 A 
HETATM   30  F1  UNL     1      24.734   7.142  49.487  1.00  0.00    -0.204 F 
HETATM   31  C20 UNL     1      24.496   5.148  50.652  1.00  0.00     0.074 A 
HETATM   32 CL1  UNL     1      23.054   5.716  51.475  1.00  0.00    -0.081 Cl
HETATM   33  C21 UNL     1      24.984   3.886  50.902  1.00  0.00     0.056 A 
ENDBRANCH  24  26
ENDBRANCH   8  24
TORSDOF 9
ENDMDL
MODEL 5
REMARK VINA RESULT:      -8.0      3.094      8.476
REMARK  9 active torsions:
REMARK  status: ('A' for Active; 'I' for Inactive)
REMARK    1  A    between atoms: C2_2  and  N1_3 
REMARK    2  A    between atoms: N1_3  and  C3_4 
REMARK    3  A    between atoms: N1_3  and  C5_6 
REMARK    4  A    between atoms: C5_6  and  C6_7 
REMARK    5  A    between atoms: C6_7  and  C7_8 
REMARK    6  A    between atoms: C8_9  and  C9_10 
REMARK       I    between atoms: C9_10  and  N2_12 
REMARK    7  A    between atoms: N2_12  and  C10_13 
REMARK    8  A    between atoms: C15_20  and  N5_21 
REMARK    9  A    between atoms: N5_21  and  C16_22 
ROOT
HETATM    1  C10 UNL     1      27.690   7.036  48.367  1.00  0.00     0.036 A 
HETATM    2  C11 UNL     1      27.042   7.597  47.287  1.00  0.00     0.032 A 
HETATM    3  C12 UNL     1      27.815   8.210  46.332  1.00  0.00     0.035 A 
HETATM    4  C13 UNL     1      29.199   8.221  46.527  1.00  0.00     0.072 A 
HETATM    5  N3  UNL     1      29.876   8.856  45.539  1.00  0.00    -0.241 NA
HETATM    6  C14 UNL     1      31.216   8.938  45.621  1.00  0.00     0.236 A 
HETATM    7  N4  UNL     1      31.894   8.396  46.674  1.00  0.00    -0.224 NA
HETATM    8  C15 UNL     1      31.230   7.770  47.648  1.00  0.00     0.142 A 
HETATM    9  C22 UNL     1      29.857   7.662  47.603  1.00  0.00     0.041 A 
HETATM   10  C23 UNL     1      29.056   7.053  48.546  1.00  0.00     0.047 A 
ENDROOT
BRANCH   1  11
HETATM   11  N2  UNL     1      26.867   6.399  49.381  1.00  0.00    -0.316 N 
HETATM   12  C9  UNL     1      27.183   5.033  49.177  1.00  0.00     0.300 C 
HETATM   13  O1  UNL     1      28.026   4.764  48.253  1.00  0.00    -0.258 OA
HETATM   14  H15 UNL     1      26.174   6.531  50.151  1.00  0.00     0.170 HD
BRANCH  12  15
HETATM   15  C8  UNL     1      26.673   3.877  49.883  1.00  0.00    -0.005 C 
HETATM   16  C7  UNL     1      26.248   2.934  50.483  1.00  0.00    -0.095 C 
BRANCH  16  17
HETATM   17  C6  UNL     1      25.704   1.775  51.248  1.00  0.00     0.114 C 
BRANCH  17  18
HETATM   18  C5  UNL     1      26.085   1.936  52.670  1.00  0.00     0.129 C 
BRANCH  18  19
HETATM   19  N1  UNL     1      26.894   0.869  53.124  1.00  0.00    -0.412 N 
BRANCH  19  20
HETATM   20  C2  UNL     1      26.301  -0.404  53.188  1.00  0.00     0.112 C 
HETATM   21  C1  UNL     1      25.194  -0.634  54.152  1.00  0.00     0.026 C 
ENDBRANCH  19  20
BRANCH  19  22
HETATM   22  C3  UNL     1      28.209   1.073  53.528  1.00  0.00     0.112 C 
HETATM   23  C4  UNL     1      28.743   2.473  53.606  1.00  0.00     0.026 C 
ENDBRANCH  19  22
ENDBRANCH  18  19
ENDBRANCH  17  18
ENDBRANCH  16  17
ENDBRANCH  12  15
ENDBRANCH   1  11
BRANCH   8  24
HETATM   24  N5  UNL     1      31.854   7.175  48.783  1.00  0.00    -0.340 N 
HETATM   25  H19 UNL     1      31.747   7.384  49.799  1.00  0.00     0.167 HD
BRANCH  24  26
HETATM   26  C16 UNL     1      32.767   6.123  48.464  1.00  0.00     0.035 A 
HETATM   27  C17 UNL     1      34.151   6.234  48.640  1.00  0.00     0.032 A 
HETATM   28  C18 UNL     1      35.011   5.211  48.307  1.00  0.00     0.046 A 
HETATM   29  C19 UNL     1      34.527   4.025  47.781  1.00  0.00     0.138 A 
HETATM   30  F1  UNL     1      35.328   2.978  47.432  1.00  0.00    -0.204 F 
HETATM   31  C20 UNL     1      33.177   3.840  47.578  1.00  0.00     0.074 A 
HETATM   32 CL1  UNL     1      32.467   2.378  46.916  1.00  0.00    -0.081 Cl
HETATM   33  C21 UNL     1      32.374   4.900  47.932  1.00  0.00     0.056 A 
ENDBRANCH  24  26
ENDBRANCH   8  24
TORSDOF 9
ENDMDL
MODEL 6
REMARK VINA RESULT:      -8.0      4.137      9.949
REMARK  9 active torsions:
REMARK  status: ('A' for Active; 'I' for Inactive)
REMARK    1  A    between atoms: C2_2  and  N1_3 
REMARK    2  A    between atoms: N1_3  and  C3_4 
REMARK    3  A    between atoms: N1_3  and  C5_6 
REMARK    4  A    between atoms: C5_6  and  C6_7 
REMARK    5  A    between atoms: C6_7  and  C7_8 
REMARK    6  A    between atoms: C8_9  and  C9_10 
REMARK       I    between atoms: C9_10  and  N2_12 
REMARK    7  A    between atoms: N2_12  and  C10_13 
REMARK    8  A    between atoms: C15_20  and  N5_21 
REMARK    9  A    between atoms: N5_21  and  C16_22 
ROOT
HETATM    1  C10 UNL     1      22.208   2.555  51.682  1.00  0.00     0.036 A 
HETATM    2  C11 UNL     1      21.953   3.137  50.458  1.00  0.00     0.032 A 
HETATM    3  C12 UNL     1      23.031   3.484  49.684  1.00  0.00     0.035 A 
HETATM    4  C13 UNL     1      24.306   3.224  50.193  1.00  0.00     0.072 A 
HETATM    5  N3  UNL     1      25.306   3.611  49.363  1.00  0.00    -0.241 NA
HETATM    6  C14 UNL     1      26.581   3.418  49.751  1.00  0.00     0.236 A 
HETATM    7  N4  UNL     1      26.875   2.847  50.954  1.00  0.00    -0.224 NA
HETATM    8  C15 UNL     1      25.892   2.465  51.773  1.00  0.00     0.142 A 
HETATM    9  C22 UNL     1      24.573   2.643  51.415  1.00  0.00     0.041 A 
HETATM   10  C23 UNL     1      23.471   2.304  52.172  1.00  0.00     0.047 A 
ENDROOT
BRANCH   1  11
HETATM   11  N2  UNL     1      21.064   2.200  52.503  1.00  0.00    -0.316 N 
HETATM   12  C9  UNL     1      20.690   0.956  51.937  1.00  0.00     0.300 C 
HETATM   13  O1  UNL     1      21.397   0.529  50.960  1.00  0.00    -0.258 OA
HETATM   14  H15 UNL     1      20.438   2.475  53.294  1.00  0.00     0.170 HD
BRANCH  12  15
HETATM   15  C8  UNL     1      19.598   0.086  52.318  1.00  0.00    -0.005 C 
HETATM   16  C7  UNL     1      18.686  -0.626  52.616  1.00  0.00    -0.095 C 
BRANCH  16  17
HETATM   17  C6  UNL     1      17.539  -1.514  52.961  1.00  0.00     0.114 C 
BRANCH  17  18
HETATM   18  C5  UNL     1      16.287  -0.738  52.814  1.00  0.00     0.129 C 
BRANCH  18  19
HETATM   19  N1  UNL     1      15.420  -1.309  51.854  1.00  0.00    -0.412 N 
BRANCH  19  20
HETATM   20  C2  UNL     1      14.825  -2.540  52.178  1.00  0.00     0.112 C 
HETATM   21  C1  UNL     1      14.741  -3.595  51.135  1.00  0.00     0.026 C 
ENDBRANCH  19  20
BRANCH  19  22
HETATM   22  C3  UNL     1      15.194  -0.702  50.624  1.00  0.00     0.112 C 
HETATM   23  C4  UNL     1      16.337  -0.542  49.664  1.00  0.00     0.026 C 
ENDBRANCH  19  22
ENDBRANCH  18  19
ENDBRANCH  17  18
ENDBRANCH  16  17
ENDBRANCH  12  15
ENDBRANCH   1  11
BRANCH   8  24
HETATM   24  N5  UNL     1      26.105   1.861  53.046  1.00  0.00    -0.340 N 
HETATM   25  H19 UNL     1      25.884   2.208  54.004  1.00  0.00     0.167 HD
BRANCH  24  26
HETATM   26  C16 UNL     1      26.718   0.571  52.986  1.00  0.00     0.035 A 
HETATM   27  C17 UNL     1      26.040  -0.576  52.555  1.00  0.00     0.032 A 
HETATM   28  C18 UNL     1      26.649  -1.810  52.523  1.00  0.00     0.046 A 
HETATM   29  C19 UNL     1      27.967  -1.959  52.920  1.00  0.00     0.138 A 
HETATM   30  F1  UNL     1      28.623  -3.154  52.911  1.00  0.00    -0.204 F 
HETATM   31  C20 UNL     1      28.701  -0.877  53.356  1.00  0.00     0.074 A 
HETATM   32 CL1  UNL     1      30.372  -0.962  53.882  1.00  0.00    -0.081 Cl
HETATM   33  C21 UNL     1      28.033   0.326  53.363  1.00  0.00     0.056 A 
ENDBRANCH  24  26
ENDBRANCH   8  24
TORSDOF 9
ENDMDL
MODEL 7
REMARK VINA RESULT:      -7.9      5.120      7.335
REMARK  9 active torsions:
REMARK  status: ('A' for Active; 'I' for Inactive)
REMARK    1  A    between atoms: C2_2  and  N1_3 
REMARK    2  A    between atoms: N1_3  and  C3_4 
REMARK    3  A    between atoms: N1_3  and  C5_6 
REMARK    4  A    between atoms: C5_6  and  C6_7 
REMARK    5  A    between atoms: C6_7  and  C7_8 
REMARK    6  A    between atoms: C8_9  and  C9_10 
REMARK       I    between atoms: C9_10  and  N2_12 
REMARK    7  A    between atoms: N2_12  and  C10_13 
REMARK    8  A    between atoms: C15_20  and  N5_21 
REMARK    9  A    between atoms: N5_21  and  C16_22 
ROOT
HETATM    1  C10 UNL     1      21.152   0.082  52.293  1.00  0.00     0.036 A 
HETATM    2  C11 UNL     1      20.290  -0.460  53.222  1.00  0.00     0.032 A 
HETATM    3  C12 UNL     1      20.839  -1.000  54.358  1.00  0.00     0.035 A 
HETATM    4  C13 UNL     1      22.229  -0.962  54.487  1.00  0.00     0.072 A 
HETATM    5  N3  UNL     1      22.679  -1.527  55.635  1.00  0.00    -0.241 NA
HETATM    6  C14 UNL     1      24.004  -1.556  55.867  1.00  0.00     0.236 A 
HETATM    7  N4  UNL     1      24.890  -1.030  54.972  1.00  0.00    -0.224 NA
HETATM    8  C15 UNL     1      24.450  -0.473  53.842  1.00  0.00     0.142 A 
HETATM    9  C22 UNL     1      23.101  -0.421  53.565  1.00  0.00     0.041 A 
HETATM   10  C23 UNL     1      22.522   0.115  52.434  1.00  0.00     0.047 A 
ENDROOT
BRANCH   1  11
HETATM   11  N2  UNL     1      20.567   0.642  51.087  1.00  0.00    -0.316 N 
HETATM   12  C9  UNL     1      20.434   2.006  51.449  1.00  0.00     0.300 C 
HETATM   13  O1  UNL     1      20.833   2.336  52.619  1.00  0.00    -0.258 OA
HETATM   14  H15 UNL     1      20.220   0.458  50.119  1.00  0.00     0.170 HD
BRANCH  12  15
HETATM   15  C8  UNL     1      19.900   3.097  50.663  1.00  0.00    -0.005 C 
HETATM   16  C7  UNL     1      19.478   4.000  50.004  1.00  0.00    -0.095 C 
BRANCH  16  17
HETATM   17  C6  UNL     1      18.969   5.121  49.163  1.00  0.00     0.114 C 
BRANCH  17  18
HETATM   18  C5  UNL     1      19.673   6.361  49.563  1.00  0.00     0.129 C 
BRANCH  18  19
HETATM   19  N1  UNL     1      21.066   6.275  49.334  1.00  0.00    -0.412 N 
BRANCH  19  20
HETATM   20  C2  UNL     1      21.912   6.472  50.439  1.00  0.00     0.112 C 
HETATM   21  C1  UNL     1      22.746   7.700  50.497  1.00  0.00     0.026 C 
ENDBRANCH  19  20
BRANCH  19  22
HETATM   22  C3  UNL     1      21.582   6.045  48.064  1.00  0.00     0.112 C 
HETATM   23  C4  UNL     1      22.653   5.009  47.884  1.00  0.00     0.026 C 
ENDBRANCH  19  22
ENDBRANCH  18  19
ENDBRANCH  17  18
ENDBRANCH  16  17
ENDBRANCH  12  15
ENDBRANCH   1  11
BRANCH   8  24
HETATM   24  N5  UNL     1      25.301   0.099  52.852  1.00  0.00    -0.340 N 
HETATM   25  H19 UNL     1      25.067   0.633  51.988  1.00  0.00     0.167 HD
BRANCH  24  26
HETATM   26  C16 UNL     1      26.696  -0.093  53.099  1.00  0.00     0.035 A 
HETATM   27  C17 UNL     1      27.360  -1.296  52.831  1.00  0.00     0.032 A 
HETATM   28  C18 UNL     1      28.701  -1.460  53.094  1.00  0.00     0.046 A 
HETATM   29  C19 UNL     1      29.446  -0.428  53.640  1.00  0.00     0.138 A 
HETATM   30  F1  UNL     1      30.775  -0.531  53.923  1.00  0.00    -0.204 F 
HETATM   31  C20 UNL     1      28.864   0.787  53.931  1.00  0.00     0.074 A 
HETATM   32 CL1  UNL     1      29.719   2.152  54.625  1.00  0.00    -0.081 Cl
HETATM   33  C21 UNL     1      27.522   0.884  53.643  1.00  0.00     0.056 A 
ENDBRANCH  24  26
ENDBRANCH   8  24
TORSDOF 9
ENDMDL
MODEL 8
REMARK VINA RESULT:      -7.8      4.435      7.391
REMARK  9 active torsions:
REMARK  status: ('A' for Active; 'I' for Inactive)
REMARK    1  A    between atoms: C2_2  and  N1_3 
REMARK    2  A    between atoms: N1_3  and  C3_4 
REMARK    3  A    between atoms: N1_3  and  C5_6 
REMARK    4  A    between atoms: C5_6  and  C6_7 
REMARK    5  A    between atoms: C6_7  and  C7_8 
REMARK    6  A    between atoms: C8_9  and  C9_10 
REMARK       I    between atoms: C9_10  and  N2_12 
REMARK    7  A    between atoms: N2_12  and  C10_13 
REMARK    8  A    between atoms: C15_20  and  N5_21 
REMARK    9  A    between atoms: N5_21  and  C16_22 
ROOT
HETATM    1  C10 UNL     1      21.673   4.246  51.853  1.00  0.00     0.036 A 
HETATM    2  C11 UNL     1      20.485   4.007  51.195  1.00  0.00     0.032 A 
HETATM    3  C12 UNL     1      20.044   4.963  50.315  1.00  0.00     0.035 A 
HETATM    4  C13 UNL     1      20.830   6.107  50.153  1.00  0.00     0.072 A 
HETATM    5  N3  UNL     1      20.308   6.998  49.274  1.00  0.00    -0.241 NA
HETATM    6  C14 UNL     1      20.974   8.144  49.040  1.00  0.00     0.236 A 
HETATM    7  N4  UNL     1      22.152   8.417  49.671  1.00  0.00    -0.224 NA
HETATM    8  C15 UNL     1      22.668   7.543  50.537  1.00  0.00     0.142 A 
HETATM    9  C22 UNL     1      22.020   6.356  50.805  1.00  0.00     0.041 A 
HETATM   10  C23 UNL     1      22.439   5.378  51.683  1.00  0.00     0.047 A 
ENDROOT
BRANCH   1  11
HETATM   11  N2  UNL     1      22.130   3.236  52.792  1.00  0.00    -0.316 N 
HETATM   12  C9  UNL     1      23.137   2.587  52.035  1.00  0.00     0.300 C 
HETATM   13  O1  UNL     1      23.349   3.030  50.853  1.00  0.00    -0.258 OA
HETATM   14  H15 UNL     1      22.021   2.815  53.742  1.00  0.00     0.170 HD
BRANCH  12  15
HETATM   15  C8  UNL     1      23.975   1.472  52.421  1.00  0.00    -0.005 C 
HETATM   16  C7  UNL     1      24.657   0.551  52.758  1.00  0.00    -0.095 C 
BRANCH  16  17
HETATM   17  C6  UNL     1      25.490  -0.605  53.198  1.00  0.00     0.114 C 
BRANCH  17  18
HETATM   18  C5  UNL     1      26.394  -0.144  54.278  1.00  0.00     0.129 C 
BRANCH  18  19
HETATM   19  N1  UNL     1      27.727  -0.006  53.828  1.00  0.00    -0.412 N 
BRANCH  19  20
HETATM   20  C2  UNL     1      28.242  -1.035  53.020  1.00  0.00     0.112 C 
HETATM   21  C1  UNL     1      29.509  -1.699  53.422  1.00  0.00     0.026 C 
ENDBRANCH  19  20
BRANCH  19  22
HETATM   22  C3  UNL     1      28.512   1.080  54.198  1.00  0.00     0.112 C 
HETATM   23  C4  UNL     1      28.340   2.387  53.482  1.00  0.00     0.026 C 
ENDBRANCH  19  22
ENDBRANCH  18  19
ENDBRANCH  17  18
ENDBRANCH  16  17
ENDBRANCH  12  15
ENDBRANCH   1  11
BRANCH   8  24
HETATM   24  N5  UNL     1      23.891   7.744  51.241  1.00  0.00    -0.340 N 
HETATM   25  H19 UNL     1      24.066   7.930  52.252  1.00  0.00     0.167 HD
BRANCH  24  26
HETATM   26  C16 UNL     1      25.057   7.671  50.418  1.00  0.00     0.035 A 
HETATM   27  C17 UNL     1      25.742   8.804  49.962  1.00  0.00     0.032 A 
HETATM   28  C18 UNL     1      26.853   8.706  49.155  1.00  0.00     0.046 A 
HETATM   29  C19 UNL     1      27.335   7.469  48.763  1.00  0.00     0.138 A 
HETATM   30  F1  UNL     1      28.429   7.309  47.965  1.00  0.00    -0.204 F 
HETATM   31  C20 UNL     1      26.716   6.307  49.171  1.00  0.00     0.074 A 
HETATM   32 CL1  UNL     1      27.246   4.695  48.727  1.00  0.00    -0.081 Cl
HETATM   33  C21 UNL     1      25.612   6.476  49.975  1.00  0.00     0.056 A 
ENDBRANCH  24  26
ENDBRANCH   8  24
TORSDOF 9
ENDMDL
MODEL 9
REMARK VINA RESULT:      -7.7      3.615      8.310
REMARK  9 active torsions:
REMARK  status: ('A' for Active; 'I' for Inactive)
REMARK    1  A    between atoms: C2_2  and  N1_3 
REMARK    2  A    between atoms: N1_3  and  C3_4 
REMARK    3  A    between atoms: N1_3  and  C5_6 
REMARK    4  A    between atoms: C5_6  and  C6_7 
REMARK    5  A    between atoms: C6_7  and  C7_8 
REMARK    6  A    between atoms: C8_9  and  C9_10 
REMARK       I    between atoms: C9_10  and  N2_12 
REMARK    7  A    between atoms: N2_12  and  C10_13 
REMARK    8  A    between atoms: C15_20  and  N5_21 
REMARK    9  A    between atoms: N5_21  and  C16_22 
ROOT
HETATM    1  C10 UNL     1      26.707   6.858  48.633  1.00  0.00     0.036 A 
HETATM    2  C11 UNL     1      25.852   7.259  47.628  1.00  0.00     0.032 A 
HETATM    3  C12 UNL     1      26.378   8.020  46.614  1.00  0.00     0.035 A 
HETATM    4  C13 UNL     1      27.738   8.333  46.677  1.00  0.00     0.072 A 
HETATM    5  N3  UNL     1      28.164   9.096  45.640  1.00  0.00    -0.241 NA
HETATM    6  C14 UNL     1      29.456   9.468  45.596  1.00  0.00     0.236 A 
HETATM    7  N4  UNL     1      30.333   9.091  46.571  1.00  0.00    -0.224 NA
HETATM    8  C15 UNL     1      29.918   8.341  47.593  1.00  0.00     0.142 A 
HETATM    9  C22 UNL     1      28.603   7.936  47.676  1.00  0.00     0.041 A 
HETATM   10  C23 UNL     1      28.047   7.172  48.682  1.00  0.00     0.047 A 
ENDROOT
BRANCH   1  11
HETATM   11  N2  UNL     1      26.143   6.061  49.709  1.00  0.00    -0.316 N 
HETATM   12  C9  UNL     1      26.745   4.802  49.468  1.00  0.00     0.300 C 
HETATM   13  O1  UNL     1      27.545   4.722  48.473  1.00  0.00    -0.258 OA
HETATM   14  H15 UNL     1      25.507   6.041  50.538  1.00  0.00     0.170 HD
BRANCH  12  15
HETATM   15  C8  UNL     1      26.577   3.569  50.207  1.00  0.00    -0.005 C 
HETATM   16  C7  UNL     1      26.457   2.554  50.827  1.00  0.00    -0.095 C 
BRANCH  16  17
HETATM   17  C6  UNL     1      26.325   1.297  51.619  1.00  0.00     0.114 C 
BRANCH  17  18
HETATM   18  C5  UNL     1      27.386   1.284  52.652  1.00  0.00     0.129 C 
BRANCH  18  19
HETATM   19  N1  UNL     1      27.513   0.015  53.263  1.00  0.00    -0.412 N 
BRANCH  19  20
HETATM   20  C2  UNL     1      26.506  -0.929  52.997  1.00  0.00     0.112 C 
HETATM   21  C1  UNL     1      26.880  -2.223  52.372  1.00  0.00     0.026 C 
ENDBRANCH  19  20
BRANCH  19  22
HETATM   22  C3  UNL     1      28.566  -0.278  54.122  1.00  0.00     0.112 C 
HETATM   23  C4  UNL     1      29.925  -0.552  53.548  1.00  0.00     0.026 C 
ENDBRANCH  19  22
ENDBRANCH  18  19
ENDBRANCH  17  18
ENDBRANCH  16  17
ENDBRANCH  12  15
ENDBRANCH   1  11
BRANCH   8  24
HETATM   24  N5  UNL     1      30.761   7.901  48.654  1.00  0.00    -0.340 N 
HETATM   25  H19 UNL     1      30.847   8.244  49.635  1.00  0.00     0.167 HD
BRANCH  24  26
HETATM   26  C16 UNL     1      31.620   6.813  48.305  1.00  0.00     0.035 A 
HETATM   27  C17 UNL     1      31.198   5.726  47.530  1.00  0.00     0.032 A 
HETATM   28  C18 UNL     1      32.042   4.682  47.223  1.00  0.00     0.046 A 
HETATM   29  C19 UNL     1      33.350   4.673  47.676  1.00  0.00     0.138 A 
HETATM   30  F1  UNL     1      34.230   3.668  47.405  1.00  0.00    -0.204 F 
HETATM   31  C20 UNL     1      33.839   5.707  48.444  1.00  0.00     0.074 A 
HETATM   32 CL1  UNL     1      35.477   5.788  49.068  1.00  0.00    -0.081 Cl
HETATM   33  C21 UNL     1      32.946   6.718  48.714  1.00  0.00     0.056 A 
ENDBRANCH  24  26
ENDBRANCH   8  24
TORSDOF 9
ENDMDL
