MODEL 1
REMARK VINA RESULT:      -7.9      0.000      0.000
REMARK  5 active torsions:
REMARK  status: ('A' for Active; 'I' for Inactive)
REMARK    1  A    between atoms: O1_2  and  C2_3 
REMARK    2  A    between atoms: C5_6  and  N1_7 
REMARK    3  A    between atoms: N1_7  and  C6_8 
REMARK    4  A    between atoms: C14_20  and  O2_21 
REMARK    5  A    between atoms: C15_22  and  O3_23 
ROOT
HETATM    1  C2  UNL     1      20.362   0.518  51.233  1.00  0.00     0.105 A 
HETATM    2  C3  UNL     1      21.631   0.472  51.756  1.00  0.00     0.057 A 
HETATM    3  C4  UNL     1      21.821  -0.171  52.952  1.00  0.00     0.044 A 
HETATM    4  C5  UNL     1      23.116  -0.184  53.425  1.00  0.00     0.142 A 
HETATM    5  N2  UNL     1      23.380  -0.792  54.583  1.00  0.00    -0.224 NA
HETATM    6  C12 UNL     1      22.376  -1.391  55.288  1.00  0.00     0.236 A 
HETATM    7  N3  UNL     1      21.081  -1.404  54.860  1.00  0.00    -0.238 NA
HETATM    8  C13 UNL     1      20.830  -0.787  53.690  1.00  0.00     0.108 A 
HETATM    9  C14 UNL     1      19.545  -0.729  53.140  1.00  0.00     0.132 A 
HETATM   10  C15 UNL     1      19.310  -0.083  51.924  1.00  0.00     0.137 A 
ENDROOT
BRANCH   4  11
HETATM   11  N1  UNL     1      24.213   0.416  52.753  1.00  0.00    -0.338 N 
HETATM   12  H5  UNL     1      24.267   1.164  52.060  1.00  0.00     0.167 HD
BRANCH  11  13
HETATM   13  C6  UNL     1      25.602   0.061  52.923  1.00  0.00     0.072 A 
HETATM   14  C7  UNL     1      26.194  -1.127  52.538  1.00  0.00     0.034 A 
HETATM   15  C8  UNL     1      27.524  -1.311  52.770  1.00  0.00     0.021 A 
HETATM   16  C9  UNL     1      28.282  -0.340  53.376  1.00  0.00     0.014 A 
HETATM   17 BR1  UNL     1      30.123  -0.707  53.646  1.00  0.00    -0.051 Br
HETATM   18  C10 UNL     1      27.679   0.838  53.754  1.00  0.00     0.063 A 
HETATM   19  C11 UNL     1      26.341   1.068  53.541  1.00  0.00     0.144 A 
HETATM   20  F1  UNL     1      25.845   2.254  53.947  1.00  0.00    -0.204 F 
ENDBRANCH  11  13
ENDBRANCH   4  11
BRANCH   1  21
HETATM   21  O1  UNL     1      19.925   1.104  50.052  1.00  0.00    -0.353 OA
HETATM   22  C1  UNL     1      20.887   1.339  49.041  1.00  0.00     0.210 C 
ENDBRANCH   1  21
BRANCH   9  23
HETATM   23  O2  UNL     1      18.542  -1.346  53.876  1.00  0.00    -0.356 OA
HETATM   24  H10 UNL     1      17.827  -0.728  54.263  1.00  0.00     0.218 HD
ENDBRANCH   9  23
BRANCH  10  25
HETATM   25  O3  UNL     1      17.982  -0.118  51.524  1.00  0.00    -0.351 OA
HETATM   26  C16 UNL     1      17.038   0.889  51.737  1.00  0.00     0.210 C 
ENDBRANCH  10  25
TORSDOF 5
ENDMDL
MODEL 2
REMARK VINA RESULT:      -7.8      4.622      7.658
REMARK  5 active torsions:
REMARK  status: ('A' for Active; 'I' for Inactive)
REMARK    1  A    between atoms: O1_2  and  C2_3 
REMARK    2  A    between atoms: C5_6  and  N1_7 
REMARK    3  A    between atoms: N1_7  and  C6_8 
REMARK    4  A    between atoms: C14_20  and  O2_21 
REMARK    5  A    between atoms: C15_22  and  O3_23 
ROOT
HETATM    1  C2  UNL     1      26.523  -0.562  53.532  1.00  0.00     0.105 A 
HETATM    2  C3  UNL     1      25.225  -0.378  53.122  1.00  0.00     0.057 A 
HETATM    3  C4  UNL     1      24.731   0.900  53.072  1.00  0.00     0.044 A 
HETATM    4  C5  UNL     1      23.423   1.019  52.652  1.00  0.00     0.142 A 
HETATM    5  N2  UNL     1      22.871   2.232  52.578  1.00  0.00    -0.224 NA
HETATM    6  C12 UNL     1      23.598   3.337  52.916  1.00  0.00     0.236 A 
HETATM    7  N3  UNL     1      24.894   3.269  53.335  1.00  0.00    -0.238 NA
HETATM    8  C13 UNL     1      25.436   2.038  53.405  1.00  0.00     0.108 A 
HETATM    9  C14 UNL     1      26.757   1.830  53.820  1.00  0.00     0.132 A 
HETATM   10  C15 UNL     1      27.297   0.544  53.884  1.00  0.00     0.137 A 
ENDROOT
BRANCH   4  11
HETATM   11  N1  UNL     1      22.603  -0.080  52.286  1.00  0.00    -0.338 N 
HETATM   12  H5  UNL     1      22.820  -1.051  52.055  1.00  0.00     0.167 HD
BRANCH  11  13
HETATM   13  C6  UNL     1      21.166  -0.051  52.152  1.00  0.00     0.072 A 
HETATM   14  C7  UNL     1      20.456   0.418  51.063  1.00  0.00     0.034 A 
HETATM   15  C8  UNL     1      19.095   0.377  51.091  1.00  0.00     0.021 A 
HETATM   16  C9  UNL     1      18.419  -0.122  52.177  1.00  0.00     0.014 A 
HETATM   17 BR1  UNL     1      16.524  -0.130  52.101  1.00  0.00    -0.051 Br
HETATM   18  C10 UNL     1      19.139  -0.586  53.255  1.00  0.00     0.063 A 
HETATM   19  C11 UNL     1      20.512  -0.564  53.272  1.00  0.00     0.144 A 
HETATM   20  F1  UNL     1      21.125  -1.042  54.374  1.00  0.00    -0.204 F 
ENDBRANCH  11  13
ENDBRANCH   4  11
BRANCH   1  21
HETATM   21  O1  UNL     1      27.239  -1.745  53.662  1.00  0.00    -0.353 OA
HETATM   22  C1  UNL     1      27.430  -2.528  52.499  1.00  0.00     0.210 C 
ENDBRANCH   1  21
BRANCH   9  23
HETATM   23  O2  UNL     1      27.473   2.971  54.157  1.00  0.00    -0.356 OA
HETATM   24  H10 UNL     1      27.579   3.667  53.418  1.00  0.00     0.218 HD
ENDBRANCH   9  23
BRANCH  10  25
HETATM   25  O3  UNL     1      28.615   0.517  54.315  1.00  0.00    -0.351 OA
HETATM   26  C16 UNL     1      29.734   0.301  53.507  1.00  0.00     0.210 C 
ENDBRANCH  10  25
TORSDOF 5
ENDMDL
MODEL 3
REMARK VINA RESULT:      -7.7      4.365      6.924
REMARK  5 active torsions:
REMARK  status: ('A' for Active; 'I' for Inactive)
REMARK    1  A    between atoms: O1_2  and  C2_3 
REMARK    2  A    between atoms: C5_6  and  N1_7 
REMARK    3  A    between atoms: N1_7  and  C6_8 
REMARK    4  A    between atoms: C14_20  and  O2_21 
REMARK    5  A    between atoms: C15_22  and  O3_23 
ROOT
HETATM    1  C2  UNL     1      25.587   0.883  53.335  1.00  0.00     0.105 A 
HETATM    2  C3  UNL     1      24.320   0.663  52.851  1.00  0.00     0.057 A 
HETATM    3  C4  UNL     1      23.491  -0.175  53.549  1.00  0.00     0.044 A 
HETATM    4  C5  UNL     1      22.233  -0.355  53.013  1.00  0.00     0.142 A 
HETATM    5  N2  UNL     1      21.368  -1.158  53.637  1.00  0.00    -0.224 NA
HETATM    6  C12 UNL     1      21.731  -1.791  54.791  1.00  0.00     0.236 A 
HETATM    7  N3  UNL     1      22.962  -1.644  55.358  1.00  0.00    -0.238 NA
HETATM    8  C13 UNL     1      23.823  -0.831  54.717  1.00  0.00     0.108 A 
HETATM    9  C14 UNL     1      25.118  -0.594  55.194  1.00  0.00     0.132 A 
HETATM   10  C15 UNL     1      25.993   0.253  54.512  1.00  0.00     0.137 A 
ENDROOT
BRANCH   4  11
HETATM   11  N1  UNL     1      21.783   0.266  51.820  1.00  0.00    -0.338 N 
HETATM   12  H5  UNL     1      22.166   0.295  50.873  1.00  0.00     0.167 HD
BRANCH  11  13
HETATM   13  C6  UNL     1      20.583   1.058  51.683  1.00  0.00     0.072 A 
HETATM   14  C7  UNL     1      19.357   0.612  51.226  1.00  0.00     0.034 A 
HETATM   15  C8  UNL     1      18.317   1.489  51.155  1.00  0.00     0.021 A 
HETATM   16  C9  UNL     1      18.465   2.801  51.527  1.00  0.00     0.014 A 
HETATM   17 BR1  UNL     1      16.947   3.929  51.385  1.00  0.00    -0.051 Br
HETATM   18  C10 UNL     1      19.692   3.233  51.980  1.00  0.00     0.063 A 
HETATM   19  C11 UNL     1      20.769   2.385  52.069  1.00  0.00     0.144 A 
HETATM   20  F1  UNL     1      21.928   2.903  52.525  1.00  0.00    -0.204 F 
ENDBRANCH  11  13
ENDBRANCH   4  11
BRANCH   1  21
HETATM   21  O1  UNL     1      26.596   1.681  52.811  1.00  0.00    -0.353 OA
HETATM   22  C1  UNL     1      26.595   1.908  51.415  1.00  0.00     0.210 C 
ENDBRANCH   1  21
BRANCH   9  23
HETATM   23  O2  UNL     1      25.460  -1.251  56.369  1.00  0.00    -0.356 OA
HETATM   24  H10 UNL     1      25.014  -0.906  57.220  1.00  0.00     0.218 HD
ENDBRANCH   9  23
BRANCH  10  25
HETATM   25  O3  UNL     1      27.233   0.377  55.120  1.00  0.00    -0.351 OA
HETATM   26  C16 UNL     1      28.437  -0.139  54.633  1.00  0.00     0.210 C 
ENDBRANCH  10  25
TORSDOF 5
ENDMDL
MODEL 4
REMARK VINA RESULT:      -7.7      4.231      6.420
REMARK  5 active torsions:
REMARK  status: ('A' for Active; 'I' for Inactive)
REMARK    1  A    between atoms: O1_2  and  C2_3 
REMARK    2  A    between atoms: C5_6  and  N1_7 
REMARK    3  A    between atoms: N1_7  and  C6_8 
REMARK    4  A    between atoms: C14_20  and  O2_21 
REMARK    5  A    between atoms: C15_22  and  O3_23 
ROOT
HETATM    1  C2  UNL     1      25.604   0.211  52.732  1.00  0.00     0.105 A 
HETATM    2  C3  UNL     1      24.288   0.381  52.375  1.00  0.00     0.057 A 
HETATM    3  C4  UNL     1      23.316  -0.112  53.207  1.00  0.00     0.044 A 
HETATM    4  C5  UNL     1      22.016   0.092  52.795  1.00  0.00     0.142 A 
HETATM    5  N2  UNL     1      21.015  -0.360  53.553  1.00  0.00    -0.224 NA
HETATM    6  C12 UNL     1      21.281  -1.015  54.721  1.00  0.00     0.236 A 
HETATM    7  N3  UNL     1      22.549  -1.239  55.169  1.00  0.00    -0.238 NA
HETATM    8  C13 UNL     1      23.549  -0.778  54.394  1.00  0.00     0.108 A 
HETATM    9  C14 UNL     1      24.895  -0.941  54.740  1.00  0.00     0.132 A 
HETATM   10  C15 UNL     1      25.914  -0.453  53.919  1.00  0.00     0.137 A 
ENDROOT
BRANCH   4  11
HETATM   11  N1  UNL     1      21.659   0.761  51.596  1.00  0.00    -0.338 N 
HETATM   12  H5  UNL     1      21.393   0.418  50.671  1.00  0.00     0.167 HD
BRANCH  11  13
HETATM   13  C6  UNL     1      21.594   2.192  51.417  1.00  0.00     0.072 A 
HETATM   14  C7  UNL     1      21.014   3.098  52.285  1.00  0.00     0.034 A 
HETATM   15  C8  UNL     1      21.034   4.424  51.971  1.00  0.00     0.021 A 
HETATM   16  C9  UNL     1      21.618   4.873  50.813  1.00  0.00     0.014 A 
HETATM   17 BR1  UNL     1      21.587   6.740  50.482  1.00  0.00    -0.051 Br
HETATM   18  C10 UNL     1      22.193   3.959  49.958  1.00  0.00     0.063 A 
HETATM   19  C11 UNL     1      22.196   2.613  50.232  1.00  0.00     0.144 A 
HETATM   20  F1  UNL     1      22.784   1.799  49.332  1.00  0.00    -0.204 F 
ENDBRANCH  11  13
ENDBRANCH   4  11
BRANCH   1  21
HETATM   21  O1  UNL     1      26.750   0.617  52.061  1.00  0.00    -0.353 OA
HETATM   22  C1  UNL     1      26.838   1.975  51.674  1.00  0.00     0.210 C 
ENDBRANCH   1  21
BRANCH   9  23
HETATM   23  O2  UNL     1      25.138  -1.611  55.932  1.00  0.00    -0.356 OA
HETATM   24  H10 UNL     1      24.410  -2.258  56.237  1.00  0.00     0.218 HD
ENDBRANCH   9  23
BRANCH  10  25
HETATM   25  O3  UNL     1      27.188  -0.701  54.409  1.00  0.00    -0.351 OA
HETATM   26  C16 UNL     1      28.057   0.253  54.944  1.00  0.00     0.210 C 
ENDBRANCH  10  25
TORSDOF 5
ENDMDL
MODEL 5
REMARK VINA RESULT:      -7.4      4.678      6.222
REMARK  5 active torsions:
REMARK  status: ('A' for Active; 'I' for Inactive)
REMARK    1  A    between atoms: O1_2  and  C2_3 
REMARK    2  A    between atoms: C5_6  and  N1_7 
REMARK    3  A    between atoms: N1_7  and  C6_8 
REMARK    4  A    between atoms: C14_20  and  O2_21 
REMARK    5  A    between atoms: C15_22  and  O3_23 
ROOT
HETATM    1  C2  UNL     1      23.898   0.121  52.629  1.00  0.00     0.105 A 
HETATM    2  C3  UNL     1      24.748   0.956  51.943  1.00  0.00     0.057 A 
HETATM    3  C4  UNL     1      25.950   1.279  52.517  1.00  0.00     0.044 A 
HETATM    4  C5  UNL     1      26.758   2.119  51.780  1.00  0.00     0.142 A 
HETATM    5  N2  UNL     1      27.944   2.479  52.273  1.00  0.00    -0.224 NA
HETATM    6  C12 UNL     1      28.348   2.019  53.494  1.00  0.00     0.236 A 
HETATM    7  N3  UNL     1      27.584   1.187  54.258  1.00  0.00    -0.238 NA
HETATM    8  C13 UNL     1      26.389   0.833  53.747  1.00  0.00     0.108 A 
HETATM    9  C14 UNL     1      25.510  -0.016  54.430  1.00  0.00     0.132 A 
HETATM   10  C15 UNL     1      24.277  -0.369  53.879  1.00  0.00     0.137 A 
ENDROOT
BRANCH   4  11
HETATM   11  N1  UNL     1      26.410   2.639  50.506  1.00  0.00    -0.338 N 
HETATM   12  H5  UNL     1      26.449   2.240  49.567  1.00  0.00     0.167 HD
BRANCH  11  13
HETATM   13  C6  UNL     1      25.882   3.958  50.251  1.00  0.00     0.072 A 
HETATM   14  C7  UNL     1      24.792   4.537  50.873  1.00  0.00     0.034 A 
HETATM   15  C8  UNL     1      24.416   5.797  50.517  1.00  0.00     0.021 A 
HETATM   16  C9  UNL     1      25.100   6.499  49.557  1.00  0.00     0.014 A 
HETATM   17 BR1  UNL     1      24.487   8.246  49.145  1.00  0.00    -0.051 Br
HETATM   18  C10 UNL     1      26.185   5.911  48.945  1.00  0.00     0.063 A 
HETATM   19  C11 UNL     1      26.599   4.642  49.270  1.00  0.00     0.144 A 
HETATM   20  F1  UNL     1      27.672   4.155  48.615  1.00  0.00    -0.204 F 
ENDBRANCH  11  13
ENDBRANCH   4  11
BRANCH   1  21
HETATM   21  O1  UNL     1      22.644  -0.343  52.259  1.00  0.00    -0.353 OA
HETATM   22  C1  UNL     1      21.687   0.612  51.840  1.00  0.00     0.210 C 
ENDBRANCH   1  21
BRANCH   9  23
HETATM   23  O2  UNL     1      25.945  -0.469  55.669  1.00  0.00    -0.356 OA
HETATM   24  H10 UNL     1      25.390  -0.172  56.473  1.00  0.00     0.218 HD
ENDBRANCH   9  23
BRANCH  10  25
HETATM   25  O3  UNL     1      23.530  -1.215  54.686  1.00  0.00    -0.351 OA
HETATM   26  C16 UNL     1      22.267  -0.936  55.214  1.00  0.00     0.210 C 
ENDBRANCH  10  25
TORSDOF 5
ENDMDL
MODEL 6
REMARK VINA RESULT:      -7.3      4.868      7.954
REMARK  5 active torsions:
REMARK  status: ('A' for Active; 'I' for Inactive)
REMARK    1  A    between atoms: O1_2  and  C2_3 
REMARK    2  A    between atoms: C5_6  and  N1_7 
REMARK    3  A    between atoms: N1_7  and  C6_8 
REMARK    4  A    between atoms: C14_20  and  O2_21 
REMARK    5  A    between atoms: C15_22  and  O3_23 
ROOT
HETATM    1  C2  UNL     1      25.750   0.375  53.962  1.00  0.00     0.105 A 
HETATM    2  C3  UNL     1      24.747   0.632  53.059  1.00  0.00     0.057 A 
HETATM    3  C4  UNL     1      24.971   1.569  52.084  1.00  0.00     0.044 A 
HETATM    4  C5  UNL     1      23.928   1.781  51.207  1.00  0.00     0.142 A 
HETATM    5  N2  UNL     1      24.071   2.679  50.230  1.00  0.00    -0.224 NA
HETATM    6  C12 UNL     1      25.238   3.376  50.105  1.00  0.00     0.236 A 
HETATM    7  N3  UNL     1      26.296   3.199  50.947  1.00  0.00    -0.238 NA
HETATM    8  C13 UNL     1      26.137   2.291  51.928  1.00  0.00     0.108 A 
HETATM    9  C14 UNL     1      27.146   2.015  52.857  1.00  0.00     0.132 A 
HETATM   10  C15 UNL     1      26.957   1.067  53.866  1.00  0.00     0.137 A 
ENDROOT
BRANCH   4  11
HETATM   11  N1  UNL     1      22.686   1.099  51.272  1.00  0.00    -0.338 N 
HETATM   12  H5  UNL     1      22.447   0.105  51.291  1.00  0.00     0.167 HD
BRANCH  11  13
HETATM   13  C6  UNL     1      21.384   1.721  51.329  1.00  0.00     0.072 A 
HETATM   14  C7  UNL     1      20.917   2.548  52.332  1.00  0.00     0.034 A 
HETATM   15  C8  UNL     1      19.657   3.059  52.239  1.00  0.00     0.021 A 
HETATM   16  C9  UNL     1      18.848   2.768  51.169  1.00  0.00     0.014 A 
HETATM   17 BR1  UNL     1      17.115   3.537  51.146  1.00  0.00    -0.051 Br
HETATM   18  C10 UNL     1      19.326   1.942  50.176  1.00  0.00     0.063 A 
HETATM   19  C11 UNL     1      20.589   1.404  50.228  1.00  0.00     0.144 A 
HETATM   20  F1  UNL     1      20.964   0.608  49.207  1.00  0.00    -0.204 F 
ENDBRANCH  11  13
ENDBRANCH   4  11
BRANCH   1  21
HETATM   21  O1  UNL     1      25.759  -0.518  55.025  1.00  0.00    -0.353 OA
HETATM   22  C1  UNL     1      24.561  -1.216  55.308  1.00  0.00     0.210 C 
ENDBRANCH   1  21
BRANCH   9  23
HETATM   23  O2  UNL     1      28.323   2.737  52.708  1.00  0.00    -0.356 OA
HETATM   24  H10 UNL     1      29.189   2.213  52.839  1.00  0.00     0.218 HD
ENDBRANCH   9  23
BRANCH  10  25
HETATM   25  O3  UNL     1      28.055   0.918  54.700  1.00  0.00    -0.351 OA
HETATM   26  C16 UNL     1      29.043  -0.063  54.582  1.00  0.00     0.210 C 
ENDBRANCH  10  25
TORSDOF 5
ENDMDL
MODEL 7
REMARK VINA RESULT:      -7.0      5.429      7.101
REMARK  5 active torsions:
REMARK  status: ('A' for Active; 'I' for Inactive)
REMARK    1  A    between atoms: O1_2  and  C2_3 
REMARK    2  A    between atoms: C5_6  and  N1_7 
REMARK    3  A    between atoms: N1_7  and  C6_8 
REMARK    4  A    between atoms: C14_20  and  O2_21 
REMARK    5  A    between atoms: C15_22  and  O3_23 
ROOT
HETATM    1  C2  UNL     1      25.666   2.043  53.577  1.00  0.00     0.105 A 
HETATM    2  C3  UNL     1      25.047   3.188  53.136  1.00  0.00     0.057 A 
HETATM    3  C4  UNL     1      23.767   3.094  52.657  1.00  0.00     0.044 A 
HETATM    4  C5  UNL     1      23.200   4.277  52.230  1.00  0.00     0.142 A 
HETATM    5  N2  UNL     1      21.955   4.266  51.750  1.00  0.00    -0.224 NA
HETATM    6  C12 UNL     1      21.255   3.094  51.684  1.00  0.00     0.236 A 
HETATM    7  N3  UNL     1      21.774   1.902  52.095  1.00  0.00    -0.238 NA
HETATM    8  C13 UNL     1      23.031   1.929  52.576  1.00  0.00     0.108 A 
HETATM    9  C14 UNL     1      23.679   0.774  53.030  1.00  0.00     0.132 A 
HETATM   10  C15 UNL     1      24.983   0.828  53.526  1.00  0.00     0.137 A 
ENDROOT
BRANCH   4  11
HETATM   11  N1  UNL     1      23.861   5.532  52.266  1.00  0.00    -0.338 N 
HETATM   12  H5  UNL     1      24.294   6.059  53.026  1.00  0.00     0.167 HD
BRANCH  11  13
HETATM   13  C6  UNL     1      24.076   6.402  51.134  1.00  0.00     0.072 A 
HETATM   14  C7  UNL     1      23.423   7.595  50.885  1.00  0.00     0.034 A 
HETATM   15  C8  UNL     1      23.742   8.304  49.766  1.00  0.00     0.021 A 
HETATM   16  C9  UNL     1      24.696   7.857  48.887  1.00  0.00     0.014 A 
HETATM   17 BR1  UNL     1      25.056   8.930  47.365  1.00  0.00    -0.051 Br
HETATM   18  C10 UNL     1      25.339   6.668  49.148  1.00  0.00     0.063 A 
HETATM   19  C11 UNL     1      25.051   5.918  50.263  1.00  0.00     0.144 A 
HETATM   20  F1  UNL     1      25.735   4.769  50.429  1.00  0.00    -0.204 F 
ENDBRANCH  11  13
ENDBRANCH   4  11
BRANCH   1  21
HETATM   21  O1  UNL     1      26.944   1.887  54.099  1.00  0.00    -0.353 OA
HETATM   22  C1  UNL     1      28.039   2.189  53.256  1.00  0.00     0.210 C 
ENDBRANCH   1  21
BRANCH   9  23
HETATM   23  O2  UNL     1      22.946  -0.403  52.952  1.00  0.00    -0.356 OA
HETATM   24  H10 UNL     1      22.030  -0.390  53.403  1.00  0.00     0.218 HD
ENDBRANCH   9  23
BRANCH  10  25
HETATM   25  O3  UNL     1      25.474  -0.404  53.932  1.00  0.00    -0.351 OA
HETATM   26  C16 UNL     1      26.318  -1.233  53.189  1.00  0.00     0.210 C 
ENDBRANCH  10  25
TORSDOF 5
ENDMDL
MODEL 8
REMARK VINA RESULT:      -6.9      4.506      6.838
REMARK  5 active torsions:
REMARK  status: ('A' for Active; 'I' for Inactive)
REMARK    1  A    between atoms: O1_2  and  C2_3 
REMARK    2  A    between atoms: C5_6  and  N1_7 
REMARK    3  A    between atoms: N1_7  and  C6_8 
REMARK    4  A    between atoms: C14_20  and  O2_21 
REMARK    5  A    between atoms: C15_22  and  O3_23 
ROOT
HETATM    1  C2  UNL     1      23.876   4.381  51.590  1.00  0.00     0.105 A 
HETATM    2  C3  UNL     1      23.707   3.178  52.230  1.00  0.00     0.057 A 
HETATM    3  C4  UNL     1      24.686   2.227  52.102  1.00  0.00     0.044 A 
HETATM    4  C5  UNL     1      24.459   1.041  52.768  1.00  0.00     0.142 A 
HETATM    5  N2  UNL     1      25.367   0.066  52.691  1.00  0.00    -0.224 NA
HETATM    6  C12 UNL     1      26.506   0.247  51.959  1.00  0.00     0.236 A 
HETATM    7  N3  UNL     1      26.774   1.402  51.284  1.00  0.00    -0.238 NA
HETATM    8  C13 UNL     1      25.848   2.375  51.372  1.00  0.00     0.108 A 
HETATM    9  C14 UNL     1      26.001   3.608  50.727  1.00  0.00     0.132 A 
HETATM   10  C15 UNL     1      25.027   4.603  50.833  1.00  0.00     0.137 A 
ENDROOT
BRANCH   4  11
HETATM   11  N1  UNL     1      23.302   0.777  53.547  1.00  0.00    -0.338 N 
HETATM   12  H5  UNL     1      23.148   0.736  54.556  1.00  0.00     0.167 HD
BRANCH  11  13
HETATM   13  C6  UNL     1      21.987   0.484  53.029  1.00  0.00     0.072 A 
HETATM   14  C7  UNL     1      21.589   0.578  51.709  1.00  0.00     0.034 A 
HETATM   15  C8  UNL     1      20.304   0.265  51.379  1.00  0.00     0.021 A 
HETATM   16  C9  UNL     1      19.403  -0.141  52.332  1.00  0.00     0.014 A 
HETATM   17 BR1  UNL     1      17.644  -0.551  51.755  1.00  0.00    -0.051 Br
HETATM   18  C10 UNL     1      19.813  -0.230  53.643  1.00  0.00     0.063 A 
HETATM   19  C11 UNL     1      21.098   0.076  54.023  1.00  0.00     0.144 A 
HETATM   20  F1  UNL     1      21.401  -0.044  55.331  1.00  0.00    -0.204 F 
ENDBRANCH  11  13
ENDBRANCH   4  11
BRANCH   1  21
HETATM   21  O1  UNL     1      23.034   5.486  51.571  1.00  0.00    -0.353 OA
HETATM   22  C1  UNL     1      21.736   5.312  51.035  1.00  0.00     0.210 C 
ENDBRANCH   1  21
BRANCH   9  23
HETATM   23  O2  UNL     1      27.167   3.766  49.990  1.00  0.00    -0.356 OA
HETATM   24  H10 UNL     1      27.863   4.402  50.383  1.00  0.00     0.218 HD
ENDBRANCH   9  23
BRANCH  10  25
HETATM   25  O3  UNL     1      25.336   5.760  50.134  1.00  0.00    -0.351 OA
HETATM   26  C16 UNL     1      24.946   6.052  48.824  1.00  0.00     0.210 C 
ENDBRANCH  10  25
TORSDOF 5
ENDMDL
MODEL 9
REMARK VINA RESULT:      -6.8      9.288     12.240
REMARK  5 active torsions:
REMARK  status: ('A' for Active; 'I' for Inactive)
REMARK    1  A    between atoms: O1_2  and  C2_3 
REMARK    2  A    between atoms: C5_6  and  N1_7 
REMARK    3  A    between atoms: N1_7  and  C6_8 
REMARK    4  A    between atoms: C14_20  and  O2_21 
REMARK    5  A    between atoms: C15_22  and  O3_23 
ROOT
HETATM    1  C2  UNL     1      31.593   5.059  48.145  1.00  0.00     0.105 A 
HETATM    2  C3  UNL     1      30.330   5.598  48.099  1.00  0.00     0.057 A 
HETATM    3  C4  UNL     1      30.175   6.926  48.401  1.00  0.00     0.044 A 
HETATM    4  C5  UNL     1      28.885   7.408  48.336  1.00  0.00     0.142 A 
HETATM    5  N2  UNL     1      28.655   8.692  48.616  1.00  0.00    -0.224 NA
HETATM    6  C12 UNL     1      29.689   9.515  48.962  1.00  0.00     0.236 A 
HETATM    7  N3  UNL     1      30.981   9.083  49.038  1.00  0.00    -0.238 NA
HETATM    8  C13 UNL     1      31.197   7.785  48.754  1.00  0.00     0.108 A 
HETATM    9  C14 UNL     1      32.475   7.217  48.794  1.00  0.00     0.132 A 
HETATM   10  C15 UNL     1      32.674   5.868  48.494  1.00  0.00     0.137 A 
ENDROOT
BRANCH   4  11
HETATM   11  N1  UNL     1      27.760   6.618  47.986  1.00  0.00    -0.338 N 
HETATM   12  H5  UNL     1      27.459   6.205  47.102  1.00  0.00     0.167 HD
BRANCH  11  13
HETATM   13  C6  UNL     1      26.712   6.199  48.887  1.00  0.00     0.072 A 
HETATM   14  C7  UNL     1      25.785   7.019  49.501  1.00  0.00     0.034 A 
HETATM   15  C8  UNL     1      24.855   6.467  50.329  1.00  0.00     0.021 A 
HETATM   16  C9  UNL     1      24.822   5.115  50.561  1.00  0.00     0.014 A 
HETATM   17 BR1  UNL     1      23.481   4.459  51.731  1.00  0.00    -0.051 Br
HETATM   18  C10 UNL     1      25.751   4.308  49.942  1.00  0.00     0.063 A 
HETATM   19  C11 UNL     1      26.708   4.821  49.100  1.00  0.00     0.144 A 
HETATM   20  F1  UNL     1      27.572   3.949  48.543  1.00  0.00    -0.204 F 
ENDBRANCH  11  13
ENDBRANCH   4  11
BRANCH   1  21
HETATM   21  O1  UNL     1      31.996   3.756  47.885  1.00  0.00    -0.353 OA
HETATM   22  C1  UNL     1      31.911   3.296  46.549  1.00  0.00     0.210 C 
ENDBRANCH   1  21
BRANCH   9  23
HETATM   23  O2  UNL     1      33.508   8.075  49.149  1.00  0.00    -0.356 OA
HETATM   24  H10 UNL     1      34.326   8.066  48.538  1.00  0.00     0.218 HD
ENDBRANCH   9  23
BRANCH  10  25
HETATM   25  O3  UNL     1      33.999   5.469  48.583  1.00  0.00    -0.351 OA
HETATM   26  C16 UNL     1      34.887   5.339  47.513  1.00  0.00     0.210 C 
ENDBRANCH  10  25
TORSDOF 5
ENDMDL
