MODEL 1
REMARK VINA RESULT:      -7.8      0.000      0.000
REMARK  5 active torsions:
REMARK  status: ('A' for Active; 'I' for Inactive)
REMARK    1  A    between atoms: O1_2  and  C2_3 
REMARK    2  A    between atoms: C12_16  and  C13_17 
REMARK       I    between atoms: N4_22  and  C16_23 
REMARK    3  A    between atoms: C16_23  and  C17_25 
REMARK    4  A    between atoms: C17_25  and  C18_26 
REMARK    5  A    between atoms: C18_26  and  N5_27 
ROOT
HETATM    1  C2  UNL     1      21.779   0.474  52.216  1.00  0.00     0.073 C 
HETATM    2  C3  UNL     1      21.396   1.730  52.199  1.00  0.00     0.013 A 
HETATM    3  C4  UNL     1      19.996   2.043  52.467  1.00  0.00     0.127 A 
HETATM    4  N1  UNL     1      19.632   3.277  52.484  1.00  0.00    -0.271 NA
HETATM    5  C5  UNL     1      20.596   4.292  52.243  1.00  0.00     0.136 A 
HETATM    6  C6  UNL     1      21.874   4.072  51.990  1.00  0.00     0.062 A 
HETATM    7  C7  UNL     1      22.771   5.156  51.760  1.00  0.00     0.098 C 
HETATM    8  N2  UNL     1      23.488   6.050  51.569  1.00  0.00    -0.192 NA
HETATM    9  C8  UNL     1      22.446   2.708  51.908  1.00  0.00     0.105 A 
HETATM   10  C9  UNL     1      22.948   2.580  50.494  1.00  0.00     0.036 C 
HETATM   11 CL1  UNL     1      21.770   2.070  49.302  1.00  0.00    -0.087 Cl
HETATM   12  C10 UNL     1      24.191   2.821  50.068  1.00  0.00     0.050 C 
HETATM   13  C11 UNL     1      25.184   3.253  51.044  1.00  0.00     0.030 C 
HETATM   14  C12 UNL     1      26.425   3.511  50.709  1.00  0.00     0.028 C 
HETATM   15  N3  UNL     1      24.736   3.383  52.387  1.00  0.00    -0.367 N 
HETATM   16  C15 UNL     1      23.646   2.507  52.795  1.00  0.00     0.211 C 
HETATM   17  N4  UNL     1      24.020   1.093  52.715  1.00  0.00    -0.323 N 
HETATM   18  C16 UNL     1      25.179   0.589  53.378  1.00  0.00     0.223 C 
HETATM   19  O2  UNL     1      25.483  -0.643  53.300  1.00  0.00    -0.273 OA
HETATM   20  C21 UNL     1      23.207   0.138  51.946  1.00  0.00     0.193 C 
HETATM   21  H10 UNL     1      25.201   4.095  53.020  1.00  0.00     0.161 HD
ENDROOT
BRANCH   1  22
HETATM   22  O1  UNL     1      20.800  -0.500  52.495  1.00  0.00    -0.358 OA
HETATM   23  C1  UNL     1      20.792  -1.191  53.730  1.00  0.00     0.209 C 
ENDBRANCH   1  22
BRANCH  18  24
HETATM   24  C17 UNL     1      26.061   1.504  54.178  1.00  0.00     0.122 C 
BRANCH  24  25
HETATM   25  C18 UNL     1      27.297   0.752  54.590  1.00  0.00     0.125 C 
BRANCH  25  26
HETATM   26  N5  UNL     1      28.372   1.067  53.717  1.00  0.00    -0.420 N 
HETATM   27  C19 UNL     1      29.481   0.164  53.732  1.00  0.00     0.142 C 
HETATM   28  C20 UNL     1      28.730   2.444  53.621  1.00  0.00     0.142 C 
ENDBRANCH  25  26
ENDBRANCH  24  25
ENDBRANCH  18  24
BRANCH  14  29
HETATM   29  C13 UNL     1      26.912   3.391  49.343  1.00  0.00     0.014 C 
HETATM   30  C14 UNL     1      27.468   4.363  48.637  1.00  0.00     0.441 C 
HETATM   31  F1  UNL     1      27.785   5.687  48.823  1.00  0.00    -0.452 F 
ENDBRANCH  14  29
TORSDOF 5
ENDMDL
MODEL 2
REMARK VINA RESULT:      -7.3      3.322      5.345
REMARK  5 active torsions:
REMARK  status: ('A' for Active; 'I' for Inactive)
REMARK    1  A    between atoms: O1_2  and  C2_3 
REMARK    2  A    between atoms: C12_16  and  C13_17 
REMARK       I    between atoms: N4_22  and  C16_23 
REMARK    3  A    between atoms: C16_23  and  C17_25 
REMARK    4  A    between atoms: C17_25  and  C18_26 
REMARK    5  A    between atoms: C18_26  and  N5_27 
ROOT
HETATM    1  C2  UNL     1      23.545   5.492  51.121  1.00  0.00     0.073 C 
HETATM    2  C3  UNL     1      23.114   5.054  49.960  1.00  0.00     0.013 A 
HETATM    3  C4  UNL     1      23.138   5.958  48.814  1.00  0.00     0.127 A 
HETATM    4  N1  UNL     1      22.748   5.514  47.671  1.00  0.00    -0.271 NA
HETATM    5  C5  UNL     1      22.307   4.168  47.558  1.00  0.00     0.136 A 
HETATM    6  C6  UNL     1      22.259   3.307  48.557  1.00  0.00     0.062 A 
HETATM    7  C7  UNL     1      21.802   1.971  48.349  1.00  0.00     0.098 C 
HETATM    8  N2  UNL     1      21.421   0.889  48.165  1.00  0.00    -0.192 NA
HETATM    9  C8  UNL     1      22.647   3.667  49.941  1.00  0.00     0.105 A 
HETATM   10  C9  UNL     1      21.392   3.493  50.755  1.00  0.00     0.036 C 
HETATM   11 CL1  UNL     1      20.300   4.861  50.791  1.00  0.00    -0.087 Cl
HETATM   12  C10 UNL     1      21.036   2.403  51.441  1.00  0.00     0.050 C 
HETATM   13  C11 UNL     1      21.929   1.250  51.419  1.00  0.00     0.030 C 
HETATM   14  C12 UNL     1      21.654   0.142  52.063  1.00  0.00     0.028 C 
HETATM   15  N3  UNL     1      23.121   1.388  50.655  1.00  0.00    -0.367 N 
HETATM   16  C15 UNL     1      23.665   2.735  50.540  1.00  0.00     0.211 C 
HETATM   17  N4  UNL     1      24.050   3.284  51.843  1.00  0.00    -0.323 N 
HETATM   18  C16 UNL     1      24.944   2.587  52.711  1.00  0.00     0.223 C 
HETATM   19  O2  UNL     1      25.269   3.083  53.835  1.00  0.00    -0.273 OA
HETATM   20  C21 UNL     1      23.529   4.580  52.301  1.00  0.00     0.193 C 
HETATM   21  H10 UNL     1      23.553   0.527  50.212  1.00  0.00     0.161 HD
ENDROOT
BRANCH   1  22
HETATM   22  O1  UNL     1      24.007   6.821  51.183  1.00  0.00    -0.358 OA
HETATM   23  C1  UNL     1      25.299   7.165  50.718  1.00  0.00     0.209 C 
ENDBRANCH   1  22
BRANCH  18  24
HETATM   24  C17 UNL     1      25.513   1.256  52.314  1.00  0.00     0.122 C 
BRANCH  24  25
HETATM   25  C18 UNL     1      25.183   0.246  53.380  1.00  0.00     0.125 C 
BRANCH  25  26
HETATM   26  N5  UNL     1      26.345  -0.493  53.727  1.00  0.00    -0.420 N 
HETATM   27  C19 UNL     1      27.323   0.200  54.507  1.00  0.00     0.142 C 
HETATM   28  C20 UNL     1      26.887  -1.338  52.713  1.00  0.00     0.142 C 
ENDBRANCH  25  26
ENDBRANCH  24  25
ENDBRANCH  18  24
BRANCH  14  29
HETATM   29  C13 UNL     1      20.442  -0.030  52.850  1.00  0.00     0.014 C 
HETATM   30  C14 UNL     1      20.384  -0.082  54.171  1.00  0.00     0.441 C 
HETATM   31  F1  UNL     1      21.269  -0.010  55.220  1.00  0.00    -0.452 F 
ENDBRANCH  14  29
TORSDOF 5
ENDMDL
MODEL 3
REMARK VINA RESULT:      -7.1      2.667      5.595
REMARK  5 active torsions:
REMARK  status: ('A' for Active; 'I' for Inactive)
REMARK    1  A    between atoms: O1_2  and  C2_3 
REMARK    2  A    between atoms: C12_16  and  C13_17 
REMARK       I    between atoms: N4_22  and  C16_23 
REMARK    3  A    between atoms: C16_23  and  C17_25 
REMARK    4  A    between atoms: C17_25  and  C18_26 
REMARK    5  A    between atoms: C18_26  and  N5_27 
ROOT
HETATM    1  C2  UNL     1      23.243   0.396  53.120  1.00  0.00     0.073 C 
HETATM    2  C3  UNL     1      24.474   0.571  52.694  1.00  0.00     0.013 A 
HETATM    3  C4  UNL     1      25.508  -0.362  53.126  1.00  0.00     0.127 A 
HETATM    4  N1  UNL     1      26.704  -0.208  52.677  1.00  0.00    -0.271 NA
HETATM    5  C5  UNL     1      26.981   0.859  51.781  1.00  0.00     0.136 A 
HETATM    6  C6  UNL     1      26.090   1.736  51.358  1.00  0.00     0.062 A 
HETATM    7  C7  UNL     1      26.460   2.777  50.455  1.00  0.00     0.098 C 
HETATM    8  N2  UNL     1      26.779   3.622  49.725  1.00  0.00    -0.192 NA
HETATM    9  C8  UNL     1      24.677   1.714  51.801  1.00  0.00     0.105 A 
HETATM   10  C9  UNL     1      24.473   3.022  52.520  1.00  0.00     0.036 C 
HETATM   11 CL1  UNL     1      24.920   3.049  54.213  1.00  0.00    -0.087 Cl
HETATM   12  C10 UNL     1      23.994   4.152  51.991  1.00  0.00     0.050 C 
HETATM   13  C11 UNL     1      23.622   4.152  50.581  1.00  0.00     0.030 C 
HETATM   14  C12 UNL     1      23.146   5.218  49.985  1.00  0.00     0.028 C 
HETATM   15  N3  UNL     1      23.806   2.929  49.879  1.00  0.00    -0.367 N 
HETATM   16  C15 UNL     1      23.692   1.707  50.664  1.00  0.00     0.211 C 
HETATM   17  N4  UNL     1      22.354   1.550  51.241  1.00  0.00    -0.323 N 
HETATM   18  C16 UNL     1      21.181   1.591  50.429  1.00  0.00     0.223 C 
HETATM   19  O2  UNL     1      20.030   1.447  50.949  1.00  0.00    -0.273 OA
HETATM   20  C21 UNL     1      22.174   1.341  52.685  1.00  0.00     0.193 C 
HETATM   21  H10 UNL     1      24.015   2.957  48.840  1.00  0.00     0.161 HD
ENDROOT
BRANCH   1  22
HETATM   22  O1  UNL     1      23.003  -0.694  53.979  1.00  0.00    -0.358 OA
HETATM   23  C1  UNL     1      21.761  -0.838  54.643  1.00  0.00     0.209 C 
ENDBRANCH   1  22
BRANCH  18  24
HETATM   24  C17 UNL     1      21.285   1.805  48.946  1.00  0.00     0.122 C 
BRANCH  24  25
HETATM   25  C18 UNL     1      20.169   2.713  48.506  1.00  0.00     0.125 C 
BRANCH  25  26
HETATM   26  N5  UNL     1      20.605   3.533  47.431  1.00  0.00    -0.420 N 
HETATM   27  C19 UNL     1      21.897   3.235  46.895  1.00  0.00     0.142 C 
HETATM   28  C20 UNL     1      20.315   4.926  47.536  1.00  0.00     0.142 C 
ENDBRANCH  25  26
ENDBRANCH  24  25
ENDBRANCH  18  24
BRANCH  14  29
HETATM   29  C13 UNL     1      22.950   6.484  50.676  1.00  0.00     0.014 C 
HETATM   30  C14 UNL     1      23.865   7.430  50.821  1.00  0.00     0.441 C 
HETATM   31  F1  UNL     1      25.175   7.626  50.457  1.00  0.00    -0.452 F 
ENDBRANCH  14  29
TORSDOF 5
ENDMDL
MODEL 4
REMARK VINA RESULT:      -7.0      3.345      5.848
REMARK  5 active torsions:
REMARK  status: ('A' for Active; 'I' for Inactive)
REMARK    1  A    between atoms: O1_2  and  C2_3 
REMARK    2  A    between atoms: C12_16  and  C13_17 
REMARK       I    between atoms: N4_22  and  C16_23 
REMARK    3  A    between atoms: C16_23  and  C17_25 
REMARK    4  A    between atoms: C17_25  and  C18_26 
REMARK    5  A    between atoms: C18_26  and  N5_27 
ROOT
HETATM    1  C2  UNL     1      22.428   4.381  47.834  1.00  0.00     0.073 C 
HETATM    2  C3  UNL     1      22.532   5.186  48.867  1.00  0.00     0.013 A 
HETATM    3  C4  UNL     1      22.135   6.582  48.715  1.00  0.00     0.127 A 
HETATM    4  N1  UNL     1      22.205   7.358  49.739  1.00  0.00    -0.271 NA
HETATM    5  C5  UNL     1      22.665   6.839  50.979  1.00  0.00     0.136 A 
HETATM    6  C6  UNL     1      23.041   5.589  51.177  1.00  0.00     0.062 A 
HETATM    7  C7  UNL     1      23.489   5.155  52.460  1.00  0.00     0.098 C 
HETATM    8  N2  UNL     1      23.857   4.818  53.509  1.00  0.00    -0.192 NA
HETATM    9  C8  UNL     1      23.046   4.576  50.095  1.00  0.00     0.105 A 
HETATM   10  C9  UNL     1      24.488   4.167  49.950  1.00  0.00     0.036 C 
HETATM   11 CL1  UNL     1      25.472   5.171  48.905  1.00  0.00    -0.087 Cl
HETATM   12  C10 UNL     1      25.081   3.126  50.541  1.00  0.00     0.050 C 
HETATM   13  C11 UNL     1      24.280   2.282  51.420  1.00  0.00     0.030 C 
HETATM   14  C12 UNL     1      24.785   1.243  52.039  1.00  0.00     0.028 C 
HETATM   15  N3  UNL     1      22.915   2.647  51.575  1.00  0.00    -0.367 N 
HETATM   16  C15 UNL     1      22.291   3.322  50.445  1.00  0.00     0.211 C 
HETATM   17  N4  UNL     1      22.265   2.477  49.248  1.00  0.00    -0.323 N 
HETATM   18  C16 UNL     1      21.695   1.168  49.271  1.00  0.00     0.223 C 
HETATM   19  O2  UNL     1      21.678   0.453  48.221  1.00  0.00    -0.273 OA
HETATM   20  C21 UNL     1      22.828   2.951  47.975  1.00  0.00     0.193 C 
HETATM   21  H10 UNL     1      22.420   2.420  52.485  1.00  0.00     0.161 HD
ENDROOT
BRANCH   1  22
HETATM   22  O1  UNL     1      21.934   4.927  46.633  1.00  0.00    -0.358 OA
HETATM   23  C1  UNL     1      20.968   4.236  45.863  1.00  0.00     0.209 C 
ENDBRANCH   1  22
BRANCH  18  24
HETATM   24  C17 UNL     1      21.106   0.613  50.536  1.00  0.00     0.122 C 
BRANCH  24  25
HETATM   25  C18 UNL     1      19.616   0.823  50.512  1.00  0.00     0.125 C 
BRANCH  25  26
HETATM   26  N5  UNL     1      19.050   0.436  51.757  1.00  0.00    -0.420 N 
HETATM   27  C19 UNL     1      19.977   0.083  52.787  1.00  0.00     0.142 C 
HETATM   28  C20 UNL     1      17.887  -0.388  51.698  1.00  0.00     0.142 C 
ENDBRANCH  25  26
ENDBRANCH  24  25
ENDBRANCH  18  24
BRANCH  14  29
HETATM   29  C13 UNL     1      26.179   0.846  51.902  1.00  0.00     0.014 C 
HETATM   30  C14 UNL     1      26.668  -0.350  52.188  1.00  0.00     0.441 C 
HETATM   31  F1  UNL     1      26.187  -1.549  52.657  1.00  0.00    -0.452 F 
ENDBRANCH  14  29
TORSDOF 5
ENDMDL
MODEL 5
REMARK VINA RESULT:      -6.9      2.652      3.744
REMARK  5 active torsions:
REMARK  status: ('A' for Active; 'I' for Inactive)
REMARK    1  A    between atoms: O1_2  and  C2_3 
REMARK    2  A    between atoms: C12_16  and  C13_17 
REMARK       I    between atoms: N4_22  and  C16_23 
REMARK    3  A    between atoms: C16_23  and  C17_25 
REMARK    4  A    between atoms: C17_25  and  C18_26 
REMARK    5  A    between atoms: C18_26  and  N5_27 
ROOT
HETATM    1  C2  UNL     1      20.220   3.885  49.152  1.00  0.00     0.073 C 
HETATM    2  C3  UNL     1      20.491   5.136  49.450  1.00  0.00     0.013 A 
HETATM    3  C4  UNL     1      19.428   6.130  49.345  1.00  0.00     0.127 A 
HETATM    4  N1  UNL     1      19.687   7.347  49.671  1.00  0.00    -0.271 NA
HETATM    5  C5  UNL     1      20.991   7.687  50.120  1.00  0.00     0.136 A 
HETATM    6  C6  UNL     1      21.993   6.834  50.232  1.00  0.00     0.062 A 
HETATM    7  C7  UNL     1      23.272   7.266  50.694  1.00  0.00     0.098 C 
HETATM    8  N2  UNL     1      24.309   7.635  51.066  1.00  0.00    -0.192 NA
HETATM    9  C8  UNL     1      21.867   5.403  49.871  1.00  0.00     0.105 A 
HETATM   10  C9  UNL     1      22.842   5.198  48.741  1.00  0.00     0.036 C 
HETATM   11 CL1  UNL     1      22.252   5.573  47.136  1.00  0.00    -0.087 Cl
HETATM   12  C10 UNL     1      24.103   4.768  48.849  1.00  0.00     0.050 C 
HETATM   13  C11 UNL     1      24.615   4.457  50.178  1.00  0.00     0.030 C 
HETATM   14  C12 UNL     1      25.840   4.031  50.371  1.00  0.00     0.028 C 
HETATM   15  N3  UNL     1      23.715   4.643  51.263  1.00  0.00    -0.367 N 
HETATM   16  C15 UNL     1      22.299   4.468  50.968  1.00  0.00     0.211 C 
HETATM   17  N4  UNL     1      21.996   3.104  50.527  1.00  0.00    -0.323 N 
HETATM   18  C16 UNL     1      22.365   1.967  51.309  1.00  0.00     0.223 C 
HETATM   19  O2  UNL     1      22.088   0.792  50.910  1.00  0.00    -0.273 OA
HETATM   20  C21 UNL     1      21.296   2.858  49.257  1.00  0.00     0.193 C 
HETATM   21  H10 UNL     1      24.101   4.897  52.217  1.00  0.00     0.161 HD
ENDROOT
BRANCH   1  22
HETATM   22  O1  UNL     1      18.906   3.584  48.745  1.00  0.00    -0.358 OA
HETATM   23  C1  UNL     1      18.621   3.240  47.402  1.00  0.00     0.209 C 
ENDBRANCH   1  22
BRANCH  18  24
HETATM   24  C17 UNL     1      23.086   2.139  52.614  1.00  0.00     0.122 C 
BRANCH  24  25
HETATM   25  C18 UNL     1      23.558   0.792  53.091  1.00  0.00     0.125 C 
BRANCH  25  26
HETATM   26  N5  UNL     1      24.977   0.771  53.160  1.00  0.00    -0.420 N 
HETATM   27  C19 UNL     1      25.559  -0.362  53.810  1.00  0.00     0.142 C 
HETATM   28  C20 UNL     1      25.618   2.013  53.448  1.00  0.00     0.142 C 
ENDBRANCH  25  26
ENDBRANCH  24  25
ENDBRANCH  18  24
BRANCH  14  29
HETATM   29  C13 UNL     1      26.785   3.835  49.282  1.00  0.00     0.014 C 
HETATM   30  C14 UNL     1      27.499   4.787  48.703  1.00  0.00     0.441 C 
HETATM   31  F1  UNL     1      27.655   6.147  48.831  1.00  0.00    -0.452 F 
ENDBRANCH  14  29
TORSDOF 5
ENDMDL
MODEL 6
REMARK VINA RESULT:      -6.8      8.086     10.532
REMARK  5 active torsions:
REMARK  status: ('A' for Active; 'I' for Inactive)
REMARK    1  A    between atoms: O1_2  and  C2_3 
REMARK    2  A    between atoms: C12_16  and  C13_17 
REMARK       I    between atoms: N4_22  and  C16_23 
REMARK    3  A    between atoms: C16_23  and  C17_25 
REMARK    4  A    between atoms: C17_25  and  C18_26 
REMARK    5  A    between atoms: C18_26  and  N5_27 
ROOT
HETATM    1  C2  UNL     1      28.272   8.877  48.401  1.00  0.00     0.073 C 
HETATM    2  C3  UNL     1      29.071   9.919  48.360  1.00  0.00     0.013 A 
HETATM    3  C4  UNL     1      28.624  11.173  48.957  1.00  0.00     0.127 A 
HETATM    4  N1  UNL     1      29.424  12.181  48.946  1.00  0.00    -0.271 NA
HETATM    5  C5  UNL     1      30.710  12.046  48.357  1.00  0.00     0.136 A 
HETATM    6  C6  UNL     1      31.168  10.940  47.798  1.00  0.00     0.062 A 
HETATM    7  C7  UNL     1      32.476  10.897  47.230  1.00  0.00     0.098 C 
HETATM    8  N2  UNL     1      33.541  10.879  46.767  1.00  0.00    -0.192 NA
HETATM    9  C8  UNL     1      30.362   9.701  47.704  1.00  0.00     0.105 A 
HETATM   10  C9  UNL     1      30.199   9.452  46.228  1.00  0.00     0.036 C 
HETATM   11 CL1  UNL     1      28.868  10.281  45.449  1.00  0.00    -0.087 Cl
HETATM   12  C10 UNL     1      30.971   8.672  45.465  1.00  0.00     0.050 C 
HETATM   13  C11 UNL     1      32.088   7.978  46.094  1.00  0.00     0.030 C 
HETATM   14  C12 UNL     1      32.893   7.195  45.417  1.00  0.00     0.028 C 
HETATM   15  N3  UNL     1      32.265   8.197  47.488  1.00  0.00    -0.367 N 
HETATM   16  C15 UNL     1      31.062   8.488  48.256  1.00  0.00     0.211 C 
HETATM   17  N4  UNL     1      30.108   7.377  48.222  1.00  0.00    -0.323 N 
HETATM   18  C16 UNL     1      30.489   6.054  48.600  1.00  0.00     0.223 C 
HETATM   19  O2  UNL     1      29.644   5.104  48.568  1.00  0.00    -0.273 OA
HETATM   20  C21 UNL     1      28.716   7.588  47.796  1.00  0.00     0.193 C 
HETATM   21  H10 UNL     1      33.240   8.142  47.899  1.00  0.00     0.161 HD
ENDROOT
BRANCH   1  22
HETATM   22  O1  UNL     1      27.021   9.043  49.026  1.00  0.00    -0.358 OA
HETATM   23  C1  UNL     1      26.527   8.076  49.933  1.00  0.00     0.209 C 
ENDBRANCH   1  22
BRANCH  18  24
HETATM   24  C17 UNL     1      31.894   5.760  49.041  1.00  0.00     0.122 C 
BRANCH  24  25
HETATM   25  C18 UNL     1      32.442   4.635  48.204  1.00  0.00     0.125 C 
BRANCH  25  26
HETATM   26  N5  UNL     1      33.840   4.803  48.020  1.00  0.00    -0.420 N 
HETATM   27  C19 UNL     1      34.594   3.609  47.798  1.00  0.00     0.142 C 
HETATM   28  C20 UNL     1      34.481   5.761  48.861  1.00  0.00     0.142 C 
ENDBRANCH  25  26
ENDBRANCH  24  25
ENDBRANCH  18  24
BRANCH  14  29
HETATM   29  C13 UNL     1      32.740   6.955  43.990  1.00  0.00     0.014 C 
HETATM   30  C14 UNL     1      33.075   5.840  43.359  1.00  0.00     0.441 C 
HETATM   31  F1  UNL     1      33.619   4.622  43.688  1.00  0.00    -0.452 F 
ENDBRANCH  14  29
TORSDOF 5
ENDMDL
MODEL 7
REMARK VINA RESULT:      -6.7      3.022      5.537
REMARK  5 active torsions:
REMARK  status: ('A' for Active; 'I' for Inactive)
REMARK    1  A    between atoms: O1_2  and  C2_3 
REMARK    2  A    between atoms: C12_16  and  C13_17 
REMARK       I    between atoms: N4_22  and  C16_23 
REMARK    3  A    between atoms: C16_23  and  C17_25 
REMARK    4  A    between atoms: C17_25  and  C18_26 
REMARK    5  A    between atoms: C18_26  and  N5_27 
ROOT
HETATM    1  C2  UNL     1      24.059   1.813  51.455  1.00  0.00     0.073 C 
HETATM    2  C3  UNL     1      22.884   1.660  52.023  1.00  0.00     0.013 A 
HETATM    3  C4  UNL     1      22.729   0.642  53.056  1.00  0.00     0.127 A 
HETATM    4  N1  UNL     1      21.586   0.520  53.635  1.00  0.00    -0.271 NA
HETATM    5  C5  UNL     1      20.516   1.372  53.253  1.00  0.00     0.136 A 
HETATM    6  C6  UNL     1      20.594   2.307  52.323  1.00  0.00     0.062 A 
HETATM    7  C7  UNL     1      19.464   3.118  52.006  1.00  0.00     0.098 C 
HETATM    8  N2  UNL     1      18.534   3.767  51.755  1.00  0.00    -0.192 NA
HETATM    9  C8  UNL     1      21.830   2.557  51.546  1.00  0.00     0.105 A 
HETATM   10  C9  UNL     1      21.457   2.264  50.117  1.00  0.00     0.036 C 
HETATM   11 CL1  UNL     1      21.577   0.590  49.616  1.00  0.00    -0.087 Cl
HETATM   12  C10 UNL     1      21.043   3.150  49.206  1.00  0.00     0.050 C 
HETATM   13  C11 UNL     1      20.930   4.548  49.605  1.00  0.00     0.030 C 
HETATM   14  C12 UNL     1      20.531   5.480  48.774  1.00  0.00     0.028 C 
HETATM   15  N3  UNL     1      21.275   4.852  50.951  1.00  0.00    -0.367 N 
HETATM   16  C15 UNL     1      22.275   3.994  51.573  1.00  0.00     0.211 C 
HETATM   17  N4  UNL     1      23.566   4.068  50.885  1.00  0.00    -0.323 N 
HETATM   18  C16 UNL     1      24.223   5.316  50.661  1.00  0.00     0.223 C 
HETATM   19  O2  UNL     1      25.345   5.357  50.066  1.00  0.00    -0.273 OA
HETATM   20  C21 UNL     1      24.234   2.851  50.399  1.00  0.00     0.193 C 
HETATM   21  H10 UNL     1      20.802   5.668  51.434  1.00  0.00     0.161 HD
ENDROOT
BRANCH   1  22
HETATM   22  O1  UNL     1      25.103   0.972  51.888  1.00  0.00    -0.358 OA
HETATM   23  C1  UNL     1      26.457   1.360  51.744  1.00  0.00     0.209 C 
ENDBRANCH   1  22
BRANCH  18  24
HETATM   24  C17 UNL     1      23.599   6.601  51.124  1.00  0.00     0.122 C 
BRANCH  24  25
HETATM   25  C18 UNL     1      24.462   7.750  50.676  1.00  0.00     0.125 C 
BRANCH  25  26
HETATM   26  N5  UNL     1      23.812   8.469  49.638  1.00  0.00    -0.420 N 
HETATM   27  C19 UNL     1      22.382   8.459  49.664  1.00  0.00     0.142 C 
HETATM   28  C20 UNL     1      24.382   8.358  48.335  1.00  0.00     0.142 C 
ENDBRANCH  25  26
ENDBRANCH  24  25
ENDBRANCH  18  24
BRANCH  14  29
HETATM   29  C13 UNL     1      20.168   5.200  47.393  1.00  0.00     0.014 C 
HETATM   30  C14 UNL     1      20.972   5.320  46.348  1.00  0.00     0.441 C 
HETATM   31  F1  UNL     1      22.275   5.692  46.119  1.00  0.00    -0.452 F 
ENDBRANCH  14  29
TORSDOF 5
ENDMDL
MODEL 8
REMARK VINA RESULT:      -6.6      3.687      6.179
REMARK  5 active torsions:
REMARK  status: ('A' for Active; 'I' for Inactive)
REMARK    1  A    between atoms: O1_2  and  C2_3 
REMARK    2  A    between atoms: C12_16  and  C13_17 
REMARK       I    between atoms: N4_22  and  C16_23 
REMARK    3  A    between atoms: C16_23  and  C17_25 
REMARK    4  A    between atoms: C17_25  and  C18_26 
REMARK    5  A    between atoms: C18_26  and  N5_27 
ROOT
HETATM    1  C2  UNL     1      21.060   3.536  51.736  1.00  0.00     0.073 C 
HETATM    2  C3  UNL     1      22.140   2.813  51.930  1.00  0.00     0.013 A 
HETATM    3  C4  UNL     1      22.047   1.614  52.756  1.00  0.00     0.127 A 
HETATM    4  N1  UNL     1      23.099   0.890  52.913  1.00  0.00    -0.271 NA
HETATM    5  C5  UNL     1      24.313   1.277  52.283  1.00  0.00     0.136 A 
HETATM    6  C6  UNL     1      24.460   2.351  51.530  1.00  0.00     0.062 A 
HETATM    7  C7  UNL     1      25.719   2.661  50.936  1.00  0.00     0.098 C 
HETATM    8  N2  UNL     1      26.753   2.902  50.464  1.00  0.00    -0.192 NA
HETATM    9  C8  UNL     1      23.353   3.302  51.272  1.00  0.00     0.105 A 
HETATM   10  C9  UNL     1      23.816   4.608  51.863  1.00  0.00     0.036 C 
HETATM   11 CL1  UNL     1      23.507   4.834  53.571  1.00  0.00    -0.087 Cl
HETATM   12  C10 UNL     1      24.440   5.596  51.214  1.00  0.00     0.050 C 
HETATM   13  C11 UNL     1      24.713   5.424  49.792  1.00  0.00     0.030 C 
HETATM   14  C12 UNL     1      25.320   6.344  49.082  1.00  0.00     0.028 C 
HETATM   15  N3  UNL     1      24.286   4.199  49.210  1.00  0.00    -0.367 N 
HETATM   16  C15 UNL     1      23.119   3.567  49.809  1.00  0.00     0.211 C 
HETATM   17  N4  UNL     1      21.924   4.409  49.701  1.00  0.00    -0.323 N 
HETATM   18  C16 UNL     1      21.478   4.913  48.442  1.00  0.00     0.223 C 
HETATM   19  O2  UNL     1      20.436   5.638  48.370  1.00  0.00    -0.273 OA
HETATM   20  C21 UNL     1      21.139   4.763  50.893  1.00  0.00     0.193 C 
HETATM   21  H10 UNL     1      24.824   3.805  48.384  1.00  0.00     0.161 HD
ENDROOT
BRANCH   1  22
HETATM   22  O1  UNL     1      19.869   3.098  52.349  1.00  0.00    -0.358 OA
HETATM   23  C1  UNL     1      18.654   3.049  51.624  1.00  0.00     0.209 C 
ENDBRANCH   1  22
BRANCH  18  24
HETATM   24  C17 UNL     1      22.232   4.598  47.183  1.00  0.00     0.122 C 
BRANCH  24  25
HETATM   25  C18 UNL     1      21.481   3.542  46.417  1.00  0.00     0.125 C 
BRANCH  25  26
HETATM   26  N5  UNL     1      21.139   4.028  45.127  1.00  0.00    -0.420 N 
HETATM   27  C19 UNL     1      21.699   5.291  44.760  1.00  0.00     0.142 C 
HETATM   28  C20 UNL     1      19.787   3.837  44.714  1.00  0.00     0.142 C 
ENDBRANCH  25  26
ENDBRANCH  24  25
ENDBRANCH  18  24
BRANCH  14  29
HETATM   29  C13 UNL     1      25.771   7.606  49.650  1.00  0.00     0.014 C 
HETATM   30  C14 UNL     1      25.140   8.765  49.544  1.00  0.00     0.441 C 
HETATM   31  F1  UNL     1      23.987   9.233  48.961  1.00  0.00    -0.452 F 
ENDBRANCH  14  29
TORSDOF 5
ENDMDL
MODEL 9
REMARK VINA RESULT:      -6.4      5.057      8.669
REMARK  5 active torsions:
REMARK  status: ('A' for Active; 'I' for Inactive)
REMARK    1  A    between atoms: O1_2  and  C2_3 
REMARK    2  A    between atoms: C12_16  and  C13_17 
REMARK       I    between atoms: N4_22  and  C16_23 
REMARK    3  A    between atoms: C16_23  and  C17_25 
REMARK    4  A    between atoms: C17_25  and  C18_26 
REMARK    5  A    between atoms: C18_26  and  N5_27 
ROOT
HETATM    1  C2  UNL     1      20.791   0.379  51.603  1.00  0.00     0.073 C 
HETATM    2  C3  UNL     1      20.725   1.055  50.478  1.00  0.00     0.013 A 
HETATM    3  C4  UNL     1      21.879   1.049  49.585  1.00  0.00     0.127 A 
HETATM    4  N1  UNL     1      21.797   1.683  48.468  1.00  0.00    -0.271 NA
HETATM    5  C5  UNL     1      20.596   2.366  48.140  1.00  0.00     0.136 A 
HETATM    6  C6  UNL     1      19.522   2.412  48.908  1.00  0.00     0.062 A 
HETATM    7  C7  UNL     1      18.358   3.123  48.494  1.00  0.00     0.098 C 
HETATM    8  N2  UNL     1      17.419   3.713  48.146  1.00  0.00    -0.192 NA
HETATM    9  C8  UNL     1      19.464   1.757  50.235  1.00  0.00     0.105 A 
HETATM   10  C9  UNL     1      19.257   2.881  51.215  1.00  0.00     0.036 C 
HETATM   11 CL1  UNL     1      20.704   3.696  51.770  1.00  0.00    -0.087 Cl
HETATM   12  C10 UNL     1      18.086   3.314  51.691  1.00  0.00     0.050 C 
HETATM   13  C11 UNL     1      16.868   2.653  51.237  1.00  0.00     0.030 C 
HETATM   14  C12 UNL     1      15.680   3.016  51.653  1.00  0.00     0.028 C 
HETATM   15  N3  UNL     1      17.036   1.588  50.309  1.00  0.00    -0.367 N 
HETATM   16  C15 UNL     1      18.282   0.840  50.399  1.00  0.00     0.211 C 
HETATM   17  N4  UNL     1      18.425   0.166  51.693  1.00  0.00    -0.323 N 
HETATM   18  C16 UNL     1      17.417  -0.713  52.192  1.00  0.00     0.223 C 
HETATM   19  O2  UNL     1      17.562  -1.291  53.315  1.00  0.00    -0.273 OA
HETATM   20  C21 UNL     1      19.619   0.374  52.525  1.00  0.00     0.193 C 
HETATM   21  H10 UNL     1      16.266   1.389  49.607  1.00  0.00     0.161 HD
ENDROOT
BRANCH   1  22
HETATM   22  O1  UNL     1      21.987  -0.314  51.874  1.00  0.00    -0.358 OA
HETATM   23  C1  UNL     1      22.564  -0.290  53.167  1.00  0.00     0.209 C 
ENDBRANCH   1  22
BRANCH  18  24
HETATM   24  C17 UNL     1      16.167  -0.970  51.401  1.00  0.00     0.122 C 
BRANCH  24  25
HETATM   25  C18 UNL     1      15.103  -1.493  52.327  1.00  0.00     0.125 C 
BRANCH  25  26
HETATM   26  N5  UNL     1      13.976  -0.628  52.311  1.00  0.00    -0.420 N 
HETATM   27  C19 UNL     1      13.615  -0.087  51.037  1.00  0.00     0.142 C 
HETATM   28  C20 UNL     1      13.863   0.289  53.398  1.00  0.00     0.142 C 
ENDBRANCH  25  26
ENDBRANCH  24  25
ENDBRANCH  18  24
BRANCH  14  29
HETATM   29  C13 UNL     1      15.476   4.104  52.599  1.00  0.00     0.014 C 
HETATM   30  C14 UNL     1      14.443   4.227  53.417  1.00  0.00     0.441 C 
HETATM   31  F1  UNL     1      13.298   3.524  53.705  1.00  0.00    -0.452 F 
ENDBRANCH  14  29
TORSDOF 5
ENDMDL
