MODEL 1
REMARK VINA RESULT:      -8.5      0.000      0.000
REMARK  5 active torsions:
REMARK  status: ('A' for Active; 'I' for Inactive)
REMARK    1  A    between atoms: C2_2  and  O1_3 
REMARK    2  A    between atoms: O1_3  and  C3_4 
REMARK       I    between atoms: C3_4  and  N1_6 
REMARK    3  A    between atoms: N1_6  and  C4_7 
REMARK    4  A    between atoms: C7_10  and  N2_11 
REMARK    5  A    between atoms: C12_18  and  O3_19 
ROOT
HETATM    1  N2  UNL     1      20.165  -0.522  53.133  1.00  0.00    -0.281 N 
HETATM    2  N3  UNL     1      19.245  -1.240  53.898  1.00  0.00    -0.291 N 
HETATM    3  C8  UNL     1      17.913  -1.308  53.407  1.00  0.00     0.218 C 
HETATM    4  N4  UNL     1      17.576  -0.744  52.328  1.00  0.00    -0.271 NA
HETATM    5  C9  UNL     1      18.443   0.030  51.452  1.00  0.00     0.169 A 
HETATM    6  C10 UNL     1      17.693   1.309  51.228  1.00  0.00    -0.024 A 
HETATM    7  C11 UNL     1      16.335   0.997  50.656  1.00  0.00     0.049 C 
HETATM    8  C12 UNL     1      17.985   2.585  51.427  1.00  0.00     0.072 A 
HETATM    9  C14 UNL     1      19.326   2.777  51.976  1.00  0.00     0.035 A 
HETATM   10  C15 UNL     1      20.090   1.732  52.207  1.00  0.00     0.005 A 
HETATM   11  C16 UNL     1      19.810   0.270  51.990  1.00  0.00     0.160 A 
HETATM   12  H9  UNL     1      19.351  -1.751  54.789  1.00  0.00     0.188 HD
ENDROOT
BRANCH   1  13
HETATM   13  C7  UNL     1      21.518  -0.614  53.554  1.00  0.00     0.051 A 
HETATM   14  C6  UNL     1      21.889  -1.049  54.808  1.00  0.00     0.033 A 
HETATM   15  C5  UNL     1      23.192  -1.159  55.248  1.00  0.00     0.032 A 
HETATM   16  C4  UNL     1      24.228  -0.818  54.404  1.00  0.00     0.036 A 
HETATM   17  C18 UNL     1      23.918  -0.375  53.135  1.00  0.00     0.032 A 
HETATM   18  C17 UNL     1      22.595  -0.289  52.759  1.00  0.00     0.033 A 
BRANCH  16  19
HETATM   19  N1  UNL     1      25.577  -0.918  54.820  1.00  0.00    -0.303 N 
HETATM   20  C3  UNL     1      26.500   0.161  54.860  1.00  0.00     0.365 C 
HETATM   21  O2  UNL     1      26.339   1.370  54.556  1.00  0.00    -0.238 OA
HETATM   22  H6  UNL     1      25.893  -1.865  55.114  1.00  0.00     0.171 HD
BRANCH  20  23
HETATM   23  O1  UNL     1      27.778  -0.088  55.287  1.00  0.00    -0.304 OA
BRANCH  23  24
HETATM   24  C2  UNL     1      28.942   0.140  54.558  1.00  0.00     0.176 C 
HETATM   25  C1  UNL     1      29.351  -0.987  53.666  1.00  0.00     0.034 C 
ENDBRANCH  23  24
ENDBRANCH  20  23
ENDBRANCH  16  19
ENDBRANCH   1  13
BRANCH   8  26
HETATM   26  O3  UNL     1      17.142   3.654  51.156  1.00  0.00    -0.356 OA
HETATM   27  C13 UNL     1      16.291   4.245  52.117  1.00  0.00     0.210 C 
ENDBRANCH   8  26
TORSDOF 5
ENDMDL
MODEL 2
REMARK VINA RESULT:      -7.8      7.015      9.006
REMARK  5 active torsions:
REMARK  status: ('A' for Active; 'I' for Inactive)
REMARK    1  A    between atoms: C2_2  and  O1_3 
REMARK    2  A    between atoms: O1_3  and  C3_4 
REMARK       I    between atoms: C3_4  and  N1_6 
REMARK    3  A    between atoms: N1_6  and  C4_7 
REMARK    4  A    between atoms: C7_10  and  N2_11 
REMARK    5  A    between atoms: C12_18  and  O3_19 
ROOT
HETATM    1  N2  UNL     1      24.839   3.337  50.315  1.00  0.00    -0.281 N 
HETATM    2  N3  UNL     1      23.737   2.957  49.547  1.00  0.00    -0.291 N 
HETATM    3  C8  UNL     1      22.818   2.053  50.144  1.00  0.00     0.218 C 
HETATM    4  N4  UNL     1      22.989   1.611  51.316  1.00  0.00    -0.271 NA
HETATM    5  C9  UNL     1      24.095   1.933  52.204  1.00  0.00     0.169 A 
HETATM    6  C10 UNL     1      24.597   0.598  52.666  1.00  0.00    -0.024 A 
HETATM    7  C11 UNL     1      23.469  -0.162  53.313  1.00  0.00     0.049 C 
HETATM    8  C12 UNL     1      25.777  -0.001  52.615  1.00  0.00     0.072 A 
HETATM    9  C14 UNL     1      26.801   0.825  51.977  1.00  0.00     0.035 A 
HETATM   10  C15 UNL     1      26.488   2.024  51.538  1.00  0.00     0.005 A 
HETATM   11  C16 UNL     1      25.171   2.751  51.582  1.00  0.00     0.160 A 
HETATM   12  H9  UNL     1      23.451   3.217  48.589  1.00  0.00     0.188 HD
ENDROOT
BRANCH   1  13
HETATM   13  C7  UNL     1      25.644   4.368  49.763  1.00  0.00     0.051 A 
HETATM   14  C6  UNL     1      25.290   5.700  49.795  1.00  0.00     0.033 A 
HETATM   15  C5  UNL     1      26.051   6.727  49.277  1.00  0.00     0.032 A 
HETATM   16  C4  UNL     1      27.260   6.446  48.676  1.00  0.00     0.036 A 
HETATM   17  C18 UNL     1      27.668   5.129  48.615  1.00  0.00     0.032 A 
HETATM   18  C17 UNL     1      26.859   4.151  49.151  1.00  0.00     0.033 A 
BRANCH  16  19
HETATM   19  N1  UNL     1      28.068   7.473  48.134  1.00  0.00    -0.303 N 
HETATM   20  C3  UNL     1      28.387   8.692  48.790  1.00  0.00     0.365 C 
HETATM   21  O2  UNL     1      28.047   9.107  49.927  1.00  0.00    -0.238 OA
HETATM   22  H6  UNL     1      28.445   7.299  47.179  1.00  0.00     0.171 HD
BRANCH  20  23
HETATM   23  O1  UNL     1      29.183   9.596  48.138  1.00  0.00    -0.304 OA
BRANCH  23  24
HETATM   24  C2  UNL     1      30.499   9.911  48.464  1.00  0.00     0.176 C 
HETATM   25  C1  UNL     1      30.694  11.289  49.008  1.00  0.00     0.034 C 
ENDBRANCH  23  24
ENDBRANCH  20  23
ENDBRANCH  16  19
ENDBRANCH   1  13
BRANCH   8  26
HETATM   26  O3  UNL     1      26.056  -1.270  53.104  1.00  0.00    -0.356 OA
HETATM   27  C13 UNL     1      27.048  -2.118  52.561  1.00  0.00     0.210 C 
ENDBRANCH   8  26
TORSDOF 5
ENDMDL
MODEL 3
REMARK VINA RESULT:      -7.5      6.643      8.887
REMARK  5 active torsions:
REMARK  status: ('A' for Active; 'I' for Inactive)
REMARK    1  A    between atoms: C2_2  and  O1_3 
REMARK    2  A    between atoms: O1_3  and  C3_4 
REMARK       I    between atoms: C3_4  and  N1_6 
REMARK    3  A    between atoms: N1_6  and  C4_7 
REMARK    4  A    between atoms: C7_10  and  N2_11 
REMARK    5  A    between atoms: C12_18  and  O3_19 
ROOT
HETATM    1  N2  UNL     1      24.750   5.245  50.316  1.00  0.00    -0.281 N 
HETATM    2  N3  UNL     1      24.588   6.348  51.157  1.00  0.00    -0.291 N 
HETATM    3  C8  UNL     1      25.002   7.609  50.650  1.00  0.00     0.218 C 
HETATM    4  N4  UNL     1      25.496   7.728  49.493  1.00  0.00    -0.271 NA
HETATM    5  C9  UNL     1      25.715   6.655  48.535  1.00  0.00     0.169 A 
HETATM    6  C10 UNL     1      27.143   6.825  48.111  1.00  0.00    -0.024 A 
HETATM    7  C11 UNL     1      27.337   8.214  47.560  1.00  0.00     0.049 C 
HETATM    8  C12 UNL     1      28.202   6.031  48.130  1.00  0.00     0.072 A 
HETATM    9  C14 UNL     1      27.904   4.708  48.675  1.00  0.00     0.035 A 
HETATM   10  C15 UNL     1      26.681   4.429  49.073  1.00  0.00     0.005 A 
HETATM   11  C16 UNL     1      25.448   5.290  49.063  1.00  0.00     0.160 A 
HETATM   12  H9  UNL     1      24.209   6.425  52.114  1.00  0.00     0.188 HD
ENDROOT
BRANCH   1  13
HETATM   13  C7  UNL     1      24.173   4.032  50.777  1.00  0.00     0.051 A 
HETATM   14  C6  UNL     1      24.282   3.592  52.078  1.00  0.00     0.033 A 
HETATM   15  C5  UNL     1      23.727   2.425  52.562  1.00  0.00     0.032 A 
HETATM   16  C4  UNL     1      23.005   1.610  51.716  1.00  0.00     0.036 A 
HETATM   17  C18 UNL     1      22.862   1.999  50.400  1.00  0.00     0.032 A 
HETATM   18  C17 UNL     1      23.441   3.177  49.982  1.00  0.00     0.033 A 
BRANCH  16  19
HETATM   19  N1  UNL     1      22.422   0.406  52.176  1.00  0.00    -0.303 N 
HETATM   20  C3  UNL     1      21.278   0.321  53.013  1.00  0.00     0.365 C 
HETATM   21  O2  UNL     1      20.569   1.237  53.503  1.00  0.00    -0.238 OA
HETATM   22  H6  UNL     1      22.886  -0.472  51.864  1.00  0.00     0.171 HD
BRANCH  20  23
HETATM   23  O1  UNL     1      20.827  -0.919  53.380  1.00  0.00    -0.304 OA
BRANCH  23  24
HETATM   24  C2  UNL     1      21.348  -1.710  54.400  1.00  0.00     0.176 C 
HETATM   25  C1  UNL     1      22.537  -1.130  55.094  1.00  0.00     0.034 C 
ENDBRANCH  23  24
ENDBRANCH  20  23
ENDBRANCH  16  19
ENDBRANCH   1  13
BRANCH   8  26
HETATM   26  O3  UNL     1      29.473   6.373  47.688  1.00  0.00    -0.356 OA
HETATM   27  C13 UNL     1      30.531   6.738  48.551  1.00  0.00     0.210 C 
ENDBRANCH   8  26
TORSDOF 5
ENDMDL
MODEL 4
REMARK VINA RESULT:      -7.4      5.971      7.076
REMARK  5 active torsions:
REMARK  status: ('A' for Active; 'I' for Inactive)
REMARK    1  A    between atoms: C2_2  and  O1_3 
REMARK    2  A    between atoms: O1_3  and  C3_4 
REMARK       I    between atoms: C3_4  and  N1_6 
REMARK    3  A    between atoms: N1_6  and  C4_7 
REMARK    4  A    between atoms: C7_10  and  N2_11 
REMARK    5  A    between atoms: C12_18  and  O3_19 
ROOT
HETATM    1  N2  UNL     1      23.273   2.791  49.517  1.00  0.00    -0.281 N 
HETATM    2  N3  UNL     1      22.881   2.141  48.346  1.00  0.00    -0.291 N 
HETATM    3  C8  UNL     1      21.669   1.402  48.395  1.00  0.00     0.218 C 
HETATM    4  N4  UNL     1      20.977   1.334  49.450  1.00  0.00    -0.271 NA
HETATM    5  C9  UNL     1      21.286   1.963  50.725  1.00  0.00     0.169 A 
HETATM    6  C10 UNL     1      21.162   0.853  51.724  1.00  0.00    -0.024 A 
HETATM    7  C11 UNL     1      19.783   0.253  51.634  1.00  0.00     0.049 C 
HETATM    8  C12 UNL     1      21.988   0.331  52.618  1.00  0.00     0.072 A 
HETATM    9  C14 UNL     1      23.293   0.990  52.629  1.00  0.00     0.035 A 
HETATM   10  C15 UNL     1      23.524   1.989  51.805  1.00  0.00     0.005 A 
HETATM   11  C16 UNL     1      22.619   2.621  50.783  1.00  0.00     0.160 A 
HETATM   12  H9  UNL     1      23.322   2.093  47.413  1.00  0.00     0.188 HD
ENDROOT
BRANCH   1  13
HETATM   13  C7  UNL     1      24.391   3.658  49.393  1.00  0.00     0.051 A 
HETATM   14  C6  UNL     1      25.692   3.242  49.579  1.00  0.00     0.033 A 
HETATM   15  C5  UNL     1      26.801   4.054  49.458  1.00  0.00     0.032 A 
HETATM   16  C4  UNL     1      26.641   5.384  49.131  1.00  0.00     0.036 A 
HETATM   17  C18 UNL     1      25.361   5.858  48.933  1.00  0.00     0.032 A 
HETATM   18  C17 UNL     1      24.297   4.994  49.069  1.00  0.00     0.033 A 
BRANCH  16  19
HETATM   19  N1  UNL     1      27.754   6.247  48.999  1.00  0.00    -0.303 N 
HETATM   20  C3  UNL     1      29.009   5.880  48.443  1.00  0.00     0.365 C 
HETATM   21  O2  UNL     1      29.390   4.778  47.973  1.00  0.00    -0.238 OA
HETATM   22  H6  UNL     1      27.619   7.220  49.344  1.00  0.00     0.171 HD
BRANCH  20  23
HETATM   23  O1  UNL     1      29.998   6.826  48.382  1.00  0.00    -0.304 OA
BRANCH  23  24
HETATM   24  C2  UNL     1      31.250   6.740  48.984  1.00  0.00     0.176 C 
HETATM   25  C1  UNL     1      31.812   8.046  49.444  1.00  0.00     0.034 C 
ENDBRANCH  23  24
ENDBRANCH  20  23
ENDBRANCH  16  19
ENDBRANCH   1  13
BRANCH   8  26
HETATM   26  O3  UNL     1      21.689  -0.721  53.472  1.00  0.00    -0.356 OA
HETATM   27  C13 UNL     1      22.111  -0.780  54.820  1.00  0.00     0.210 C 
ENDBRANCH   8  26
TORSDOF 5
ENDMDL
MODEL 5
REMARK VINA RESULT:      -7.3      7.175      8.138
REMARK  5 active torsions:
REMARK  status: ('A' for Active; 'I' for Inactive)
REMARK    1  A    between atoms: C2_2  and  O1_3 
REMARK    2  A    between atoms: O1_3  and  C3_4 
REMARK       I    between atoms: C3_4  and  N1_6 
REMARK    3  A    between atoms: N1_6  and  C4_7 
REMARK    4  A    between atoms: C7_10  and  N2_11 
REMARK    5  A    between atoms: C12_18  and  O3_19 
ROOT
HETATM    1  N2  UNL     1      24.872   3.970  50.642  1.00  0.00    -0.281 N 
HETATM    2  N3  UNL     1      24.577   4.487  51.905  1.00  0.00    -0.291 N 
HETATM    3  C8  UNL     1      23.824   3.658  52.780  1.00  0.00     0.218 C 
HETATM    4  N4  UNL     1      23.437   2.506  52.431  1.00  0.00    -0.271 NA
HETATM    5  C9  UNL     1      23.681   1.867  51.147  1.00  0.00     0.169 A 
HETATM    6  C10 UNL     1      22.327   1.400  50.706  1.00  0.00    -0.024 A 
HETATM    7  C11 UNL     1      21.744   0.495  51.760  1.00  0.00     0.049 C 
HETATM    8  C12 UNL     1      21.592   1.620  49.627  1.00  0.00     0.072 A 
HETATM    9  C14 UNL     1      22.252   2.501  48.666  1.00  0.00     0.035 A 
HETATM   10  C15 UNL     1      23.451   2.971  48.932  1.00  0.00     0.005 A 
HETATM   11  C16 UNL     1      24.328   2.743  50.133  1.00  0.00     0.160 A 
HETATM   12  H9  UNL     1      24.811   5.393  52.343  1.00  0.00     0.188 HD
ENDROOT
BRANCH   1  13
HETATM   13  C7  UNL     1      25.766   4.743  49.856  1.00  0.00     0.051 A 
HETATM   14  C6  UNL     1      25.566   6.079  49.581  1.00  0.00     0.033 A 
HETATM   15  C5  UNL     1      26.417   6.862  48.830  1.00  0.00     0.032 A 
HETATM   16  C4  UNL     1      27.562   6.308  48.295  1.00  0.00     0.036 A 
HETATM   17  C18 UNL     1      27.816   4.974  48.537  1.00  0.00     0.032 A 
HETATM   18  C17 UNL     1      26.924   4.249  49.296  1.00  0.00     0.033 A 
BRANCH  16  19
HETATM   19  N1  UNL     1      28.458   7.080  47.519  1.00  0.00    -0.303 N 
HETATM   20  C3  UNL     1      29.313   8.095  48.027  1.00  0.00     0.365 C 
HETATM   21  O2  UNL     1      29.458   8.509  49.205  1.00  0.00    -0.238 OA
HETATM   22  H6  UNL     1      28.473   6.871  46.499  1.00  0.00     0.171 HD
BRANCH  20  23
HETATM   23  O1  UNL     1      30.128   8.761  47.152  1.00  0.00    -0.304 OA
BRANCH  23  24
HETATM   24  C2  UNL     1      31.520   8.715  47.134  1.00  0.00     0.176 C 
HETATM   25  C1  UNL     1      32.097   7.345  46.989  1.00  0.00     0.034 C 
ENDBRANCH  23  24
ENDBRANCH  20  23
ENDBRANCH  16  19
ENDBRANCH   1  13
BRANCH   8  26
HETATM   26  O3  UNL     1      20.330   1.090  49.391  1.00  0.00    -0.356 OA
HETATM   27  C13 UNL     1      19.136   1.842  49.472  1.00  0.00     0.210 C 
ENDBRANCH   8  26
TORSDOF 5
ENDMDL
MODEL 6
REMARK VINA RESULT:      -7.2      3.432      8.303
REMARK  5 active torsions:
REMARK  status: ('A' for Active; 'I' for Inactive)
REMARK    1  A    between atoms: C2_2  and  O1_3 
REMARK    2  A    between atoms: O1_3  and  C3_4 
REMARK       I    between atoms: C3_4  and  N1_6 
REMARK    3  A    between atoms: N1_6  and  C4_7 
REMARK    4  A    between atoms: C7_10  and  N2_11 
REMARK    5  A    between atoms: C12_18  and  O3_19 
ROOT
HETATM    1  N2  UNL     1      20.705   0.962  52.266  1.00  0.00    -0.281 N 
HETATM    2  N3  UNL     1      20.469   2.320  52.489  1.00  0.00    -0.291 N 
HETATM    3  C8  UNL     1      21.513   3.220  52.140  1.00  0.00     0.218 C 
HETATM    4  N4  UNL     1      22.605   2.811  51.654  1.00  0.00    -0.271 NA
HETATM    5  C9  UNL     1      22.963   1.427  51.382  1.00  0.00     0.169 A 
HETATM    6  C10 UNL     1      24.303   1.259  52.032  1.00  0.00    -0.024 A 
HETATM    7  C11 UNL     1      25.260   2.279  51.473  1.00  0.00     0.049 C 
HETATM    8  C12 UNL     1      24.775   0.430  52.951  1.00  0.00     0.072 A 
HETATM    9  C14 UNL     1      23.770  -0.522  53.419  1.00  0.00     0.035 A 
HETATM   10  C15 UNL     1      22.555  -0.485  52.917  1.00  0.00     0.005 A 
HETATM   11  C16 UNL     1      21.975   0.426  51.869  1.00  0.00     0.160 A 
HETATM   12  H9  UNL     1      19.649   2.816  52.873  1.00  0.00     0.188 HD
ENDROOT
BRANCH   1  13
HETATM   13  C7  UNL     1      19.589   0.106  52.460  1.00  0.00     0.051 A 
HETATM   14  C6  UNL     1      19.489  -0.775  53.515  1.00  0.00     0.033 A 
HETATM   15  C5  UNL     1      18.418  -1.614  53.739  1.00  0.00     0.032 A 
HETATM   16  C4  UNL     1      17.349  -1.604  52.867  1.00  0.00     0.036 A 
HETATM   17  C18 UNL     1      17.392  -0.743  51.791  1.00  0.00     0.032 A 
HETATM   18  C17 UNL     1      18.493   0.070  51.626  1.00  0.00     0.033 A 
BRANCH  16  19
HETATM   19  N1  UNL     1      16.233  -2.451  53.064  1.00  0.00    -0.303 N 
HETATM   20  C3  UNL     1      16.296  -3.862  53.213  1.00  0.00     0.365 C 
HETATM   21  O2  UNL     1      17.292  -4.629  53.205  1.00  0.00    -0.238 OA
HETATM   22  H6  UNL     1      15.305  -1.980  53.098  1.00  0.00     0.171 HD
BRANCH  20  23
HETATM   23  O1  UNL     1      15.127  -4.553  53.397  1.00  0.00    -0.304 OA
BRANCH  23  24
HETATM   24  C2  UNL     1      14.908  -5.552  54.342  1.00  0.00     0.176 C 
HETATM   25  C1  UNL     1      13.890  -5.214  55.382  1.00  0.00     0.034 C 
ENDBRANCH  23  24
ENDBRANCH  20  23
ENDBRANCH  16  19
ENDBRANCH   1  13
BRANCH   8  26
HETATM   26  O3  UNL     1      26.073   0.428  53.441  1.00  0.00    -0.356 OA
HETATM   27  C13 UNL     1      26.393   0.301  54.812  1.00  0.00     0.210 C 
ENDBRANCH   8  26
TORSDOF 5
ENDMDL
MODEL 7
REMARK VINA RESULT:      -7.1      4.091      4.908
REMARK  5 active torsions:
REMARK  status: ('A' for Active; 'I' for Inactive)
REMARK    1  A    between atoms: C2_2  and  O1_3 
REMARK    2  A    between atoms: O1_3  and  C3_4 
REMARK       I    between atoms: C3_4  and  N1_6 
REMARK    3  A    between atoms: N1_6  and  C4_7 
REMARK    4  A    between atoms: C7_10  and  N2_11 
REMARK    5  A    between atoms: C12_18  and  O3_19 
ROOT
HETATM    1  N2  UNL     1      22.670   3.528  50.811  1.00  0.00    -0.281 N 
HETATM    2  N3  UNL     1      22.715   4.817  51.345  1.00  0.00    -0.291 N 
HETATM    3  C8  UNL     1      21.652   5.694  51.000  1.00  0.00     0.218 C 
HETATM    4  N4  UNL     1      20.709   5.326  50.243  1.00  0.00    -0.271 NA
HETATM    5  C9  UNL     1      20.560   4.016  49.627  1.00  0.00     0.169 A 
HETATM    6  C10 UNL     1      20.316   4.316  48.179  1.00  0.00    -0.024 A 
HETATM    7  C11 UNL     1      19.114   5.214  48.050  1.00  0.00     0.049 C 
HETATM    8  C12 UNL     1      20.924   3.958  47.058  1.00  0.00     0.072 A 
HETATM    9  C14 UNL     1      22.070   3.082  47.294  1.00  0.00     0.035 A 
HETATM   10  C15 UNL     1      22.381   2.735  48.524  1.00  0.00     0.005 A 
HETATM   11  C16 UNL     1      21.719   3.104  49.823  1.00  0.00     0.160 A 
HETATM   12  H9  UNL     1      23.401   5.273  51.969  1.00  0.00     0.188 HD
ENDROOT
BRANCH   1  13
HETATM   13  C7  UNL     1      23.646   2.624  51.306  1.00  0.00     0.051 A 
HETATM   14  C6  UNL     1      23.331   1.507  52.050  1.00  0.00     0.033 A 
HETATM   15  C5  UNL     1      24.250   0.604  52.540  1.00  0.00     0.032 A 
HETATM   16  C4  UNL     1      25.594   0.794  52.291  1.00  0.00     0.036 A 
HETATM   17  C18 UNL     1      25.971   1.895  51.551  1.00  0.00     0.032 A 
HETATM   18  C17 UNL     1      25.000   2.758  51.091  1.00  0.00     0.033 A 
BRANCH  16  19
HETATM   19  N1  UNL     1      26.566  -0.111  52.777  1.00  0.00    -0.303 N 
HETATM   20  C3  UNL     1      27.241   0.006  54.022  1.00  0.00     0.365 C 
HETATM   21  O2  UNL     1      27.134   0.884  54.915  1.00  0.00    -0.238 OA
HETATM   22  H6  UNL     1      26.787  -0.918  52.156  1.00  0.00     0.171 HD
BRANCH  20  23
HETATM   23  O1  UNL     1      28.161  -0.950  54.359  1.00  0.00    -0.304 OA
BRANCH  23  24
HETATM   24  C2  UNL     1      29.380  -1.173  53.723  1.00  0.00     0.176 C 
HETATM   25  C1  UNL     1      30.147   0.066  53.392  1.00  0.00     0.034 C 
ENDBRANCH  23  24
ENDBRANCH  20  23
ENDBRANCH  16  19
ENDBRANCH   1  13
BRANCH   8  26
HETATM   26  O3  UNL     1      20.547   4.347  45.780  1.00  0.00    -0.356 OA
HETATM   27  C13 UNL     1      21.214   3.928  44.605  1.00  0.00     0.210 C 
ENDBRANCH   8  26
TORSDOF 5
ENDMDL
MODEL 8
REMARK VINA RESULT:      -7.1      3.792      4.355
REMARK  5 active torsions:
REMARK  status: ('A' for Active; 'I' for Inactive)
REMARK    1  A    between atoms: C2_2  and  O1_3 
REMARK    2  A    between atoms: O1_3  and  C3_4 
REMARK       I    between atoms: C3_4  and  N1_6 
REMARK    3  A    between atoms: N1_6  and  C4_7 
REMARK    4  A    between atoms: C7_10  and  N2_11 
REMARK    5  A    between atoms: C12_18  and  O3_19 
ROOT
HETATM    1  N2  UNL     1      21.453   2.799  50.901  1.00  0.00    -0.281 N 
HETATM    2  N3  UNL     1      20.784   3.880  51.478  1.00  0.00    -0.291 N 
HETATM    3  C8  UNL     1      19.626   4.353  50.805  1.00  0.00     0.218 C 
HETATM    4  N4  UNL     1      19.219   3.822  49.733  1.00  0.00    -0.271 NA
HETATM    5  C9  UNL     1      19.834   2.699  49.040  1.00  0.00     0.169 A 
HETATM    6  C10 UNL     1      19.968   3.169  47.623  1.00  0.00    -0.024 A 
HETATM    7  C11 UNL     1      18.613   3.568  47.100  1.00  0.00     0.049 C 
HETATM    8  C12 UNL     1      20.994   3.291  46.795  1.00  0.00     0.072 A 
HETATM    9  C14 UNL     1      22.257   2.870  47.397  1.00  0.00     0.035 A 
HETATM   10  C15 UNL     1      22.271   2.426  48.636  1.00  0.00     0.005 A 
HETATM   11  C16 UNL     1      21.136   2.259  49.609  1.00  0.00     0.160 A 
HETATM   12  H9  UNL     1      20.978   4.422  52.335  1.00  0.00     0.188 HD
ENDROOT
BRANCH   1  13
HETATM   13  C7  UNL     1      22.500   2.238  51.680  1.00  0.00     0.051 A 
HETATM   14  C6  UNL     1      22.535   0.912  52.053  1.00  0.00     0.033 A 
HETATM   15  C5  UNL     1      23.538   0.332  52.800  1.00  0.00     0.032 A 
HETATM   16  C4  UNL     1      24.603   1.100  53.226  1.00  0.00     0.036 A 
HETATM   17  C18 UNL     1      24.623   2.436  52.883  1.00  0.00     0.032 A 
HETATM   18  C17 UNL     1      23.588   2.951  52.134  1.00  0.00     0.033 A 
BRANCH  16  19
HETATM   19  N1  UNL     1      25.651   0.540  53.995  1.00  0.00    -0.303 N 
HETATM   20  C3  UNL     1      26.715  -0.244  53.475  1.00  0.00     0.365 C 
HETATM   21  O2  UNL     1      26.952  -0.596  52.291  1.00  0.00    -0.238 OA
HETATM   22  H6  UNL     1      25.616   0.732  55.018  1.00  0.00     0.171 HD
BRANCH  20  23
HETATM   23  O1  UNL     1      27.660  -0.720  54.344  1.00  0.00    -0.304 OA
BRANCH  23  24
HETATM   24  C2  UNL     1      28.959  -0.240  54.483  1.00  0.00     0.176 C 
HETATM   25  C1  UNL     1      29.994  -1.011  53.730  1.00  0.00     0.034 C 
ENDBRANCH  23  24
ENDBRANCH  20  23
ENDBRANCH  16  19
ENDBRANCH   1  13
BRANCH   8  26
HETATM   26  O3  UNL     1      20.923   3.759  45.490  1.00  0.00    -0.356 OA
HETATM   27  C13 UNL     1      21.555   4.942  45.046  1.00  0.00     0.210 C 
ENDBRANCH   8  26
TORSDOF 5
ENDMDL
MODEL 9
REMARK VINA RESULT:      -7.0      6.712      9.357
REMARK  5 active torsions:
REMARK  status: ('A' for Active; 'I' for Inactive)
REMARK    1  A    between atoms: C2_2  and  O1_3 
REMARK    2  A    between atoms: O1_3  and  C3_4 
REMARK       I    between atoms: C3_4  and  N1_6 
REMARK    3  A    between atoms: N1_6  and  C4_7 
REMARK    4  A    between atoms: C7_10  and  N2_11 
REMARK    5  A    between atoms: C12_18  and  O3_19 
ROOT
HETATM    1  N2  UNL     1      25.104   2.774  51.210  1.00  0.00    -0.281 N 
HETATM    2  N3  UNL     1      23.959   2.133  50.734  1.00  0.00    -0.291 N 
HETATM    3  C8  UNL     1      23.381   1.142  51.573  1.00  0.00     0.218 C 
HETATM    4  N4  UNL     1      23.880   0.853  52.697  1.00  0.00    -0.271 NA
HETATM    5  C9  UNL     1      25.066   1.449  53.293  1.00  0.00     0.169 A 
HETATM    6  C10 UNL     1      25.904   0.274  53.700  1.00  0.00    -0.024 A 
HETATM    7  C11 UNL     1      25.108  -0.608  54.626  1.00  0.00     0.049 C 
HETATM    8  C12 UNL     1      27.139  -0.109  53.415  1.00  0.00     0.072 A 
HETATM    9  C14 UNL     1      27.824   0.819  52.518  1.00  0.00     0.035 A 
HETATM   10  C15 UNL     1      27.198   1.897  52.097  1.00  0.00     0.005 A 
HETATM   11  C16 UNL     1      25.806   2.380  52.398  1.00  0.00     0.160 A 
HETATM   12  H9  UNL     1      23.431   2.246  49.854  1.00  0.00     0.188 HD
ENDROOT
BRANCH   1  13
HETATM   13  C7  UNL     1      25.559   3.873  50.435  1.00  0.00     0.051 A 
HETATM   14  C6  UNL     1      26.633   3.796  49.575  1.00  0.00     0.033 A 
HETATM   15  C5  UNL     1      27.097   4.839  48.802  1.00  0.00     0.032 A 
HETATM   16  C4  UNL     1      26.470   6.066  48.863  1.00  0.00     0.036 A 
HETATM   17  C18 UNL     1      25.388   6.205  49.707  1.00  0.00     0.032 A 
HETATM   18  C17 UNL     1      24.976   5.121  50.453  1.00  0.00     0.033 A 
BRANCH  16  19
HETATM   19  N1  UNL     1      26.917   7.160  48.085  1.00  0.00    -0.303 N 
HETATM   20  C3  UNL     1      26.113   7.898  47.176  1.00  0.00     0.365 C 
HETATM   21  O2  UNL     1      24.900   7.757  46.877  1.00  0.00    -0.238 OA
HETATM   22  H6  UNL     1      27.917   7.424  48.205  1.00  0.00     0.171 HD
BRANCH  20  23
HETATM   23  O1  UNL     1      26.687   8.935  46.489  1.00  0.00    -0.304 OA
BRANCH  23  24
HETATM   24  C2  UNL     1      28.052   9.140  46.309  1.00  0.00     0.176 C 
HETATM   25  C1  UNL     1      28.613   8.542  45.060  1.00  0.00     0.034 C 
ENDBRANCH  23  24
ENDBRANCH  20  23
ENDBRANCH  16  19
ENDBRANCH   1  13
BRANCH   8  26
HETATM   26  O3  UNL     1      27.756  -1.256  53.896  1.00  0.00    -0.356 OA
HETATM   27  C13 UNL     1      28.880  -1.856  53.284  1.00  0.00     0.210 C 
ENDBRANCH   8  26
TORSDOF 5
ENDMDL
