MODEL 1
REMARK VINA RESULT:      -6.3      0.000      0.000
REMARK  8 active torsions:
REMARK  status: ('A' for Active; 'I' for Inactive)
REMARK    1  A    between atoms: C2_2  and  C3_3 
REMARK    2  A    between atoms: C2_2  and  N2_12 
REMARK    3  A    between atoms: C3_3  and  P1_4 
REMARK    4  A    between atoms: P1_4  and  C4_5 
REMARK    5  A    between atoms: C4_5  and  N1_6 
REMARK    6  A    between atoms: N2_12  and  C9_13 
REMARK    7  A    between atoms: C14_19  and  O3_20 
REMARK    8  A    between atoms: O3_20  and  C15_21 
ROOT
HETATM    1  C1  UNL     1      23.802   3.264  52.875  1.00  0.00     0.038 C 
HETATM    2  C2  UNL     1      24.386   2.357  52.143  1.00  0.00     0.004 C 
ENDROOT
BRANCH   2   3
HETATM    3  C3  UNL     1      25.695   2.707  51.485  1.00  0.00     0.089 C 
BRANCH   3   4
HETATM    4  P1  UNL     1      26.993   1.569  52.130  1.00  0.00    -0.094 P 
HETATM    5  H5  UNL     1      28.299   2.136  51.835  1.00  0.00     0.059 HD
BRANCH   4   6
HETATM    6  C4  UNL     1      26.772   1.228  53.944  1.00  0.00     0.303 C 
BRANCH   6   7
HETATM    7  N1  UNL     1      27.419  -0.063  54.232  1.00  0.00     0.096 N 
HETATM    8  C5  UNL     1      28.798   0.215  54.450  1.00  0.00     0.299 C 
HETATM    9  C6  UNL     1      29.750  -0.864  54.027  1.00  0.00     0.198 C 
HETATM   10  O1  UNL     1      29.336  -1.608  52.932  1.00  0.00    -0.388 OA
HETATM   11  C7  UNL     1      28.036  -2.073  53.062  1.00  0.00     0.198 C 
HETATM   12  C8  UNL     1      27.133  -0.882  53.079  1.00  0.00     0.299 C 
ENDBRANCH   6   7
ENDBRANCH   4   6
ENDBRANCH   3   4
ENDBRANCH   2   3
BRANCH   2  13
HETATM   13  N2  UNL     1      23.777   1.078  51.990  1.00  0.00    -0.358 N 
HETATM   14  H16 UNL     1      24.121   0.769  51.053  1.00  0.00     0.166 HD
BRANCH  13  15
HETATM   15  C9  UNL     1      22.914   0.327  52.835  1.00  0.00     0.069 A 
HETATM   16  C10 UNL     1      23.453  -0.344  53.840  1.00  0.00     0.082 A 
HETATM   17  C11 UNL     1      22.505  -1.078  54.648  1.00  0.00     0.155 A 
HETATM   18  O2  UNL     1      22.892  -1.751  55.629  1.00  0.00    -0.293 OA
HETATM   19  C12 UNL     1      21.042  -1.127  54.437  1.00  0.00     0.113 A 
HETATM   20  C13 UNL     1      20.660  -0.306  53.258  1.00  0.00     0.020 A 
HETATM   21  C14 UNL     1      21.505   0.392  52.479  1.00  0.00     0.092 A 
BRANCH  21  22
HETATM   22  O3  UNL     1      21.014   1.104  51.427  1.00  0.00    -0.349 OA
BRANCH  22  23
HETATM   23  C15 UNL     1      20.594   0.588  50.189  1.00  0.00     0.171 C 
HETATM   24  C16 UNL     1      21.389   1.093  49.012  1.00  0.00     0.034 C 
ENDBRANCH  22  23
ENDBRANCH  21  22
ENDBRANCH  13  15
ENDBRANCH   2  13
TORSDOF 8
ENDMDL
MODEL 2
REMARK VINA RESULT:      -6.2      1.695      2.204
REMARK  8 active torsions:
REMARK  status: ('A' for Active; 'I' for Inactive)
REMARK    1  A    between atoms: C2_2  and  C3_3 
REMARK    2  A    between atoms: C2_2  and  N2_12 
REMARK    3  A    between atoms: C3_3  and  P1_4 
REMARK    4  A    between atoms: P1_4  and  C4_5 
REMARK    5  A    between atoms: C4_5  and  N1_6 
REMARK    6  A    between atoms: N2_12  and  C9_13 
REMARK    7  A    between atoms: C14_19  and  O3_20 
REMARK    8  A    between atoms: O3_20  and  C15_21 
ROOT
HETATM    1  C1  UNL     1      22.366   1.505  50.102  1.00  0.00     0.038 C 
HETATM    2  C2  UNL     1      22.810   2.006  51.221  1.00  0.00     0.004 C 
ENDROOT
BRANCH   2   3
HETATM    3  C3  UNL     1      24.126   2.738  51.200  1.00  0.00     0.089 C 
BRANCH   3   4
HETATM    4  P1  UNL     1      25.108   2.213  52.669  1.00  0.00    -0.094 P 
HETATM    5  H5  UNL     1      24.240   2.219  53.835  1.00  0.00     0.059 HD
BRANCH   4   6
HETATM    6  C4  UNL     1      25.914   0.558  52.404  1.00  0.00     0.303 C 
BRANCH   6   7
HETATM    7  N1  UNL     1      27.350   0.717  52.686  1.00  0.00     0.096 N 
HETATM    8  C5  UNL     1      27.669  -0.222  53.707  1.00  0.00     0.299 C 
HETATM    9  C6  UNL     1      28.749   0.199  54.659  1.00  0.00     0.198 C 
HETATM   10  O1  UNL     1      28.813   1.563  54.899  1.00  0.00    -0.388 OA
HETATM   11  C7  UNL     1      28.818   2.312  53.732  1.00  0.00     0.198 C 
HETATM   12  C8  UNL     1      27.499   2.104  53.059  1.00  0.00     0.299 C 
ENDBRANCH   6   7
ENDBRANCH   4   6
ENDBRANCH   3   4
ENDBRANCH   2   3
BRANCH   2  13
HETATM   13  N2  UNL     1      22.047   1.850  52.414  1.00  0.00    -0.358 N 
HETATM   14  H16 UNL     1      21.983   2.827  52.777  1.00  0.00     0.166 HD
BRANCH  13  15
HETATM   15  C9  UNL     1      21.473   0.706  53.034  1.00  0.00     0.069 A 
HETATM   16  C10 UNL     1      22.236  -0.015  53.841  1.00  0.00     0.082 A 
HETATM   17  C11 UNL     1      21.575  -1.158  54.428  1.00  0.00     0.155 A 
HETATM   18  O2  UNL     1      22.190  -1.917  55.210  1.00  0.00    -0.293 OA
HETATM   19  C12 UNL     1      20.170  -1.559  54.200  1.00  0.00     0.113 A 
HETATM   20  C13 UNL     1      19.506  -0.612  53.264  1.00  0.00     0.020 A 
HETATM   21  C14 UNL     1      20.080   0.462  52.695  1.00  0.00     0.092 A 
BRANCH  21  22
HETATM   22  O3  UNL     1      19.349   1.246  51.854  1.00  0.00    -0.349 OA
BRANCH  22  23
HETATM   23  C15 UNL     1      18.718   0.838  50.667  1.00  0.00     0.171 C 
HETATM   24  C16 UNL     1      18.636   1.914  49.613  1.00  0.00     0.034 C 
ENDBRANCH  22  23
ENDBRANCH  21  22
ENDBRANCH  13  15
ENDBRANCH   2  13
TORSDOF 8
ENDMDL
MODEL 3
REMARK VINA RESULT:      -6.0      2.507      5.864
REMARK  8 active torsions:
REMARK  status: ('A' for Active; 'I' for Inactive)
REMARK    1  A    between atoms: C2_2  and  C3_3 
REMARK    2  A    between atoms: C2_2  and  N2_12 
REMARK    3  A    between atoms: C3_3  and  P1_4 
REMARK    4  A    between atoms: P1_4  and  C4_5 
REMARK    5  A    between atoms: C4_5  and  N1_6 
REMARK    6  A    between atoms: N2_12  and  C9_13 
REMARK    7  A    between atoms: C14_19  and  O3_20 
REMARK    8  A    between atoms: O3_20  and  C15_21 
ROOT
HETATM    1  C1  UNL     1      23.267   4.966  53.061  1.00  0.00     0.038 C 
HETATM    2  C2  UNL     1      23.814   3.950  52.453  1.00  0.00     0.004 C 
ENDROOT
BRANCH   2   3
HETATM    3  C3  UNL     1      23.143   3.416  51.215  1.00  0.00     0.089 C 
BRANCH   3   4
HETATM    4  P1  UNL     1      21.537   2.656  51.706  1.00  0.00    -0.094 P 
HETATM    5  H5  UNL     1      20.525   3.698  51.756  1.00  0.00     0.059 HD
BRANCH   4   6
HETATM    6  C4  UNL     1      21.056   1.266  50.569  1.00  0.00     0.303 C 
BRANCH   6   7
HETATM    7  N1  UNL     1      20.901   0.056  51.393  1.00  0.00     0.096 N 
HETATM    8  C5  UNL     1      19.608   0.131  51.985  1.00  0.00     0.299 C 
HETATM    9  C6  UNL     1      19.482  -0.484  53.347  1.00  0.00     0.198 C 
HETATM   10  O1  UNL     1      20.628  -0.412  54.125  1.00  0.00    -0.388 OA
HETATM   11  C7  UNL     1      21.760  -0.847  53.452  1.00  0.00     0.198 C 
HETATM   12  C8  UNL     1      22.004   0.102  52.323  1.00  0.00     0.299 C 
ENDBRANCH   6   7
ENDBRANCH   4   6
ENDBRANCH   3   4
ENDBRANCH   2   3
BRANCH   2  13
HETATM   13  N2  UNL     1      25.015   3.385  52.970  1.00  0.00    -0.358 N 
HETATM   14  H16 UNL     1      25.456   4.191  53.466  1.00  0.00     0.166 HD
BRANCH  13  15
HETATM   15  C9  UNL     1      25.561   2.074  52.889  1.00  0.00     0.069 A 
HETATM   16  C10 UNL     1      25.129   1.163  53.749  1.00  0.00     0.082 A 
HETATM   17  C11 UNL     1      25.735  -0.140  53.597  1.00  0.00     0.155 A 
HETATM   18  O2  UNL     1      25.409  -1.084  54.349  1.00  0.00    -0.293 OA
HETATM   19  C12 UNL     1      26.757  -0.509  52.593  1.00  0.00     0.113 A 
HETATM   20  C13 UNL     1      27.092   0.662  51.739  1.00  0.00     0.020 A 
HETATM   21  C14 UNL     1      26.555   1.890  51.844  1.00  0.00     0.092 A 
BRANCH  21  22
HETATM   22  O3  UNL     1      26.957   2.872  50.990  1.00  0.00    -0.349 OA
BRANCH  22  23
HETATM   23  C15 UNL     1      26.477   3.098  49.689  1.00  0.00     0.171 C 
HETATM   24  C16 UNL     1      26.781   4.475  49.153  1.00  0.00     0.034 C 
ENDBRANCH  22  23
ENDBRANCH  21  22
ENDBRANCH  13  15
ENDBRANCH   2  13
TORSDOF 8
ENDMDL
MODEL 4
REMARK VINA RESULT:      -5.9      2.275      6.333
REMARK  8 active torsions:
REMARK  status: ('A' for Active; 'I' for Inactive)
REMARK    1  A    between atoms: C2_2  and  C3_3 
REMARK    2  A    between atoms: C2_2  and  N2_12 
REMARK    3  A    between atoms: C3_3  and  P1_4 
REMARK    4  A    between atoms: P1_4  and  C4_5 
REMARK    5  A    between atoms: C4_5  and  N1_6 
REMARK    6  A    between atoms: N2_12  and  C9_13 
REMARK    7  A    between atoms: C14_19  and  O3_20 
REMARK    8  A    between atoms: O3_20  and  C15_21 
ROOT
HETATM    1  C1  UNL     1      23.318   4.491  52.590  1.00  0.00     0.038 C 
HETATM    2  C2  UNL     1      24.229   3.599  52.318  1.00  0.00     0.004 C 
ENDROOT
BRANCH   2   3
HETATM    3  C3  UNL     1      24.480   3.256  50.872  1.00  0.00     0.089 C 
BRANCH   3   4
HETATM    4  P1  UNL     1      22.958   3.648  49.909  1.00  0.00    -0.094 P 
HETATM    5  H5  UNL     1      23.331   4.440  48.749  1.00  0.00     0.059 HD
BRANCH   4   6
HETATM    6  C4  UNL     1      22.026   2.109  49.437  1.00  0.00     0.303 C 
BRANCH   6   7
HETATM    7  N1  UNL     1      20.791   2.079  50.237  1.00  0.00     0.096 N 
HETATM    8  C5  UNL     1      20.286   3.411  50.254  1.00  0.00     0.299 C 
HETATM    9  C6  UNL     1      19.558   3.811  51.502  1.00  0.00     0.198 C 
HETATM   10  O1  UNL     1      20.019   3.209  52.663  1.00  0.00    -0.388 OA
HETATM   11  C7  UNL     1      20.137   1.832  52.540  1.00  0.00     0.198 C 
HETATM   12  C8  UNL     1      21.198   1.562  51.521  1.00  0.00     0.299 C 
ENDBRANCH   6   7
ENDBRANCH   4   6
ENDBRANCH   3   4
ENDBRANCH   2   3
BRANCH   2  13
HETATM   13  N2  UNL     1      24.952   2.984  53.380  1.00  0.00    -0.358 N 
HETATM   14  H16 UNL     1      24.691   3.568  54.206  1.00  0.00     0.166 HD
BRANCH  13  15
HETATM   15  C9  UNL     1      25.825   1.861  53.412  1.00  0.00     0.069 A 
HETATM   16  C10 UNL     1      27.130   2.085  53.409  1.00  0.00     0.082 A 
HETATM   17  C11 UNL     1      27.943   0.891  53.444  1.00  0.00     0.155 A 
HETATM   18  O2  UNL     1      29.191   0.972  53.446  1.00  0.00    -0.293 OA
HETATM   19  C12 UNL     1      27.440  -0.499  53.481  1.00  0.00     0.113 A 
HETATM   20  C13 UNL     1      25.953  -0.513  53.477  1.00  0.00     0.020 A 
HETATM   21  C14 UNL     1      25.157   0.570  53.445  1.00  0.00     0.092 A 
BRANCH  21  22
HETATM   22  O3  UNL     1      23.805   0.408  53.446  1.00  0.00    -0.349 OA
BRANCH  22  23
HETATM   23  C15 UNL     1      23.107  -0.801  53.604  1.00  0.00     0.171 C 
HETATM   24  C16 UNL     1      22.176  -0.823  54.790  1.00  0.00     0.034 C 
ENDBRANCH  22  23
ENDBRANCH  21  22
ENDBRANCH  13  15
ENDBRANCH   2  13
TORSDOF 8
ENDMDL
MODEL 5
REMARK VINA RESULT:      -5.9      4.127      6.434
REMARK  8 active torsions:
REMARK  status: ('A' for Active; 'I' for Inactive)
REMARK    1  A    between atoms: C2_2  and  C3_3 
REMARK    2  A    between atoms: C2_2  and  N2_12 
REMARK    3  A    between atoms: C3_3  and  P1_4 
REMARK    4  A    between atoms: P1_4  and  C4_5 
REMARK    5  A    between atoms: C4_5  and  N1_6 
REMARK    6  A    between atoms: N2_12  and  C9_13 
REMARK    7  A    between atoms: C14_19  and  O3_20 
REMARK    8  A    between atoms: O3_20  and  C15_21 
ROOT
HETATM    1  C1  UNL     1      26.373   3.179  49.541  1.00  0.00     0.038 C 
HETATM    2  C2  UNL     1      25.488   3.617  50.392  1.00  0.00     0.004 C 
ENDROOT
BRANCH   2   3
HETATM    3  C3  UNL     1      24.444   2.653  50.892  1.00  0.00     0.089 C 
BRANCH   3   4
HETATM    4  P1  UNL     1      25.010   1.967  52.506  1.00  0.00    -0.094 P 
HETATM    5  H5  UNL     1      23.853   1.788  53.367  1.00  0.00     0.059 HD
BRANCH   4   6
HETATM    6  C4  UNL     1      25.972   0.391  52.286  1.00  0.00     0.303 C 
BRANCH   6   7
HETATM    7  N1  UNL     1      27.387   0.698  52.551  1.00  0.00     0.096 N 
HETATM    8  C5  UNL     1      27.844  -0.271  53.489  1.00  0.00     0.299 C 
HETATM    9  C6  UNL     1      28.894   0.202  54.449  1.00  0.00     0.198 C 
HETATM   10  O1  UNL     1      28.806   1.543  54.794  1.00  0.00    -0.388 OA
HETATM   11  C7  UNL     1      28.689   2.372  53.689  1.00  0.00     0.198 C 
HETATM   12  C8  UNL     1      27.384   2.060  53.028  1.00  0.00     0.299 C 
ENDBRANCH   6   7
ENDBRANCH   4   6
ENDBRANCH   3   4
ENDBRANCH   2   3
BRANCH   2  13
HETATM   13  N2  UNL     1      25.533   4.975  50.819  1.00  0.00    -0.358 N 
HETATM   14  H16 UNL     1      26.367   4.992  51.448  1.00  0.00     0.166 HD
BRANCH  13  15
HETATM   15  C9  UNL     1      24.707   6.094  50.522  1.00  0.00     0.069 A 
HETATM   16  C10 UNL     1      23.449   6.069  50.935  1.00  0.00     0.082 A 
HETATM   17  C11 UNL     1      22.681   7.244  50.592  1.00  0.00     0.155 A 
HETATM   18  O2  UNL     1      21.480   7.339  50.927  1.00  0.00    -0.293 OA
HETATM   19  C12 UNL     1      23.181   8.419  49.846  1.00  0.00     0.113 A 
HETATM   20  C13 UNL     1      24.612   8.233  49.484  1.00  0.00     0.020 A 
HETATM   21  C14 UNL     1      25.364   7.159  49.781  1.00  0.00     0.092 A 
BRANCH  21  22
HETATM   22  O3  UNL     1      26.667   7.123  49.384  1.00  0.00    -0.349 OA
BRANCH  22  23
HETATM   23  C15 UNL     1      27.160   6.604  48.175  1.00  0.00     0.171 C 
HETATM   24  C16 UNL     1      28.625   6.250  48.211  1.00  0.00     0.034 C 
ENDBRANCH  22  23
ENDBRANCH  21  22
ENDBRANCH  13  15
ENDBRANCH   2  13
TORSDOF 8
ENDMDL
MODEL 6
REMARK VINA RESULT:      -5.9      2.769      6.737
REMARK  8 active torsions:
REMARK  status: ('A' for Active; 'I' for Inactive)
REMARK    1  A    between atoms: C2_2  and  C3_3 
REMARK    2  A    between atoms: C2_2  and  N2_12 
REMARK    3  A    between atoms: C3_3  and  P1_4 
REMARK    4  A    between atoms: P1_4  and  C4_5 
REMARK    5  A    between atoms: C4_5  and  N1_6 
REMARK    6  A    between atoms: N2_12  and  C9_13 
REMARK    7  A    between atoms: C14_19  and  O3_20 
REMARK    8  A    between atoms: O3_20  and  C15_21 
ROOT
HETATM    1  C1  UNL     1      26.447   3.292  49.637  1.00  0.00     0.038 C 
HETATM    2  C2  UNL     1      25.535   3.407  50.562  1.00  0.00     0.004 C 
ENDROOT
BRANCH   2   3
HETATM    3  C3  UNL     1      24.169   3.895  50.157  1.00  0.00     0.089 C 
BRANCH   3   4
HETATM    4  P1  UNL     1      23.889   5.547  50.926  1.00  0.00    -0.094 P 
HETATM    5  H5  UNL     1      24.496   6.562  50.081  1.00  0.00     0.059 HD
BRANCH   4   6
HETATM    6  C4  UNL     1      22.083   5.871  51.225  1.00  0.00     0.303 C 
BRANCH   6   7
HETATM    7  N1  UNL     1      21.366   4.604  51.011  1.00  0.00     0.096 N 
HETATM    8  C5  UNL     1      20.101   4.942  50.453  1.00  0.00     0.299 C 
HETATM    9  C6  UNL     1      18.966   4.034  50.823  1.00  0.00     0.198 C 
HETATM   10  O1  UNL     1      19.061   3.471  52.087  1.00  0.00    -0.388 OA
HETATM   11  C7  UNL     1      20.299   2.891  52.322  1.00  0.00     0.198 C 
HETATM   12  C8  UNL     1      21.316   3.986  52.315  1.00  0.00     0.299 C 
ENDBRANCH   6   7
ENDBRANCH   4   6
ENDBRANCH   3   4
ENDBRANCH   2   3
BRANCH   2  13
HETATM   13  N2  UNL     1      25.853   3.071  51.910  1.00  0.00    -0.358 N 
HETATM   14  H16 UNL     1      25.478   3.885  52.446  1.00  0.00     0.166 HD
BRANCH  13  15
HETATM   15  C9  UNL     1      26.506   1.944  52.481  1.00  0.00     0.069 A 
HETATM   16  C10 UNL     1      27.763   2.083  52.873  1.00  0.00     0.082 A 
HETATM   17  C11 UNL     1      28.349   0.891  53.441  1.00  0.00     0.155 A 
HETATM   18  O2  UNL     1      29.531   0.896  53.850  1.00  0.00    -0.293 OA
HETATM   19  C12 UNL     1      27.672  -0.413  53.608  1.00  0.00     0.113 A 
HETATM   20  C13 UNL     1      26.275  -0.341  53.102  1.00  0.00     0.020 A 
HETATM   21  C14 UNL     1      25.689   0.744  52.566  1.00  0.00     0.092 A 
BRANCH  21  22
HETATM   22  O3  UNL     1      24.396   0.667  52.143  1.00  0.00    -0.349 OA
BRANCH  22  23
HETATM   23  C15 UNL     1      23.247   0.729  52.948  1.00  0.00     0.171 C 
HETATM   24  C16 UNL     1      22.483  -0.569  53.030  1.00  0.00     0.034 C 
ENDBRANCH  22  23
ENDBRANCH  21  22
ENDBRANCH  13  15
ENDBRANCH   2  13
TORSDOF 8
ENDMDL
MODEL 7
REMARK VINA RESULT:      -5.8      2.007      3.557
REMARK  8 active torsions:
REMARK  status: ('A' for Active; 'I' for Inactive)
REMARK    1  A    between atoms: C2_2  and  C3_3 
REMARK    2  A    between atoms: C2_2  and  N2_12 
REMARK    3  A    between atoms: C3_3  and  P1_4 
REMARK    4  A    between atoms: P1_4  and  C4_5 
REMARK    5  A    between atoms: C4_5  and  N1_6 
REMARK    6  A    between atoms: N2_12  and  C9_13 
REMARK    7  A    between atoms: C14_19  and  O3_20 
REMARK    8  A    between atoms: O3_20  and  C15_21 
ROOT
HETATM    1  C1  UNL     1      22.704   1.848  50.588  1.00  0.00     0.038 C 
HETATM    2  C2  UNL     1      22.520   2.188  51.833  1.00  0.00     0.004 C 
ENDROOT
BRANCH   2   3
HETATM    3  C3  UNL     1      23.716   2.635  52.632  1.00  0.00     0.089 C 
BRANCH   3   4
HETATM    4  P1  UNL     1      25.234   2.308  51.641  1.00  0.00    -0.094 P 
HETATM    5  H5  UNL     1      26.120   3.455  51.752  1.00  0.00     0.059 HD
BRANCH   4   6
HETATM    6  C4  UNL     1      26.067   0.727  52.157  1.00  0.00     0.303 C 
BRANCH   6   7
HETATM    7  N1  UNL     1      26.803   1.002  53.401  1.00  0.00     0.096 N 
HETATM    8  C5  UNL     1      27.616   2.144  53.147  1.00  0.00     0.299 C 
HETATM    9  C6  UNL     1      28.924   2.182  53.880  1.00  0.00     0.198 C 
HETATM   10  O1  UNL     1      29.493   0.940  54.121  1.00  0.00    -0.388 OA
HETATM   11  C7  UNL     1      28.598   0.044  54.685  1.00  0.00     0.198 C 
HETATM   12  C8  UNL     1      27.525  -0.216  53.677  1.00  0.00     0.299 C 
ENDBRANCH   6   7
ENDBRANCH   4   6
ENDBRANCH   3   4
ENDBRANCH   2   3
BRANCH   2  13
HETATM   13  N2  UNL     1      21.211   2.129  52.393  1.00  0.00    -0.358 N 
HETATM   14  H16 UNL     1      21.155   3.014  52.944  1.00  0.00     0.166 HD
BRANCH  13  15
HETATM   15  C9  UNL     1      20.174   1.161  52.288  1.00  0.00     0.069 A 
HETATM   16  C10 UNL     1      19.390   1.199  51.222  1.00  0.00     0.082 A 
HETATM   17  C11 UNL     1      18.364   0.181  51.195  1.00  0.00     0.155 A 
HETATM   18  O2  UNL     1      17.561   0.113  50.239  1.00  0.00    -0.293 OA
HETATM   19  C12 UNL     1      18.142  -0.853  52.229  1.00  0.00     0.113 A 
HETATM   20  C13 UNL     1      19.133  -0.708  53.329  1.00  0.00     0.020 A 
HETATM   21  C14 UNL     1      20.102   0.222  53.396  1.00  0.00     0.092 A 
BRANCH  21  22
HETATM   22  O3  UNL     1      20.943   0.237  54.468  1.00  0.00    -0.349 OA
BRANCH  22  23
HETATM   23  C15 UNL     1      21.874  -0.756  54.815  1.00  0.00     0.171 C 
HETATM   24  C16 UNL     1      23.104  -0.776  53.943  1.00  0.00     0.034 C 
ENDBRANCH  22  23
ENDBRANCH  21  22
ENDBRANCH  13  15
ENDBRANCH   2  13
TORSDOF 8
ENDMDL
MODEL 8
REMARK VINA RESULT:      -5.8      4.054      6.426
REMARK  8 active torsions:
REMARK  status: ('A' for Active; 'I' for Inactive)
REMARK    1  A    between atoms: C2_2  and  C3_3 
REMARK    2  A    between atoms: C2_2  and  N2_12 
REMARK    3  A    between atoms: C3_3  and  P1_4 
REMARK    4  A    between atoms: P1_4  and  C4_5 
REMARK    5  A    between atoms: C4_5  and  N1_6 
REMARK    6  A    between atoms: N2_12  and  C9_13 
REMARK    7  A    between atoms: C14_19  and  O3_20 
REMARK    8  A    between atoms: O3_20  and  C15_21 
ROOT
HETATM    1  C1  UNL     1      23.814   4.888  51.805  1.00  0.00     0.038 C 
HETATM    2  C2  UNL     1      23.933   3.939  50.919  1.00  0.00     0.004 C 
ENDROOT
BRANCH   2   3
HETATM    3  C3  UNL     1      23.591   2.532  51.335  1.00  0.00     0.089 C 
BRANCH   3   4
HETATM    4  P1  UNL     1      24.848   1.964  52.558  1.00  0.00    -0.094 P 
HETATM    5  H5  UNL     1      24.587   0.571  52.882  1.00  0.00     0.059 HD
BRANCH   4   6
HETATM    6  C4  UNL     1      26.581   2.227  51.938  1.00  0.00     0.303 C 
BRANCH   6   7
HETATM    7  N1  UNL     1      27.397   1.101  52.420  1.00  0.00     0.096 N 
HETATM    8  C5  UNL     1      26.718  -0.088  52.027  1.00  0.00     0.299 C 
HETATM    9  C6  UNL     1      26.869  -1.256  52.955  1.00  0.00     0.198 C 
HETATM   10  O1  UNL     1      27.004  -0.921  54.295  1.00  0.00    -0.388 OA
HETATM   11  C7  UNL     1      27.970   0.050  54.507  1.00  0.00     0.198 C 
HETATM   12  C8  UNL     1      27.500   1.305  53.845  1.00  0.00     0.299 C 
ENDBRANCH   6   7
ENDBRANCH   4   6
ENDBRANCH   3   4
ENDBRANCH   2   3
BRANCH   2  13
HETATM   13  N2  UNL     1      24.376   4.255  49.603  1.00  0.00    -0.358 N 
HETATM   14  H16 UNL     1      23.685   3.755  49.000  1.00  0.00     0.166 HD
BRANCH  13  15
HETATM   15  C9  UNL     1      25.462   5.040  49.127  1.00  0.00     0.069 A 
HETATM   16  C10 UNL     1      26.660   4.478  49.067  1.00  0.00     0.082 A 
HETATM   17  C11 UNL     1      27.705   5.345  48.572  1.00  0.00     0.155 A 
HETATM   18  O2  UNL     1      28.880   4.928  48.468  1.00  0.00    -0.293 OA
HETATM   19  C12 UNL     1      27.537   6.751  48.149  1.00  0.00     0.113 A 
HETATM   20  C13 UNL     1      26.118   7.173  48.301  1.00  0.00     0.020 A 
HETATM   21  C14 UNL     1      25.114   6.402  48.756  1.00  0.00     0.092 A 
BRANCH  21  22
HETATM   22  O3  UNL     1      23.858   6.922  48.843  1.00  0.00    -0.349 OA
BRANCH  22  23
HETATM   23  C15 UNL     1      23.431   7.939  49.712  1.00  0.00     0.171 C 
HETATM   24  C16 UNL     1      22.414   8.876  49.110  1.00  0.00     0.034 C 
ENDBRANCH  22  23
ENDBRANCH  21  22
ENDBRANCH  13  15
ENDBRANCH   2  13
TORSDOF 8
ENDMDL
MODEL 9
REMARK VINA RESULT:      -5.6      3.726      5.209
REMARK  8 active torsions:
REMARK  status: ('A' for Active; 'I' for Inactive)
REMARK    1  A    between atoms: C2_2  and  C3_3 
REMARK    2  A    between atoms: C2_2  and  N2_12 
REMARK    3  A    between atoms: C3_3  and  P1_4 
REMARK    4  A    between atoms: P1_4  and  C4_5 
REMARK    5  A    between atoms: C4_5  and  N1_6 
REMARK    6  A    between atoms: N2_12  and  C9_13 
REMARK    7  A    between atoms: C14_19  and  O3_20 
REMARK    8  A    between atoms: O3_20  and  C15_21 
ROOT
HETATM    1  C1  UNL     1      24.153   3.299  52.718  1.00  0.00     0.038 C 
HETATM    2  C2  UNL     1      24.218   2.461  51.721  1.00  0.00     0.004 C 
ENDROOT
BRANCH   2   3
HETATM    3  C3  UNL     1      24.168   3.016  50.321  1.00  0.00     0.089 C 
BRANCH   3   4
HETATM    4  P1  UNL     1      25.822   3.720  49.914  1.00  0.00    -0.094 P 
HETATM    5  H5  UNL     1      26.354   3.020  48.757  1.00  0.00     0.059 HD
BRANCH   4   6
HETATM    6  C4  UNL     1      25.742   5.558  49.647  1.00  0.00     0.303 C 
BRANCH   6   7
HETATM    7  N1  UNL     1      26.664   5.884  48.547  1.00  0.00     0.096 N 
HETATM    8  C5  UNL     1      27.750   4.967  48.643  1.00  0.00     0.299 C 
HETATM    9  C6  UNL     1      29.083   5.494  48.203  1.00  0.00     0.198 C 
HETATM   10  O1  UNL     1      29.274   6.850  48.422  1.00  0.00    -0.388 OA
HETATM   11  C7  UNL     1      28.221   7.620  47.952  1.00  0.00     0.198 C 
HETATM   12  C8  UNL     1      27.012   7.269  48.758  1.00  0.00     0.299 C 
ENDBRANCH   6   7
ENDBRANCH   4   6
ENDBRANCH   3   4
ENDBRANCH   2   3
BRANCH   2  13
HETATM   13  N2  UNL     1      24.334   1.065  51.981  1.00  0.00    -0.358 N 
HETATM   14  H16 UNL     1      24.798   0.707  51.116  1.00  0.00     0.166 HD
BRANCH  13  15
HETATM   15  C9  UNL     1      23.950   0.270  53.095  1.00  0.00     0.069 A 
HETATM   16  C10 UNL     1      24.904  -0.196  53.888  1.00  0.00     0.082 A 
HETATM   17  C11 UNL     1      24.427  -0.993  54.995  1.00  0.00     0.155 A 
HETATM   18  O2  UNL     1      25.232  -1.488  55.815  1.00  0.00    -0.293 OA
HETATM   19  C12 UNL     1      23.013  -1.309  55.290  1.00  0.00     0.113 A 
HETATM   20  C13 UNL     1      22.120  -0.688  54.276  1.00  0.00     0.020 A 
HETATM   21  C14 UNL     1      22.518   0.060  53.231  1.00  0.00     0.092 A 
BRANCH  21  22
HETATM   22  O3  UNL     1      21.586   0.569  52.378  1.00  0.00    -0.349 OA
BRANCH  22  23
HETATM   23  C15 UNL     1      20.299   1.020  52.717  1.00  0.00     0.171 C 
HETATM   24  C16 UNL     1      20.052   2.472  52.391  1.00  0.00     0.034 C 
ENDBRANCH  22  23
ENDBRANCH  21  22
ENDBRANCH  13  15
ENDBRANCH   2  13
TORSDOF 8
ENDMDL
