MODEL 1
REMARK VINA RESULT:      -8.9      0.000      0.000
REMARK  2 active torsions:
REMARK  status: ('A' for Active; 'I' for Inactive)
REMARK    1  A    between atoms: C2_2  and  C3_3 
REMARK    2  A    between atoms: C4_4  and  C5_5 
ROOT
HETATM    1  C5  UNL     1      29.306  -0.868  53.773  1.00  0.00     0.059 C 
HETATM    2  C6  UNL     1      28.798  -1.995  53.379  1.00  0.00     0.221 C 
HETATM    3  O1  UNL     1      28.436  -3.142  53.074  1.00  0.00    -0.284 OA
ENDROOT
BRANCH   1   4
HETATM    4  C4  UNL     1      28.528   0.329  53.470  1.00  0.00     0.004 C 
HETATM    5  C3  UNL     1      27.324   0.502  52.965  1.00  0.00     0.026 C 
BRANCH   5   6
HETATM    6  C2  UNL     1      26.320   1.483  52.562  1.00  0.00     0.120 C 
HETATM    7  C1  UNL     1      26.134   2.483  53.682  1.00  0.00     0.068 C 
HETATM    8  N1  UNL     1      25.064   0.807  52.215  1.00  0.00    -0.360 N 
HETATM    9  C7  UNL     1      23.823   1.328  51.776  1.00  0.00     0.041 C 
HETATM   10  H7  UNL     1      25.110  -0.254  52.311  1.00  0.00     0.162 HD
HETATM   11  C8  UNL     1      22.627   0.653  52.232  1.00  0.00    -0.010 A 
HETATM   12  C14 UNL     1      23.766   2.379  50.981  1.00  0.00     0.046 C 
HETATM   13  C9  UNL     1      21.334   0.971  51.901  1.00  0.00     0.015 A 
HETATM   14  C13 UNL     1      22.717  -0.411  53.085  1.00  0.00     0.015 A 
HETATM   15  C10 UNL     1      20.199   0.335  52.340  1.00  0.00     0.020 A 
HETATM   16  C11 UNL     1      20.336  -0.730  53.197  1.00  0.00     0.011 A 
HETATM   17 BR1  UNL     1      18.790  -1.646  53.833  1.00  0.00    -0.051 Br
HETATM   18  C12 UNL     1      21.627  -1.102  53.569  1.00  0.00     0.020 A 
HETATM   19  C15 UNL     1      24.772   3.254  50.357  1.00  0.00     0.029 A 
HETATM   20  C16 UNL     1      24.212   4.214  49.547  1.00  0.00     0.133 A 
HETATM   21  C18 UNL     1      26.142   3.100  50.584  1.00  0.00     0.138 A 
HETATM   22  N2  UNL     1      25.120   5.036  48.957  1.00  0.00    -0.253 NA
HETATM   23  C17 UNL     1      26.448   4.925  49.146  1.00  0.00     0.234 A 
HETATM   24  N3  UNL     1      26.964   3.975  49.945  1.00  0.00    -0.224 NA
HETATM   25  N4  UNL     1      26.854   2.169  51.384  1.00  0.00    -0.345 N 
HETATM   26  H15 UNL     1      27.853   1.986  51.064  1.00  0.00     0.164 HD
ENDBRANCH   5   6
ENDBRANCH   1   4
TORSDOF 2
ENDMDL
MODEL 2
REMARK VINA RESULT:      -8.8      2.908      5.267
REMARK  2 active torsions:
REMARK  status: ('A' for Active; 'I' for Inactive)
REMARK    1  A    between atoms: C2_2  and  C3_3 
REMARK    2  A    between atoms: C4_4  and  C5_5 
ROOT
HETATM    1  C5  UNL     1      25.957   6.020  48.752  1.00  0.00     0.059 C 
HETATM    2  C6  UNL     1      25.992   7.007  49.594  1.00  0.00     0.221 C 
HETATM    3  O1  UNL     1      25.971   8.040  50.280  1.00  0.00    -0.284 OA
ENDROOT
BRANCH   1   4
HETATM    4  C4  UNL     1      26.312   4.708  49.283  1.00  0.00     0.004 C 
HETATM    5  C3  UNL     1      25.873   4.020  50.318  1.00  0.00     0.026 C 
BRANCH   5   6
HETATM    6  C2  UNL     1      26.000   2.778  51.075  1.00  0.00     0.120 C 
HETATM    7  C1  UNL     1      26.350   1.657  50.122  1.00  0.00     0.068 C 
HETATM    8  N1  UNL     1      24.758   2.505  51.811  1.00  0.00    -0.360 N 
HETATM    9  C7  UNL     1      24.406   1.435  52.667  1.00  0.00     0.041 C 
HETATM   10  H7  UNL     1      24.007   3.248  51.669  1.00  0.00     0.162 HD
HETATM   11  C8  UNL     1      23.030   0.986  52.628  1.00  0.00    -0.010 A 
HETATM   12  C14 UNL     1      25.294   0.879  53.468  1.00  0.00     0.046 C 
HETATM   13  C9  UNL     1      22.474  -0.007  53.394  1.00  0.00     0.015 A 
HETATM   14  C13 UNL     1      22.142   1.558  51.761  1.00  0.00     0.015 A 
HETATM   15  C10 UNL     1      21.171  -0.438  53.352  1.00  0.00     0.020 A 
HETATM   16  C11 UNL     1      20.311   0.164  52.465  1.00  0.00     0.011 A 
HETATM   17 BR1  UNL     1      18.493  -0.398  52.370  1.00  0.00    -0.051 Br
HETATM   18  C12 UNL     1      20.819   1.182  51.659  1.00  0.00     0.020 A 
HETATM   19  C15 UNL     1      26.724   1.107  53.736  1.00  0.00     0.029 A 
HETATM   20  C16 UNL     1      27.217   0.285  54.721  1.00  0.00     0.133 A 
HETATM   21  C18 UNL     1      27.471   2.065  53.047  1.00  0.00     0.138 A 
HETATM   22  N2  UNL     1      28.536   0.476  54.989  1.00  0.00    -0.253 NA
HETATM   23  C17 UNL     1      29.295   1.386  54.352  1.00  0.00     0.234 A 
HETATM   24  N3  UNL     1      28.782   2.175  53.393  1.00  0.00    -0.224 NA
HETATM   25  N4  UNL     1      27.101   2.972  52.019  1.00  0.00    -0.345 N 
HETATM   26  H15 UNL     1      27.701   3.851  51.970  1.00  0.00     0.164 HD
ENDBRANCH   5   6
ENDBRANCH   1   4
TORSDOF 2
ENDMDL
MODEL 3
REMARK VINA RESULT:      -8.5      3.219      5.561
REMARK  2 active torsions:
REMARK  status: ('A' for Active; 'I' for Inactive)
REMARK    1  A    between atoms: C2_2  and  C3_3 
REMARK    2  A    between atoms: C4_4  and  C5_5 
ROOT
HETATM    1  C5  UNL     1      23.652   6.529  51.064  1.00  0.00     0.059 C 
HETATM    2  C6  UNL     1      22.383   6.665  50.826  1.00  0.00     0.221 C 
HETATM    3  O1  UNL     1      21.196   6.950  50.609  1.00  0.00    -0.284 OA
ENDROOT
BRANCH   1   4
HETATM    4  C4  UNL     1      24.170   5.165  51.040  1.00  0.00     0.004 C 
HETATM    5  C3  UNL     1      24.181   4.203  51.940  1.00  0.00     0.026 C 
BRANCH   5   6
HETATM    6  C2  UNL     1      24.584   2.829  52.224  1.00  0.00     0.120 C 
HETATM    7  C1  UNL     1      24.882   2.126  50.918  1.00  0.00     0.068 C 
HETATM    8  N1  UNL     1      23.536   2.143  52.990  1.00  0.00    -0.360 N 
HETATM    9  C7  UNL     1      23.469   0.819  53.487  1.00  0.00     0.041 C 
HETATM   10  H7  UNL     1      22.691   2.757  53.202  1.00  0.00     0.162 HD
HETATM   11  C8  UNL     1      22.170   0.181  53.489  1.00  0.00    -0.010 A 
HETATM   12  C14 UNL     1      24.546   0.202  53.935  1.00  0.00     0.046 C 
HETATM   13  C9  UNL     1      21.880  -1.077  53.956  1.00  0.00     0.015 A 
HETATM   14  C13 UNL     1      21.080   0.833  52.986  1.00  0.00     0.015 A 
HETATM   15  C10 UNL     1      20.648  -1.684  53.951  1.00  0.00     0.020 A 
HETATM   16  C11 UNL     1      19.579  -0.993  53.435  1.00  0.00     0.011 A 
HETATM   17 BR1  UNL     1      17.850  -1.794  53.407  1.00  0.00    -0.051 Br
HETATM   18  C12 UNL     1      19.812   0.291  52.946  1.00  0.00     0.020 A 
HETATM   19  C15 UNL     1      25.965   0.572  54.067  1.00  0.00     0.029 A 
HETATM   20  C16 UNL     1      26.719  -0.417  54.653  1.00  0.00     0.133 A 
HETATM   21  C18 UNL     1      26.460   1.805  53.635  1.00  0.00     0.138 A 
HETATM   22  N2  UNL     1      28.034  -0.099  54.788  1.00  0.00    -0.253 NA
HETATM   23  C17 UNL     1      28.556   1.074  54.387  1.00  0.00     0.234 A 
HETATM   24  N3  UNL     1      27.790   2.021  53.818  1.00  0.00    -0.224 NA
HETATM   25  N4  UNL     1      25.808   2.907  53.022  1.00  0.00    -0.345 N 
HETATM   26  H15 UNL     1      26.284   3.846  53.182  1.00  0.00     0.164 HD
ENDBRANCH   5   6
ENDBRANCH   1   4
TORSDOF 2
ENDMDL
MODEL 4
REMARK VINA RESULT:      -8.2      3.851      6.309
REMARK  2 active torsions:
REMARK  status: ('A' for Active; 'I' for Inactive)
REMARK    1  A    between atoms: C2_2  and  C3_3 
REMARK    2  A    between atoms: C4_4  and  C5_5 
ROOT
HETATM    1  C5  UNL     1      19.307  -0.921  53.424  1.00  0.00     0.059 C 
HETATM    2  C6  UNL     1      18.248  -0.651  52.723  1.00  0.00     0.221 C 
HETATM    3  O1  UNL     1      17.163  -0.502  52.141  1.00  0.00    -0.284 OA
ENDROOT
BRANCH   1   4
HETATM    4  C4  UNL     1      20.490  -0.116  53.138  1.00  0.00     0.004 C 
HETATM    5  C3  UNL     1      20.762   0.759  52.193  1.00  0.00     0.026 C 
BRANCH   5   6
HETATM    6  C2  UNL     1      21.766   1.673  51.654  1.00  0.00     0.120 C 
HETATM    7  C1  UNL     1      21.971   1.365  50.188  1.00  0.00     0.068 C 
HETATM    8  N1  UNL     1      23.014   1.561  52.419  1.00  0.00    -0.360 N 
HETATM    9  C7  UNL     1      24.252   2.232  52.274  1.00  0.00     0.041 C 
HETATM   10  H7  UNL     1      22.964   0.854  53.216  1.00  0.00     0.162 HD
HETATM   11  C8  UNL     1      25.450   1.473  52.562  1.00  0.00    -0.010 A 
HETATM   12  C14 UNL     1      24.304   3.497  51.900  1.00  0.00     0.046 C 
HETATM   13  C9  UNL     1      26.741   1.938  52.517  1.00  0.00     0.015 A 
HETATM   14  C13 UNL     1      25.365   0.155  52.912  1.00  0.00     0.015 A 
HETATM   15  C10 UNL     1      27.878   1.216  52.783  1.00  0.00     0.020 A 
HETATM   16  C11 UNL     1      27.746  -0.107  53.131  1.00  0.00     0.011 A 
HETATM   17 BR1  UNL     1      29.295  -1.150  53.510  1.00  0.00    -0.051 Br
HETATM   18  C12 UNL     1      26.458  -0.636  53.194  1.00  0.00     0.020 A 
HETATM   19  C15 UNL     1      23.295   4.510  51.553  1.00  0.00     0.029 A 
HETATM   20  C16 UNL     1      23.849   5.736  51.267  1.00  0.00     0.133 A 
HETATM   21  C18 UNL     1      21.927   4.226  51.526  1.00  0.00     0.138 A 
HETATM   22  N2  UNL     1      22.937   6.691  50.944  1.00  0.00    -0.253 NA
HETATM   23  C17 UNL     1      21.612   6.464  50.906  1.00  0.00     0.234 A 
HETATM   24  N3  UNL     1      21.102   5.254  51.191  1.00  0.00    -0.224 NA
HETATM   25  N4  UNL     1      21.220   3.024  51.794  1.00  0.00    -0.345 N 
HETATM   26  H15 UNL     1      20.216   3.167  52.119  1.00  0.00     0.164 HD
ENDBRANCH   5   6
ENDBRANCH   1   4
TORSDOF 2
ENDMDL
MODEL 5
REMARK VINA RESULT:      -7.9      3.867      6.606
REMARK  2 active torsions:
REMARK  status: ('A' for Active; 'I' for Inactive)
REMARK    1  A    between atoms: C2_2  and  C3_3 
REMARK    2  A    between atoms: C4_4  and  C5_5 
ROOT
HETATM    1  C5  UNL     1      25.004   6.578  48.454  1.00  0.00     0.059 C 
HETATM    2  C6  UNL     1      26.298   6.650  48.532  1.00  0.00     0.221 C 
HETATM    3  O1  UNL     1      27.520   6.864  48.546  1.00  0.00    -0.284 OA
ENDROOT
BRANCH   1   4
HETATM    4  C4  UNL     1      24.393   5.366  48.990  1.00  0.00     0.004 C 
HETATM    5  C3  UNL     1      24.077   4.997  50.215  1.00  0.00     0.026 C 
BRANCH   5   6
HETATM    6  C2  UNL     1      23.501   3.939  51.039  1.00  0.00     0.120 C 
HETATM    7  C1  UNL     1      23.252   4.483  52.429  1.00  0.00     0.068 C 
HETATM    8  N1  UNL     1      24.390   2.771  51.058  1.00  0.00    -0.360 N 
HETATM    9  C7  UNL     1      24.264   1.522  51.711  1.00  0.00     0.041 C 
HETATM   10  H7  UNL     1      25.273   2.899  50.475  1.00  0.00     0.162 HD
HETATM   11  C8  UNL     1      25.479   0.914  52.209  1.00  0.00    -0.010 A 
HETATM   12  C14 UNL     1      23.088   0.939  51.851  1.00  0.00     0.046 C 
HETATM   13  C9  UNL     1      25.584  -0.302  52.838  1.00  0.00     0.015 A 
HETATM   14  C13 UNL     1      26.677   1.558  52.081  1.00  0.00     0.015 A 
HETATM   15  C10 UNL     1      26.736  -0.875  53.317  1.00  0.00     0.020 A 
HETATM   16  C11 UNL     1      27.919  -0.192  53.167  1.00  0.00     0.011 A 
HETATM   17 BR1  UNL     1      29.544  -0.948  53.814  1.00  0.00    -0.051 Br
HETATM   18  C12 UNL     1      27.875   1.049  52.534  1.00  0.00     0.020 A 
HETATM   19  C15 UNL     1      21.713   1.289  51.461  1.00  0.00     0.029 A 
HETATM   20  C16 UNL     1      20.802   0.314  51.791  1.00  0.00     0.133 A 
HETATM   21  C18 UNL     1      21.399   2.492  50.823  1.00  0.00     0.138 A 
HETATM   22  N2  UNL     1      19.523   0.612  51.440  1.00  0.00    -0.253 NA
HETATM   23  C17 UNL     1      19.174   1.756  50.825  1.00  0.00     0.234 A 
HETATM   24  N3  UNL     1      20.089   2.690  50.515  1.00  0.00    -0.224 NA
HETATM   25  N4  UNL     1      22.223   3.578  50.425  1.00  0.00    -0.345 N 
HETATM   26  H15 UNL     1      21.839   4.147  49.611  1.00  0.00     0.164 HD
ENDBRANCH   5   6
ENDBRANCH   1   4
TORSDOF 2
ENDMDL
MODEL 6
REMARK VINA RESULT:      -7.8      4.141      7.329
REMARK  2 active torsions:
REMARK  status: ('A' for Active; 'I' for Inactive)
REMARK    1  A    between atoms: C2_2  and  C3_3 
REMARK    2  A    between atoms: C4_4  and  C5_5 
ROOT
HETATM    1  C5  UNL     1      22.217   4.264  47.464  1.00  0.00     0.059 C 
HETATM    2  C6  UNL     1      22.921   5.298  47.806  1.00  0.00     0.221 C 
HETATM    3  O1  UNL     1      23.589   6.329  47.980  1.00  0.00    -0.284 OA
ENDROOT
BRANCH   1   4
HETATM    4  C4  UNL     1      21.807   3.376  48.548  1.00  0.00     0.004 C 
HETATM    5  C3  UNL     1      22.246   3.218  49.780  1.00  0.00     0.026 C 
BRANCH   5   6
HETATM    6  C2  UNL     1      22.079   2.481  51.029  1.00  0.00     0.120 C 
HETATM    7  C1  UNL     1      21.930   3.469  52.164  1.00  0.00     0.068 C 
HETATM    8  N1  UNL     1      23.214   1.573  51.236  1.00  0.00    -0.360 N 
HETATM    9  C7  UNL     1      23.497   0.670  52.289  1.00  0.00     0.041 C 
HETATM   10  H7  UNL     1      23.937   1.609  50.454  1.00  0.00     0.162 HD
HETATM   11  C8  UNL     1      24.886   0.509  52.663  1.00  0.00    -0.010 A 
HETATM   12  C14 UNL     1      22.534   0.002  52.894  1.00  0.00     0.046 C 
HETATM   13  C9  UNL     1      25.379  -0.334  53.627  1.00  0.00     0.015 A 
HETATM   14  C13 UNL     1      25.858   1.242  52.042  1.00  0.00     0.015 A 
HETATM   15  C10 UNL     1      26.696  -0.482  53.987  1.00  0.00     0.020 A 
HETATM   16  C11 UNL     1      27.640   0.275  53.337  1.00  0.00     0.011 A 
HETATM   17 BR1  UNL     1      29.481   0.105  53.800  1.00  0.00    -0.051 Br
HETATM   18  C12 UNL     1      27.200   1.151  52.345  1.00  0.00     0.020 A 
HETATM   19  C15 UNL     1      21.070  -0.056  52.744  1.00  0.00     0.029 A 
HETATM   20  C16 UNL     1      20.485  -0.964  53.595  1.00  0.00     0.133 A 
HETATM   21  C18 UNL     1      20.380   0.738  51.826  1.00  0.00     0.138 A 
HETATM   22  N2  UNL     1      19.133  -1.039  53.476  1.00  0.00    -0.253 NA
HETATM   23  C17 UNL     1      18.426  -0.295  52.607  1.00  0.00     0.234 A 
HETATM   24  N3  UNL     1      19.029   0.585  51.788  1.00  0.00    -0.224 NA
HETATM   25  N4  UNL     1      20.845   1.706  50.897  1.00  0.00    -0.345 N 
HETATM   26  H15 UNL     1      20.212   1.845  50.052  1.00  0.00     0.164 HD
ENDBRANCH   5   6
ENDBRANCH   1   4
TORSDOF 2
ENDMDL
MODEL 7
REMARK VINA RESULT:      -7.8      4.736      7.409
REMARK  2 active torsions:
REMARK  status: ('A' for Active; 'I' for Inactive)
REMARK    1  A    between atoms: C2_2  and  C3_3 
REMARK    2  A    between atoms: C4_4  and  C5_5 
ROOT
HETATM    1  C5  UNL     1      27.173   0.807  52.631  1.00  0.00     0.059 C 
HETATM    2  C6  UNL     1      26.755  -0.401  52.853  1.00  0.00     0.221 C 
HETATM    3  O1  UNL     1      26.457  -1.558  53.188  1.00  0.00    -0.284 OA
ENDROOT
BRANCH   1   4
HETATM    4  C4  UNL     1      26.522   1.523  51.539  1.00  0.00     0.004 C 
HETATM    5  C3  UNL     1      26.128   2.774  51.407  1.00  0.00     0.026 C 
BRANCH   5   6
HETATM    6  C2  UNL     1      25.493   3.745  50.521  1.00  0.00     0.120 C 
HETATM    7  C1  UNL     1      24.943   3.020  49.313  1.00  0.00     0.068 C 
HETATM    8  N1  UNL     1      26.454   4.790  50.144  1.00  0.00    -0.360 N 
HETATM    9  C7  UNL     1      26.308   5.926  49.314  1.00  0.00     0.041 C 
HETATM   10  H7  UNL     1      27.419   4.658  50.579  1.00  0.00     0.162 HD
HETATM   11  C8  UNL     1      27.452   6.309  48.514  1.00  0.00    -0.010 A 
HETATM   12  C14 UNL     1      25.178   6.606  49.278  1.00  0.00     0.046 C 
HETATM   13  C9  UNL     1      27.534   7.390  47.672  1.00  0.00     0.015 A 
HETATM   14  C13 UNL     1      28.597   5.564  48.545  1.00  0.00     0.015 A 
HETATM   15  C10 UNL     1      28.617   7.749  46.909  1.00  0.00     0.020 A 
HETATM   16  C11 UNL     1      29.748   6.971  46.969  1.00  0.00     0.011 A 
HETATM   17 BR1  UNL     1      31.277   7.429  45.929  1.00  0.00    -0.051 Br
HETATM   18  C12 UNL     1      29.725   5.858  47.809  1.00  0.00     0.020 A 
HETATM   19  C15 UNL     1      23.877   6.478  49.956  1.00  0.00     0.029 A 
HETATM   20  C16 UNL     1      23.002   7.484  49.622  1.00  0.00     0.133 A 
HETATM   21  C18 UNL     1      23.594   5.434  50.840  1.00  0.00     0.138 A 
HETATM   22  N2  UNL     1      21.793   7.390  50.235  1.00  0.00    -0.253 NA
HETATM   23  C17 UNL     1      21.475   6.403  51.093  1.00  0.00     0.234 A 
HETATM   24  N3  UNL     1      22.354   5.434  51.400  1.00  0.00    -0.224 NA
HETATM   25  N4  UNL     1      24.388   4.339  51.274  1.00  0.00    -0.345 N 
HETATM   26  H15 UNL     1      24.121   3.953  52.230  1.00  0.00     0.164 HD
ENDBRANCH   5   6
ENDBRANCH   1   4
TORSDOF 2
ENDMDL
MODEL 8
REMARK VINA RESULT:      -7.8      1.421      1.774
REMARK  2 active torsions:
REMARK  status: ('A' for Active; 'I' for Inactive)
REMARK    1  A    between atoms: C2_2  and  C3_3 
REMARK    2  A    between atoms: C4_4  and  C5_5 
ROOT
HETATM    1  C5  UNL     1      27.474   0.619  54.555  1.00  0.00     0.059 C 
HETATM    2  C6  UNL     1      28.175  -0.380  54.111  1.00  0.00     0.221 C 
HETATM    3  O1  UNL     1      28.935  -1.314  53.816  1.00  0.00    -0.284 OA
ENDROOT
BRANCH   1   4
HETATM    4  C4  UNL     1      26.289   0.969  53.779  1.00  0.00     0.004 C 
HETATM    5  C3  UNL     1      25.795   2.125  53.383  1.00  0.00     0.026 C 
BRANCH   5   6
HETATM    6  C2  UNL     1      24.717   2.783  52.653  1.00  0.00     0.120 C 
HETATM    7  C1  UNL     1      24.135   3.878  53.520  1.00  0.00     0.068 C 
HETATM    8  N1  UNL     1      23.701   1.800  52.254  1.00  0.00    -0.360 N 
HETATM    9  C7  UNL     1      22.489   1.959  51.542  1.00  0.00     0.041 C 
HETATM   10  H7  UNL     1      23.931   0.804  52.557  1.00  0.00     0.162 HD
HETATM   11  C8  UNL     1      21.381   1.114  51.932  1.00  0.00    -0.010 A 
HETATM   12  C14 UNL     1      22.381   2.835  50.561  1.00  0.00     0.046 C 
HETATM   13  C9  UNL     1      20.136   1.082  51.354  1.00  0.00     0.015 A 
HETATM   14  C13 UNL     1      21.512   0.240  52.975  1.00  0.00     0.015 A 
HETATM   15  C10 UNL     1      19.082   0.285  51.729  1.00  0.00     0.020 A 
HETATM   16  C11 UNL     1      19.258  -0.578  52.784  1.00  0.00     0.011 A 
HETATM   17 BR1  UNL     1      17.826  -1.705  53.341  1.00  0.00    -0.051 Br
HETATM   18  C12 UNL     1      20.502  -0.592  53.411  1.00  0.00     0.020 A 
HETATM   19  C15 UNL     1      23.300   3.805  49.942  1.00  0.00     0.029 A 
HETATM   20  C16 UNL     1      22.729   4.479  48.889  1.00  0.00     0.133 A 
HETATM   21  C18 UNL     1      24.606   3.996  50.399  1.00  0.00     0.138 A 
HETATM   22  N2  UNL     1      23.557   5.381  48.298  1.00  0.00    -0.253 NA
HETATM   23  C17 UNL     1      24.821   5.599  48.703  1.00  0.00     0.234 A 
HETATM   24  N3  UNL     1      25.350   4.922  49.737  1.00  0.00    -0.224 NA
HETATM   25  N4  UNL     1      25.320   3.381  51.461  1.00  0.00    -0.345 N 
HETATM   26  H15 UNL     1      26.378   3.377  51.336  1.00  0.00     0.164 HD
ENDBRANCH   5   6
ENDBRANCH   1   4
TORSDOF 2
ENDMDL
MODEL 9
REMARK VINA RESULT:      -7.6      7.334     10.755
REMARK  2 active torsions:
REMARK  status: ('A' for Active; 'I' for Inactive)
REMARK    1  A    between atoms: C2_2  and  C3_3 
REMARK    2  A    between atoms: C4_4  and  C5_5 
ROOT
HETATM    1  C5  UNL     1      25.164   5.425  49.428  1.00  0.00     0.059 C 
HETATM    2  C6  UNL     1      24.177   5.416  48.586  1.00  0.00     0.221 C 
HETATM    3  O1  UNL     1      23.146   5.349  47.899  1.00  0.00    -0.284 OA
ENDROOT
BRANCH   1   4
HETATM    4  C4  UNL     1      26.421   5.985  48.941  1.00  0.00     0.004 C 
HETATM    5  C3  UNL     1      26.833   7.225  48.770  1.00  0.00     0.026 C 
BRANCH   5   6
HETATM    6  C2  UNL     1      27.939   8.074  48.336  1.00  0.00     0.120 C 
HETATM    7  C1  UNL     1      27.863   8.249  46.836  1.00  0.00     0.068 C 
HETATM    8  N1  UNL     1      29.219   7.491  48.757  1.00  0.00    -0.360 N 
HETATM    9  C7  UNL     1      30.548   7.941  48.568  1.00  0.00     0.041 C 
HETATM   10  H7  UNL     1      29.115   6.577  49.296  1.00  0.00     0.162 HD
HETATM   11  C8  UNL     1      31.562   6.930  48.360  1.00  0.00    -0.010 A 
HETATM   12  C14 UNL     1      30.844   9.226  48.589  1.00  0.00     0.046 C 
HETATM   13  C9  UNL     1      32.907   7.146  48.191  1.00  0.00     0.015 A 
HETATM   14  C13 UNL     1      31.219   5.608  48.307  1.00  0.00     0.015 A 
HETATM   15  C10 UNL     1      33.868   6.186  47.986  1.00  0.00     0.020 A 
HETATM   16  C11 UNL     1      33.479   4.870  47.940  1.00  0.00     0.011 A 
HETATM   17 BR1  UNL     1      34.777   3.503  47.658  1.00  0.00    -0.051 Br
HETATM   18  C12 UNL     1      32.124   4.587  48.105  1.00  0.00     0.020 A 
HETATM   19  C15 UNL     1      30.062  10.459  48.780  1.00  0.00     0.029 A 
HETATM   20  C16 UNL     1      30.844  11.590  48.769  1.00  0.00     0.133 A 
HETATM   21  C18 UNL     1      28.676  10.448  48.952  1.00  0.00     0.138 A 
HETATM   22  N2  UNL     1      30.147  12.744  48.943  1.00  0.00    -0.253 NA
HETATM   23  C17 UNL     1      28.813  12.782  49.113  1.00  0.00     0.234 A 
HETATM   24  N3  UNL     1      28.077  11.658  49.120  1.00  0.00    -0.224 NA
HETATM   25  N4  UNL     1      27.751   9.372  48.985  1.00  0.00    -0.345 N 
HETATM   26  H15 UNL     1      26.863   9.571  49.538  1.00  0.00     0.164 HD
ENDBRANCH   5   6
ENDBRANCH   1   4
TORSDOF 2
ENDMDL
