MODEL 1
REMARK VINA RESULT:      -8.4      0.000      0.000
REMARK  3 active torsions:
REMARK  status: ('A' for Active; 'I' for Inactive)
REMARK    1  A    between atoms: C6_8  and  C7_9 
REMARK    2  A    between atoms: C7_9  and  O3_11 
REMARK    3  A    between atoms: N3_16  and  C11_17 
ROOT
HETATM    1  C1  UNL     1      21.597  -1.314  54.623  1.00  0.00     0.182 C 
HETATM    2  N1  UNL     1      23.009  -0.991  54.492  1.00  0.00    -0.254 NA
HETATM    3  C2  UNL     1      23.299  -0.084  53.589  1.00  0.00     0.261 C 
HETATM    4  O1  UNL     1      22.285   0.515  52.816  1.00  0.00    -0.277 OA
HETATM    5  C3  UNL     1      22.312   1.835  52.320  1.00  0.00     0.087 A 
HETATM    6  C4  UNL     1      21.175   2.065  51.574  1.00  0.00     0.039 A 
HETATM    7  C5  UNL     1      20.969   3.295  50.979  1.00  0.00     0.021 A 
HETATM    8  C6  UNL     1      21.954   4.265  51.173  1.00  0.00     0.038 A 
HETATM    9  C8  UNL     1      23.100   4.038  51.924  1.00  0.00     0.029 A 
HETATM   10  C9  UNL     1      23.302   2.807  52.517  1.00  0.00    -0.009 A 
HETATM   11  C10 UNL     1      24.527   2.608  53.303  1.00  0.00     0.152 C 
HETATM   12  N2  UNL     1      25.267   1.424  53.007  1.00  0.00    -0.228 NA
HETATM   13  N3  UNL     1      24.696   0.237  53.457  1.00  0.00    -0.246 N 
HETATM   14  H10 UNL     1      26.189   1.518  53.505  1.00  0.00     0.147 HD
ENDROOT
BRANCH  13  15
HETATM   15  C11 UNL     1      25.607  -0.847  53.856  1.00  0.00     0.258 C 
HETATM   16  N4  UNL     1      26.215  -0.459  55.125  1.00  0.00    -0.254 NA
HETATM   17  C12 UNL     1      27.219   0.315  55.169  1.00  0.00     0.101 C 
HETATM   18  C13 UNL     1      27.808   0.646  54.031  1.00  0.00     0.042 C 
HETATM   19 BR1  UNL     1      28.729   2.274  53.666  1.00  0.00    -0.049 Br
HETATM   20  C14 UNL     1      27.724  -0.372  52.961  1.00  0.00     0.028 C 
HETATM   21  C15 UNL     1      26.628  -1.143  52.843  1.00  0.00    -0.037 C 
HETATM   22  C16 UNL     1      26.606  -2.148  51.747  1.00  0.00     0.048 C 
ENDBRANCH  13  15
BRANCH   8  23
HETATM   23  C7  UNL     1      21.874   5.613  50.606  1.00  0.00     0.176 C 
HETATM   24  O2  UNL     1      21.777   5.912  49.385  1.00  0.00    -0.646 OA
BRANCH  23  25
HETATM   25  O3  UNL     1      21.906   6.677  51.502  1.00  0.00    -0.773 OA
HETATM   26  H6  UNL     1      21.051   6.966  51.972  1.00  0.00     0.167 HD
ENDBRANCH  23  25
ENDBRANCH   8  23
TORSDOF 3
ENDMDL
MODEL 2
REMARK VINA RESULT:      -7.9      3.511      6.855
REMARK  3 active torsions:
REMARK  status: ('A' for Active; 'I' for Inactive)
REMARK    1  A    between atoms: C6_8  and  C7_9 
REMARK    2  A    between atoms: C7_9  and  O3_11 
REMARK    3  A    between atoms: N3_16  and  C11_17 
ROOT
HETATM    1  C1  UNL     1      23.993   5.078  53.348  1.00  0.00     0.182 C 
HETATM    2  N1  UNL     1      23.202   3.978  52.821  1.00  0.00    -0.254 NA
HETATM    3  C2  UNL     1      23.885   2.924  52.438  1.00  0.00     0.261 C 
HETATM    4  O1  UNL     1      25.290   2.897  52.544  1.00  0.00    -0.277 OA
HETATM    5  C3  UNL     1      26.066   1.744  52.783  1.00  0.00     0.087 A 
HETATM    6  C4  UNL     1      27.402   2.086  52.783  1.00  0.00     0.039 A 
HETATM    7  C5  UNL     1      28.368   1.121  52.998  1.00  0.00     0.021 A 
HETATM    8  C6  UNL     1      27.923  -0.185  53.208  1.00  0.00     0.038 A 
HETATM    9  C8  UNL     1      26.579  -0.533  53.210  1.00  0.00     0.029 A 
HETATM   10  C9  UNL     1      25.617   0.434  52.995  1.00  0.00    -0.009 A 
HETATM   11  C10 UNL     1      24.205   0.023  53.005  1.00  0.00     0.152 C 
HETATM   12  N2  UNL     1      23.421   0.479  51.903  1.00  0.00    -0.228 NA
HETATM   13  N3  UNL     1      23.105   1.834  51.915  1.00  0.00    -0.246 N 
HETATM   14  H10 UNL     1      22.508  -0.041  51.955  1.00  0.00     0.147 HD
ENDROOT
BRANCH  13  15
HETATM   15  C11 UNL     1      21.817   2.237  51.329  1.00  0.00     0.258 C 
HETATM   16  N4  UNL     1      20.930   2.593  52.433  1.00  0.00    -0.254 NA
HETATM   17  C12 UNL     1      20.287   1.709  53.077  1.00  0.00     0.101 C 
HETATM   18  C13 UNL     1      20.314   0.463  52.633  1.00  0.00     0.042 C 
HETATM   19 BR1  UNL     1      20.171  -1.117  53.689  1.00  0.00    -0.049 Br
HETATM   20  C14 UNL     1      20.471   0.321  51.169  1.00  0.00     0.028 C 
HETATM   21  C15 UNL     1      21.222   1.199  50.480  1.00  0.00    -0.037 C 
HETATM   22  C16 UNL     1      21.338   1.001  49.010  1.00  0.00     0.048 C 
ENDBRANCH  13  15
BRANCH   8  23
HETATM   23  C7  UNL     1      28.828  -1.311  53.449  1.00  0.00     0.176 C 
HETATM   24  O2  UNL     1      28.541  -2.537  53.381  1.00  0.00    -0.646 OA
BRANCH  23  25
HETATM   25  O3  UNL     1      30.142  -1.003  53.787  1.00  0.00    -0.773 OA
HETATM   26  H6  UNL     1      30.342  -0.155  54.314  1.00  0.00     0.167 HD
ENDBRANCH  23  25
ENDBRANCH   8  23
TORSDOF 3
ENDMDL
MODEL 3
REMARK VINA RESULT:      -7.8      3.396      6.383
REMARK  3 active torsions:
REMARK  status: ('A' for Active; 'I' for Inactive)
REMARK    1  A    between atoms: C6_8  and  C7_9 
REMARK    2  A    between atoms: C7_9  and  O3_11 
REMARK    3  A    between atoms: N3_16  and  C11_17 
ROOT
HETATM    1  C1  UNL     1      21.589  -1.736  53.945  1.00  0.00     0.182 C 
HETATM    2  N1  UNL     1      21.523  -0.559  53.093  1.00  0.00    -0.254 NA
HETATM    3  C2  UNL     1      22.564   0.238  53.150  1.00  0.00     0.261 C 
HETATM    4  O1  UNL     1      23.655  -0.057  53.994  1.00  0.00    -0.277 OA
HETATM    5  C3  UNL     1      24.999   0.279  53.733  1.00  0.00     0.087 A 
HETATM    6  C4  UNL     1      25.784  -0.130  54.791  1.00  0.00     0.039 A 
HETATM    7  C5  UNL     1      27.148   0.089  54.772  1.00  0.00     0.021 A 
HETATM    8  C6  UNL     1      27.671   0.731  53.648  1.00  0.00     0.038 A 
HETATM    9  C8  UNL     1      26.884   1.143  52.580  1.00  0.00     0.029 A 
HETATM   10  C9  UNL     1      25.521   0.923  52.603  1.00  0.00    -0.009 A 
HETATM   11  C10 UNL     1      24.725   1.374  51.453  1.00  0.00     0.152 C 
HETATM   12  N2  UNL     1      23.557   2.132  51.769  1.00  0.00    -0.228 NA
HETATM   13  N3  UNL     1      22.502   1.404  52.309  1.00  0.00    -0.246 N 
HETATM   14  H10 UNL     1      23.209   2.531  50.860  1.00  0.00     0.147 HD
ENDROOT
BRANCH  13  15
HETATM   15  C11 UNL     1      21.136   1.856  52.000  1.00  0.00     0.258 C 
HETATM   16  N4  UNL     1      20.557   0.888  51.074  1.00  0.00    -0.254 NA
HETATM   17  C12 UNL     1      20.789   0.944  49.827  1.00  0.00     0.101 C 
HETATM   18  C13 UNL     1      21.445   1.993  49.357  1.00  0.00     0.042 C 
HETATM   19 BR1  UNL     1      22.584   2.021  47.829  1.00  0.00    -0.049 Br
HETATM   20  C14 UNL     1      21.250   3.248  50.115  1.00  0.00     0.028 C 
HETATM   21  C15 UNL     1      21.091   3.216  51.450  1.00  0.00    -0.037 C 
HETATM   22  C16 UNL     1      20.898   4.512  52.152  1.00  0.00     0.048 C 
ENDBRANCH  13  15
BRANCH   8  23
HETATM   23  C7  UNL     1      29.095   1.030  53.485  1.00  0.00     0.176 C 
HETATM   24  O2  UNL     1      30.045   0.201  53.493  1.00  0.00    -0.646 OA
BRANCH  23  25
HETATM   25  O3  UNL     1      29.442   2.365  53.300  1.00  0.00    -0.773 OA
HETATM   26  H6  UNL     1      29.528   2.738  52.357  1.00  0.00     0.167 HD
ENDBRANCH  23  25
ENDBRANCH   8  23
TORSDOF 3
ENDMDL
MODEL 4
REMARK VINA RESULT:      -7.7      3.673      7.123
REMARK  3 active torsions:
REMARK  status: ('A' for Active; 'I' for Inactive)
REMARK    1  A    between atoms: C6_8  and  C7_9 
REMARK    2  A    between atoms: C7_9  and  O3_11 
REMARK    3  A    between atoms: N3_16  and  C11_17 
ROOT
HETATM    1  C1  UNL     1      23.936   6.046  51.555  1.00  0.00     0.182 C 
HETATM    2  N1  UNL     1      22.892   5.058  51.334  1.00  0.00    -0.254 NA
HETATM    3  C2  UNL     1      23.304   3.817  51.223  1.00  0.00     0.261 C 
HETATM    4  O1  UNL     1      24.674   3.499  51.316  1.00  0.00    -0.277 OA
HETATM    5  C3  UNL     1      25.198   2.295  51.832  1.00  0.00     0.087 A 
HETATM    6  C4  UNL     1      26.573   2.316  51.729  1.00  0.00     0.039 A 
HETATM    7  C5  UNL     1      27.320   1.241  52.170  1.00  0.00     0.021 A 
HETATM    8  C6  UNL     1      26.619   0.161  52.711  1.00  0.00     0.038 A 
HETATM    9  C8  UNL     1      25.235   0.137  52.816  1.00  0.00     0.029 A 
HETATM   10  C9  UNL     1      24.492   1.214  52.374  1.00  0.00    -0.009 A 
HETATM   11  C10 UNL     1      23.029   1.148  52.505  1.00  0.00     0.152 C 
HETATM   12  N2  UNL     1      22.288   1.484  51.332  1.00  0.00    -0.228 NA
HETATM   13  N3  UNL     1      22.273   2.837  51.004  1.00  0.00    -0.246 N 
HETATM   14  H10 UNL     1      21.290   1.214  51.525  1.00  0.00     0.147 HD
ENDROOT
BRANCH  13  15
HETATM   15  C11 UNL     1      21.066   3.364  50.350  1.00  0.00     0.258 C 
HETATM   16  N4  UNL     1      20.110   3.693  51.403  1.00  0.00    -0.254 NA
HETATM   17  C12 UNL     1      19.364   2.807  51.921  1.00  0.00     0.101 C 
HETATM   18  C13 UNL     1      19.357   1.599  51.383  1.00  0.00     0.042 C 
HETATM   19 BR1  UNL     1      19.033  -0.043  52.295  1.00  0.00    -0.049 Br
HETATM   20  C14 UNL     1      19.629   1.556  49.929  1.00  0.00     0.028 C 
HETATM   21  C15 UNL     1      20.486   2.432  49.375  1.00  0.00    -0.037 C 
HETATM   22  C16 UNL     1      20.715   2.338  47.909  1.00  0.00     0.048 C 
ENDBRANCH  13  15
BRANCH   8  23
HETATM   23  C7  UNL     1      27.274  -1.046  53.219  1.00  0.00     0.176 C 
HETATM   24  O2  UNL     1      27.089  -2.228  52.823  1.00  0.00    -0.646 OA
BRANCH  23  25
HETATM   25  O3  UNL     1      28.199  -0.877  54.245  1.00  0.00    -0.773 OA
HETATM   26  H6  UNL     1      28.973  -1.531  54.339  1.00  0.00     0.167 HD
ENDBRANCH  23  25
ENDBRANCH   8  23
TORSDOF 3
ENDMDL
MODEL 5
REMARK VINA RESULT:      -7.7      3.576      6.752
REMARK  3 active torsions:
REMARK  status: ('A' for Active; 'I' for Inactive)
REMARK    1  A    between atoms: C6_8  and  C7_9 
REMARK    2  A    between atoms: C7_9  and  O3_11 
REMARK    3  A    between atoms: N3_16  and  C11_17 
ROOT
HETATM    1  C1  UNL     1      21.722   0.239  51.104  1.00  0.00     0.182 C 
HETATM    2  N1  UNL     1      22.204   1.440  50.440  1.00  0.00    -0.254 NA
HETATM    3  C2  UNL     1      23.232   2.025  51.008  1.00  0.00     0.261 C 
HETATM    4  O1  UNL     1      23.806   1.497  52.183  1.00  0.00    -0.277 OA
HETATM    5  C3  UNL     1      25.169   1.585  52.534  1.00  0.00     0.087 A 
HETATM    6  C4  UNL     1      25.360   0.995  53.766  1.00  0.00     0.039 A 
HETATM    7  C5  UNL     1      26.621   0.955  54.330  1.00  0.00     0.021 A 
HETATM    8  C6  UNL     1      27.661   1.531  53.599  1.00  0.00     0.038 A 
HETATM    9  C8  UNL     1      27.472   2.125  52.358  1.00  0.00     0.029 A 
HETATM   10  C9  UNL     1      26.211   2.164  51.797  1.00  0.00    -0.009 A 
HETATM   11  C10 UNL     1      26.054   2.802  50.483  1.00  0.00     0.152 C 
HETATM   12  N2  UNL     1      24.994   3.752  50.379  1.00  0.00    -0.228 NA
HETATM   13  N3  UNL     1      23.711   3.215  50.354  1.00  0.00    -0.246 N 
HETATM   14  H10 UNL     1      25.128   4.245  49.459  1.00  0.00     0.147 HD
ENDROOT
BRANCH  13  15
HETATM   15  C11 UNL     1      22.691   3.926  49.569  1.00  0.00     0.258 C 
HETATM   16  N4  UNL     1      23.370   4.547  48.436  1.00  0.00    -0.254 NA
HETATM   17  C12 UNL     1      23.966   5.661  48.551  1.00  0.00     0.101 C 
HETATM   18  C13 UNL     1      23.832   6.332  49.684  1.00  0.00     0.042 C 
HETATM   19 BR1  UNL     1      25.113   7.514  50.455  1.00  0.00    -0.049 Br
HETATM   20  C14 UNL     1      22.551   6.119  50.393  1.00  0.00     0.028 C 
HETATM   21  C15 UNL     1      21.948   4.918  50.355  1.00  0.00    -0.037 C 
HETATM   22  C16 UNL     1      20.662   4.770  51.087  1.00  0.00     0.048 C 
ENDBRANCH  13  15
BRANCH   8  23
HETATM   23  C7  UNL     1      29.048   1.564  54.067  1.00  0.00     0.176 C 
HETATM   24  O2  UNL     1      29.513   2.274  54.999  1.00  0.00    -0.646 OA
BRANCH  23  25
HETATM   25  O3  UNL     1      29.952   0.725  53.421  1.00  0.00    -0.773 OA
HETATM   26  H6  UNL     1      29.941   0.658  52.406  1.00  0.00     0.167 HD
ENDBRANCH  23  25
ENDBRANCH   8  23
TORSDOF 3
ENDMDL
MODEL 6
REMARK VINA RESULT:      -7.6      4.578      6.748
REMARK  3 active torsions:
REMARK  status: ('A' for Active; 'I' for Inactive)
REMARK    1  A    between atoms: C6_8  and  C7_9 
REMARK    2  A    between atoms: C7_9  and  O3_11 
REMARK    3  A    between atoms: N3_16  and  C11_17 
ROOT
HETATM    1  C1  UNL     1      21.585   7.437  50.438  1.00  0.00     0.182 C 
HETATM    2  N1  UNL     1      21.757   5.994  50.464  1.00  0.00    -0.254 NA
HETATM    3  C2  UNL     1      22.798   5.538  49.808  1.00  0.00     0.261 C 
HETATM    4  O1  UNL     1      23.670   6.417  49.133  1.00  0.00    -0.277 OA
HETATM    5  C3  UNL     1      25.053   6.212  48.952  1.00  0.00     0.087 A 
HETATM    6  C4  UNL     1      25.575   7.254  48.214  1.00  0.00     0.039 A 
HETATM    7  C5  UNL     1      26.921   7.281  47.903  1.00  0.00     0.021 A 
HETATM    8  C6  UNL     1      27.700   6.220  48.367  1.00  0.00     0.038 A 
HETATM    9  C8  UNL     1      27.178   5.169  49.110  1.00  0.00     0.029 A 
HETATM   10  C9  UNL     1      25.833   5.146  49.420  1.00  0.00    -0.009 A 
HETATM   11  C10 UNL     1      25.321   4.016  50.209  1.00  0.00     0.152 C 
HETATM   12  N2  UNL     1      24.150   3.383  49.695  1.00  0.00    -0.228 NA
HETATM   13  N3  UNL     1      22.971   4.109  49.830  1.00  0.00    -0.246 N 
HETATM   14  H10 UNL     1      24.022   2.500  50.252  1.00  0.00     0.147 HD
ENDROOT
BRANCH  13  15
HETATM   15  C11 UNL     1      21.725   3.351  50.025  1.00  0.00     0.258 C 
HETATM   16  N4  UNL     1      21.348   3.488  51.428  1.00  0.00    -0.254 NA
HETATM   17  C12 UNL     1      21.860   2.752  52.326  1.00  0.00     0.101 C 
HETATM   18  C13 UNL     1      22.633   1.747  51.949  1.00  0.00     0.042 C 
HETATM   19 BR1  UNL     1      24.092   1.014  52.933  1.00  0.00    -0.049 Br
HETATM   20  C14 UNL     1      22.304   1.160  50.632  1.00  0.00     0.028 C 
HETATM   21  C15 UNL     1      21.843   1.940  49.638  1.00  0.00    -0.037 C 
HETATM   22  C16 UNL     1      21.530   1.288  48.339  1.00  0.00     0.048 C 
ENDBRANCH  13  15
BRANCH   8  23
HETATM   23  C7  UNL     1      29.139   6.112  48.116  1.00  0.00     0.176 C 
HETATM   24  O2  UNL     1      29.767   6.568  47.122  1.00  0.00    -0.646 OA
BRANCH  23  25
HETATM   25  O3  UNL     1      29.897   5.440  49.070  1.00  0.00    -0.773 OA
HETATM   26  H6  UNL     1      29.796   4.432  49.176  1.00  0.00     0.167 HD
ENDBRANCH  23  25
ENDBRANCH   8  23
TORSDOF 3
ENDMDL
MODEL 7
REMARK VINA RESULT:      -7.4      3.809      7.032
REMARK  3 active torsions:
REMARK  status: ('A' for Active; 'I' for Inactive)
REMARK    1  A    between atoms: C6_8  and  C7_9 
REMARK    2  A    between atoms: C7_9  and  O3_11 
REMARK    3  A    between atoms: N3_16  and  C11_17 
ROOT
HETATM    1  C1  UNL     1      17.629  -0.542  51.536  1.00  0.00     0.182 C 
HETATM    2  N1  UNL     1      18.439   0.467  50.874  1.00  0.00    -0.254 NA
HETATM    3  C2  UNL     1      19.550   0.794  51.492  1.00  0.00     0.261 C 
HETATM    4  O1  UNL     1      19.901   0.187  52.715  1.00  0.00    -0.277 OA
HETATM    5  C3  UNL     1      21.220  -0.060  53.151  1.00  0.00     0.087 A 
HETATM    6  C4  UNL     1      21.184  -0.628  54.408  1.00  0.00     0.039 A 
HETATM    7  C5  UNL     1      22.359  -0.964  55.053  1.00  0.00     0.021 A 
HETATM    8  C6  UNL     1      23.551  -0.703  54.376  1.00  0.00     0.038 A 
HETATM    9  C8  UNL     1      23.590  -0.132  53.111  1.00  0.00     0.029 A 
HETATM   10  C9  UNL     1      22.415   0.203  52.469  1.00  0.00    -0.009 A 
HETATM   11  C10 UNL     1      22.501   0.804  51.130  1.00  0.00     0.152 C 
HETATM   12  N2  UNL     1      21.728   1.988  50.933  1.00  0.00    -0.228 NA
HETATM   13  N3  UNL     1      20.353   1.794  50.840  1.00  0.00    -0.246 N 
HETATM   14  H10 UNL     1      22.035   2.392  50.012  1.00  0.00     0.147 HD
ENDROOT
BRANCH  13  15
HETATM   15  C11 UNL     1      19.595   2.709  49.972  1.00  0.00     0.258 C 
HETATM   16  N4  UNL     1      20.499   3.154  48.916  1.00  0.00    -0.254 NA
HETATM   17  C12 UNL     1      21.315   4.108  49.101  1.00  0.00     0.101 C 
HETATM   18  C13 UNL     1      21.227   4.801  50.225  1.00  0.00     0.042 C 
HETATM   19 BR1  UNL     1      22.660   5.674  51.128  1.00  0.00    -0.049 Br
HETATM   20  C14 UNL     1      19.871   4.884  50.808  1.00  0.00     0.028 C 
HETATM   21  C15 UNL     1      19.021   3.847  50.699  1.00  0.00    -0.037 C 
HETATM   22  C16 UNL     1      17.671   3.996  51.305  1.00  0.00     0.048 C 
ENDBRANCH  13  15
BRANCH   8  23
HETATM   23  C7  UNL     1      24.871  -1.005  54.932  1.00  0.00     0.176 C 
HETATM   24  O2  UNL     1      25.977  -0.940  54.328  1.00  0.00    -0.646 OA
BRANCH  23  25
HETATM   25  O3  UNL     1      24.919  -1.404  56.264  1.00  0.00    -0.773 OA
HETATM   26  H6  UNL     1      24.174  -1.126  56.901  1.00  0.00     0.167 HD
ENDBRANCH  23  25
ENDBRANCH   8  23
TORSDOF 3
ENDMDL
MODEL 8
REMARK VINA RESULT:      -7.2      7.199      9.159
REMARK  3 active torsions:
REMARK  status: ('A' for Active; 'I' for Inactive)
REMARK    1  A    between atoms: C6_8  and  C7_9 
REMARK    2  A    between atoms: C7_9  and  O3_11 
REMARK    3  A    between atoms: N3_16  and  C11_17 
ROOT
HETATM    1  C1  UNL     1      25.886   8.719  45.886  1.00  0.00     0.182 C 
HETATM    2  N1  UNL     1      27.235   8.456  46.362  1.00  0.00    -0.254 NA
HETATM    3  C2  UNL     1      27.318   7.707  47.436  1.00  0.00     0.261 C 
HETATM    4  O1  UNL     1      26.157   7.209  48.062  1.00  0.00    -0.277 OA
HETATM    5  C3  UNL     1      26.067   5.982  48.752  1.00  0.00     0.087 A 
HETATM    6  C4  UNL     1      24.795   5.842  49.267  1.00  0.00     0.039 A 
HETATM    7  C5  UNL     1      24.457   4.714  49.990  1.00  0.00     0.021 A 
HETATM    8  C6  UNL     1      25.453   3.751  50.164  1.00  0.00     0.038 A 
HETATM    9  C8  UNL     1      26.734   3.889  49.646  1.00  0.00     0.029 A 
HETATM   10  C9  UNL     1      27.068   5.017  48.925  1.00  0.00    -0.009 A 
HETATM   11  C10 UNL     1      28.435   5.124  48.394  1.00  0.00     0.152 C 
HETATM   12  N2  UNL     1      29.104   6.358  48.651  1.00  0.00    -0.228 NA
HETATM   13  N3  UNL     1      28.652   7.447  47.911  1.00  0.00    -0.246 N 
HETATM   14  H10 UNL     1      30.110   6.212  48.381  1.00  0.00     0.147 HD
ENDROOT
BRANCH  13  15
HETATM   15  C11 UNL     1      29.636   8.478  47.549  1.00  0.00     0.258 C 
HETATM   16  N4  UNL     1      30.303   8.034  46.329  1.00  0.00    -0.254 NA
HETATM   17  C12 UNL     1      31.271   7.215  46.365  1.00  0.00     0.101 C 
HETATM   18  C13 UNL     1      31.771   6.883  47.544  1.00  0.00     0.042 C 
HETATM   19 BR1  UNL     1      32.590   5.223  47.998  1.00  0.00    -0.049 Br
HETATM   20  C14 UNL     1      31.667   7.928  48.587  1.00  0.00     0.028 C 
HETATM   21  C15 UNL     1      30.604   8.750  48.619  1.00  0.00    -0.037 C 
HETATM   22  C16 UNL     1      30.561   9.779  49.691  1.00  0.00     0.048 C 
ENDBRANCH  13  15
BRANCH   8  23
HETATM   23  C7  UNL     1      25.243   2.506  50.905  1.00  0.00     0.176 C 
HETATM   24  O2  UNL     1      24.135   2.013  51.252  1.00  0.00    -0.646 OA
BRANCH  23  25
HETATM   25  O3  UNL     1      26.379   1.787  51.265  1.00  0.00    -0.773 OA
HETATM   26  H6  UNL     1      26.942   2.096  52.054  1.00  0.00     0.167 HD
ENDBRANCH  23  25
ENDBRANCH   8  23
TORSDOF 3
ENDMDL
MODEL 9
REMARK VINA RESULT:      -7.1      4.015      7.267
REMARK  3 active torsions:
REMARK  status: ('A' for Active; 'I' for Inactive)
REMARK    1  A    between atoms: C6_8  and  C7_9 
REMARK    2  A    between atoms: C7_9  and  O3_11 
REMARK    3  A    between atoms: N3_16  and  C11_17 
ROOT
HETATM    1  C1  UNL     1      26.350   3.953  50.249  1.00  0.00     0.182 C 
HETATM    2  N1  UNL     1      24.948   4.212  49.959  1.00  0.00    -0.254 NA
HETATM    3  C2  UNL     1      24.110   3.280  50.350  1.00  0.00     0.261 C 
HETATM    4  O1  UNL     1      24.573   2.120  51.003  1.00  0.00    -0.277 OA
HETATM    5  C3  UNL     1      23.860   1.398  51.982  1.00  0.00     0.087 A 
HETATM    6  C4  UNL     1      24.601   0.300  52.368  1.00  0.00     0.039 A 
HETATM    7  C5  UNL     1      24.111  -0.569  53.325  1.00  0.00     0.021 A 
HETATM    8  C6  UNL     1      22.856  -0.278  53.862  1.00  0.00     0.038 A 
HETATM    9  C8  UNL     1      22.108   0.826  53.476  1.00  0.00     0.029 A 
HETATM   10  C9  UNL     1      22.600   1.692  52.520  1.00  0.00    -0.009 A 
HETATM   11  C10 UNL     1      21.776   2.849  52.140  1.00  0.00     0.152 C 
HETATM   12  N2  UNL     1      21.604   3.052  50.738  1.00  0.00    -0.228 NA
HETATM   13  N3  UNL     1      22.723   3.532  50.063  1.00  0.00    -0.246 N 
HETATM   14  H10 UNL     1      20.857   3.785  50.634  1.00  0.00     0.147 HD
ENDROOT
BRANCH  13  15
HETATM   15  C11 UNL     1      22.493   4.413  48.907  1.00  0.00     0.258 C 
HETATM   16  N4  UNL     1      21.973   5.676  49.420  1.00  0.00    -0.254 NA
HETATM   17  C12 UNL     1      20.743   5.823  49.696  1.00  0.00     0.101 C 
HETATM   18  C13 UNL     1      19.905   4.855  49.364  1.00  0.00     0.042 C 
HETATM   19 BR1  UNL     1      18.288   4.402  50.266  1.00  0.00    -0.049 Br
HETATM   20  C14 UNL     1      20.291   4.071  48.171  1.00  0.00     0.028 C 
HETATM   21  C15 UNL     1      21.588   3.828  47.910  1.00  0.00    -0.037 C 
HETATM   22  C16 UNL     1      21.910   3.035  46.695  1.00  0.00     0.048 C 
ENDBRANCH  13  15
BRANCH   8  23
HETATM   23  C7  UNL     1      22.210  -1.106  54.882  1.00  0.00     0.176 C 
HETATM   24  O2  UNL     1      22.782  -1.858  55.716  1.00  0.00    -0.646 OA
BRANCH  23  25
HETATM   25  O3  UNL     1      20.820  -1.061  54.943  1.00  0.00    -0.773 OA
HETATM   26  H6  UNL     1      20.289  -1.928  54.994  1.00  0.00     0.167 HD
ENDBRANCH  23  25
ENDBRANCH   8  23
TORSDOF 3
ENDMDL
