MODEL 1
REMARK VINA RESULT:      -8.6      0.000      0.000
REMARK  3 active torsions:
REMARK  status: ('A' for Active; 'I' for Inactive)
REMARK    1  A    between atoms: C4_5  and  C5_6 
REMARK    2  A    between atoms: C7_8  and  C8_9 
REMARK    3  A    between atoms: N2_16  and  C14_17 
ROOT
HETATM    1  C5  UNL     1      23.928   1.023  53.279  1.00  0.00     0.151 C 
HETATM    2  C6  UNL     1      24.934   0.056  52.669  1.00  0.00     0.094 C 
HETATM    3  C7  UNL     1      26.193   0.811  53.008  1.00  0.00     0.067 C 
HETATM    4  N1  UNL     1      25.879   2.066  53.092  1.00  0.00    -0.173 NA
HETATM    5  N2  UNL     1      24.516   2.270  52.846  1.00  0.00    -0.235 N 
ENDROOT
BRANCH   1   6
HETATM    6  C4  UNL     1      22.587   0.755  52.726  1.00  0.00    -0.033 A 
HETATM    7  C3  UNL     1      22.256   0.728  51.386  1.00  0.00     0.012 A 
HETATM    8  C2  UNL     1      20.963   0.465  50.979  1.00  0.00     0.043 A 
HETATM    9  C1  UNL     1      19.967   0.222  51.912  1.00  0.00     0.116 A 
HETATM   10  F1  UNL     1      18.700  -0.034  51.488  1.00  0.00    -0.206 F 
HETATM   11  C17 UNL     1      20.268   0.243  53.255  1.00  0.00     0.043 A 
HETATM   12  C16 UNL     1      21.564   0.507  53.625  1.00  0.00     0.012 A 
ENDBRANCH   1   6
BRANCH   5  13
HETATM   13  C14 UNL     1      24.057   3.496  52.296  1.00  0.00     0.213 C 
HETATM   14  N3  UNL     1      23.335   4.460  52.727  1.00  0.00    -0.105 NA
HETATM   15  O1  UNL     1      23.098   5.486  51.910  1.00  0.00    -0.244 OA
HETATM   16  C15 UNL     1      24.067   5.749  50.918  1.00  0.00     0.286 C 
HETATM   17  S1  UNL     1      24.511   3.981  50.604  1.00  0.00    -0.059 SA
ENDBRANCH   5  13
BRANCH   3  18
HETATM   18  C8  UNL     1      27.492   0.172  53.190  1.00  0.00    -0.010 A 
HETATM   19  C9  UNL     1      28.615   0.896  53.547  1.00  0.00     0.013 A 
HETATM   20  C10 UNL     1      29.835   0.261  53.712  1.00  0.00     0.001 A 
HETATM   21  C11 UNL     1      29.900  -1.112  53.512  1.00  0.00     0.000 A 
HETATM   22  C12 UNL     1      28.773  -1.830  53.155  1.00  0.00     0.001 A 
HETATM   23  C13 UNL     1      27.549  -1.212  52.986  1.00  0.00     0.013 A 
ENDBRANCH   3  18
TORSDOF 3
ENDMDL
MODEL 2
REMARK VINA RESULT:      -8.5      2.932      4.077
REMARK  3 active torsions:
REMARK  status: ('A' for Active; 'I' for Inactive)
REMARK    1  A    between atoms: C4_5  and  C5_6 
REMARK    2  A    between atoms: C7_8  and  C8_9 
REMARK    3  A    between atoms: N2_16  and  C14_17 
ROOT
HETATM    1  C5  UNL     1      24.476   1.355  51.727  1.00  0.00     0.151 C 
HETATM    2  C6  UNL     1      25.740   1.635  52.529  1.00  0.00     0.094 C 
HETATM    3  C7  UNL     1      26.107   0.213  52.860  1.00  0.00     0.067 C 
HETATM    4  N1  UNL     1      25.010  -0.479  52.859  1.00  0.00    -0.173 NA
HETATM    5  N2  UNL     1      23.901   0.321  52.558  1.00  0.00    -0.235 N 
ENDROOT
BRANCH   1   6
HETATM    6  C4  UNL     1      23.667   2.585  51.634  1.00  0.00    -0.033 A 
HETATM    7  C3  UNL     1      22.755   2.878  50.640  1.00  0.00     0.012 A 
HETATM    8  C2  UNL     1      22.050   4.065  50.651  1.00  0.00     0.043 A 
HETATM    9  C1  UNL     1      22.244   4.990  51.665  1.00  0.00     0.116 A 
HETATM   10  F1  UNL     1      21.538   6.153  51.656  1.00  0.00    -0.206 F 
HETATM   11  C17 UNL     1      23.148   4.724  52.669  1.00  0.00     0.043 A 
HETATM   12  C16 UNL     1      23.832   3.535  52.628  1.00  0.00     0.012 A 
ENDBRANCH   1   6
BRANCH   5  13
HETATM   13  C14 UNL     1      22.615  -0.005  53.063  1.00  0.00     0.213 C 
HETATM   14  N3  UNL     1      21.415   0.207  52.673  1.00  0.00    -0.105 NA
HETATM   15  O1  UNL     1      20.417  -0.259  53.421  1.00  0.00    -0.244 OA
HETATM   16  C15 UNL     1      20.686  -1.399  54.208  1.00  0.00     0.286 C 
HETATM   17  S1  UNL     1      22.438  -0.954  54.604  1.00  0.00    -0.059 SA
ENDBRANCH   5  13
BRANCH   3  18
HETATM   18  C8  UNL     1      27.473  -0.228  53.123  1.00  0.00    -0.010 A 
HETATM   19  C9  UNL     1      27.842  -1.556  53.018  1.00  0.00     0.013 A 
HETATM   20  C10 UNL     1      29.147  -1.944  53.274  1.00  0.00     0.001 A 
HETATM   21  C11 UNL     1      30.068  -0.970  53.636  1.00  0.00     0.000 A 
HETATM   22  C12 UNL     1      29.693   0.357  53.740  1.00  0.00     0.001 A 
HETATM   23  C13 UNL     1      28.396   0.760  53.488  1.00  0.00     0.013 A 
ENDBRANCH   3  18
TORSDOF 3
ENDMDL
MODEL 3
REMARK VINA RESULT:      -8.4      3.320      6.498
REMARK  3 active torsions:
REMARK  status: ('A' for Active; 'I' for Inactive)
REMARK    1  A    between atoms: C4_5  and  C5_6 
REMARK    2  A    between atoms: C7_8  and  C8_9 
REMARK    3  A    between atoms: N2_16  and  C14_17 
ROOT
HETATM    1  C5  UNL     1      24.410   2.839  52.189  1.00  0.00     0.151 C 
HETATM    2  C6  UNL     1      23.483   1.780  51.608  1.00  0.00     0.094 C 
HETATM    3  C7  UNL     1      23.195   1.023  52.878  1.00  0.00     0.067 C 
HETATM    4  N1  UNL     1      24.209   1.195  53.667  1.00  0.00    -0.173 NA
HETATM    5  N2  UNL     1      25.187   2.003  53.076  1.00  0.00    -0.235 N 
ENDROOT
BRANCH   1   6
HETATM    6  C4  UNL     1      25.187   3.466  51.103  1.00  0.00    -0.033 A 
HETATM    7  C3  UNL     1      26.189   2.860  50.373  1.00  0.00     0.012 A 
HETATM    8  C2  UNL     1      26.854   3.544  49.374  1.00  0.00     0.043 A 
HETATM    9  C1  UNL     1      26.525   4.859  49.083  1.00  0.00     0.116 A 
HETATM   10  F1  UNL     1      27.193   5.514  48.095  1.00  0.00    -0.206 F 
HETATM   11  C17 UNL     1      25.529   5.489  49.796  1.00  0.00     0.043 A 
HETATM   12  C16 UNL     1      24.889   4.780  50.781  1.00  0.00     0.012 A 
ENDBRANCH   1   6
BRANCH   5  13
HETATM   13  C14 UNL     1      26.555   1.853  53.423  1.00  0.00     0.213 C 
HETATM   14  N3  UNL     1      27.415   2.583  54.028  1.00  0.00    -0.105 NA
HETATM   15  O1  UNL     1      28.650   2.108  54.181  1.00  0.00    -0.244 OA
HETATM   16  C15 UNL     1      28.793   0.705  54.228  1.00  0.00     0.286 C 
HETATM   17  S1  UNL     1      27.456   0.330  53.005  1.00  0.00    -0.059 SA
ENDBRANCH   5  13
BRANCH   3  18
HETATM   18  C8  UNL     1      21.972   0.258  53.101  1.00  0.00    -0.010 A 
HETATM   19  C9  UNL     1      21.928  -0.799  53.992  1.00  0.00     0.013 A 
HETATM   20  C10 UNL     1      20.753  -1.507  54.182  1.00  0.00     0.001 A 
HETATM   21  C11 UNL     1      19.628  -1.129  53.460  1.00  0.00     0.000 A 
HETATM   22  C12 UNL     1      19.679  -0.072  52.570  1.00  0.00     0.001 A 
HETATM   23  C13 UNL     1      20.843   0.644  52.369  1.00  0.00     0.013 A 
ENDBRANCH   3  18
TORSDOF 3
ENDMDL
MODEL 4
REMARK VINA RESULT:      -8.4      3.026      5.676
REMARK  3 active torsions:
REMARK  status: ('A' for Active; 'I' for Inactive)
REMARK    1  A    between atoms: C4_5  and  C5_6 
REMARK    2  A    between atoms: C7_8  and  C8_9 
REMARK    3  A    between atoms: N2_16  and  C14_17 
ROOT
HETATM    1  C5  UNL     1      25.240   1.643  51.407  1.00  0.00     0.151 C 
HETATM    2  C6  UNL     1      24.735   3.053  51.131  1.00  0.00     0.094 C 
HETATM    3  C7  UNL     1      26.011   3.637  50.584  1.00  0.00     0.067 C 
HETATM    4  N1  UNL     1      26.994   2.969  51.103  1.00  0.00    -0.173 NA
HETATM    5  N2  UNL     1      26.533   1.967  51.964  1.00  0.00    -0.235 N 
ENDROOT
BRANCH   1   6
HETATM    6  C4  UNL     1      24.323   0.964  52.342  1.00  0.00    -0.033 A 
HETATM    7  C3  UNL     1      24.626  -0.144  53.108  1.00  0.00     0.012 A 
HETATM    8  C2  UNL     1      23.687  -0.701  53.954  1.00  0.00     0.043 A 
HETATM    9  C1  UNL     1      22.416  -0.156  54.051  1.00  0.00     0.116 A 
HETATM   10  F1  UNL     1      21.506  -0.720  54.891  1.00  0.00    -0.206 F 
HETATM   11  C17 UNL     1      22.086   0.950  53.298  1.00  0.00     0.043 A 
HETATM   12  C16 UNL     1      23.044   1.478  52.468  1.00  0.00     0.012 A 
ENDBRANCH   1   6
BRANCH   5  13
HETATM   13  C14 UNL     1      27.326   1.535  53.059  1.00  0.00     0.213 C 
HETATM   14  N3  UNL     1      27.651   2.040  54.189  1.00  0.00    -0.105 NA
HETATM   15  O1  UNL     1      28.439   1.330  54.995  1.00  0.00    -0.244 OA
HETATM   16  C15 UNL     1      28.386  -0.074  54.866  1.00  0.00     0.286 C 
HETATM   17  S1  UNL     1      28.135  -0.094  53.033  1.00  0.00    -0.059 SA
ENDBRANCH   5  13
BRANCH   3  18
HETATM   18  C8  UNL     1      26.049   4.754  49.645  1.00  0.00    -0.010 A 
HETATM   19  C9  UNL     1      27.225   5.154  49.038  1.00  0.00     0.013 A 
HETATM   20  C10 UNL     1      27.231   6.218  48.152  1.00  0.00     0.001 A 
HETATM   21  C11 UNL     1      26.031   6.868  47.890  1.00  0.00     0.000 A 
HETATM   22  C12 UNL     1      24.858   6.464  48.501  1.00  0.00     0.001 A 
HETATM   23  C13 UNL     1      24.836   5.404  49.388  1.00  0.00     0.013 A 
ENDBRANCH   3  18
TORSDOF 3
ENDMDL
MODEL 5
REMARK VINA RESULT:      -8.2      3.694      6.159
REMARK  3 active torsions:
REMARK  status: ('A' for Active; 'I' for Inactive)
REMARK    1  A    between atoms: C4_5  and  C5_6 
REMARK    2  A    between atoms: C7_8  and  C8_9 
REMARK    3  A    between atoms: N2_16  and  C14_17 
ROOT
HETATM    1  C5  UNL     1      25.249   3.175  51.157  1.00  0.00     0.151 C 
HETATM    2  C6  UNL     1      26.500   3.440  50.331  1.00  0.00     0.094 C 
HETATM    3  C7  UNL     1      25.926   4.465  49.389  1.00  0.00     0.067 C 
HETATM    4  N1  UNL     1      24.652   4.237  49.301  1.00  0.00    -0.173 NA
HETATM    5  N2  UNL     1      24.272   3.147  50.093  1.00  0.00    -0.235 N 
ENDROOT
BRANCH   1   6
HETATM    6  C4  UNL     1      25.397   1.901  51.885  1.00  0.00    -0.033 A 
HETATM    7  C3  UNL     1      24.611   1.475  52.937  1.00  0.00     0.012 A 
HETATM    8  C2  UNL     1      24.841   0.258  53.548  1.00  0.00     0.043 A 
HETATM    9  C1  UNL     1      25.869  -0.565  53.115  1.00  0.00     0.116 A 
HETATM   10  F1  UNL     1      26.078  -1.759  53.732  1.00  0.00    -0.206 F 
HETATM   11  C17 UNL     1      26.670  -0.165  52.068  1.00  0.00     0.043 A 
HETATM   12  C16 UNL     1      26.414   1.050  51.483  1.00  0.00     0.012 A 
ENDBRANCH   1   6
BRANCH   5  13
HETATM   13  C14 UNL     1      23.155   2.347  49.733  1.00  0.00     0.213 C 
HETATM   14  N3  UNL     1      22.420   1.500  50.349  1.00  0.00    -0.105 NA
HETATM   15  O1  UNL     1      21.427   0.920  49.677  1.00  0.00    -0.244 OA
HETATM   16  C15 UNL     1      20.876   1.645  48.599  1.00  0.00     0.286 C 
HETATM   17  S1  UNL     1      22.464   2.423  48.053  1.00  0.00    -0.059 SA
ENDBRANCH   5  13
BRANCH   3  18
HETATM   18  C8  UNL     1      26.725   5.496  48.734  1.00  0.00    -0.010 A 
HETATM   19  C9  UNL     1      26.174   6.700  48.337  1.00  0.00     0.013 A 
HETATM   20  C10 UNL     1      26.957   7.659  47.716  1.00  0.00     0.001 A 
HETATM   21  C11 UNL     1      28.302   7.381  47.506  1.00  0.00     0.000 A 
HETATM   22  C12 UNL     1      28.847   6.174  47.905  1.00  0.00     0.001 A 
HETATM   23  C13 UNL     1      28.079   5.207  48.525  1.00  0.00     0.013 A 
ENDBRANCH   3  18
TORSDOF 3
ENDMDL
MODEL 6
REMARK VINA RESULT:      -8.0      3.466      6.673
REMARK  3 active torsions:
REMARK  status: ('A' for Active; 'I' for Inactive)
REMARK    1  A    between atoms: C4_5  and  C5_6 
REMARK    2  A    between atoms: C7_8  and  C8_9 
REMARK    3  A    between atoms: N2_16  and  C14_17 
ROOT
HETATM    1  C5  UNL     1      26.172   1.349  52.599  1.00  0.00     0.151 C 
HETATM    2  C6  UNL     1      26.189   1.737  51.127  1.00  0.00     0.094 C 
HETATM    3  C7  UNL     1      24.987   2.644  51.127  1.00  0.00     0.067 C 
HETATM    4  N1  UNL     1      24.210   2.254  52.089  1.00  0.00    -0.173 NA
HETATM    5  N2  UNL     1      24.750   1.156  52.770  1.00  0.00    -0.235 N 
ENDROOT
BRANCH   1   6
HETATM    6  C4  UNL     1      26.982   0.133  52.800  1.00  0.00    -0.033 A 
HETATM    7  C3  UNL     1      26.686  -1.125  52.313  1.00  0.00     0.012 A 
HETATM    8  C2  UNL     1      27.519  -2.197  52.563  1.00  0.00     0.043 A 
HETATM    9  C1  UNL     1      28.675  -2.032  53.310  1.00  0.00     0.116 A 
HETATM   10  F1  UNL     1      29.481  -3.102  53.544  1.00  0.00    -0.206 F 
HETATM   11  C17 UNL     1      28.995  -0.788  53.808  1.00  0.00     0.043 A 
HETATM   12  C16 UNL     1      28.145   0.256  53.541  1.00  0.00     0.012 A 
ENDBRANCH   1   6
BRANCH   5  13
HETATM   13  C14 UNL     1      23.901   0.209  53.401  1.00  0.00     0.213 C 
HETATM   14  N3  UNL     1      24.007  -0.550  54.426  1.00  0.00    -0.105 NA
HETATM   15  O1  UNL     1      22.978  -1.338  54.737  1.00  0.00    -0.244 OA
HETATM   16  C15 UNL     1      21.696  -0.901  54.340  1.00  0.00     0.286 C 
HETATM   17  S1  UNL     1      22.237  -0.124  52.750  1.00  0.00    -0.059 SA
ENDBRANCH   5  13
BRANCH   3  18
HETATM   18  C8  UNL     1      24.803   3.741  50.182  1.00  0.00    -0.010 A 
HETATM   19  C9  UNL     1      25.824   4.627  49.889  1.00  0.00     0.013 A 
HETATM   20  C10 UNL     1      25.619   5.658  48.987  1.00  0.00     0.001 A 
HETATM   21  C11 UNL     1      24.372   5.777  48.389  1.00  0.00     0.000 A 
HETATM   22  C12 UNL     1      23.355   4.888  48.686  1.00  0.00     0.001 A 
HETATM   23  C13 UNL     1      23.543   3.854  49.583  1.00  0.00     0.013 A 
ENDBRANCH   3  18
TORSDOF 3
ENDMDL
MODEL 7
REMARK VINA RESULT:      -7.9      3.370      5.715
REMARK  3 active torsions:
REMARK  status: ('A' for Active; 'I' for Inactive)
REMARK    1  A    between atoms: C4_5  and  C5_6 
REMARK    2  A    between atoms: C7_8  and  C8_9 
REMARK    3  A    between atoms: N2_16  and  C14_17 
ROOT
HETATM    1  C5  UNL     1      24.564   2.899  50.041  1.00  0.00     0.151 C 
HETATM    2  C6  UNL     1      24.832   4.395  49.952  1.00  0.00     0.094 C 
HETATM    3  C7  UNL     1      26.293   4.333  49.590  1.00  0.00     0.067 C 
HETATM    4  N1  UNL     1      26.760   3.220  50.066  1.00  0.00    -0.173 NA
HETATM    5  N2  UNL     1      25.767   2.490  50.729  1.00  0.00    -0.235 N 
ENDROOT
BRANCH   1   6
HETATM    6  C4  UNL     1      23.319   2.664  50.795  1.00  0.00    -0.033 A 
HETATM    7  C3  UNL     1      22.766   3.518  51.728  1.00  0.00     0.012 A 
HETATM    8  C2  UNL     1      21.590   3.195  52.377  1.00  0.00     0.043 A 
HETATM    9  C1  UNL     1      20.939   2.002  52.104  1.00  0.00     0.116 A 
HETATM   10  F1  UNL     1      19.782   1.705  52.756  1.00  0.00    -0.206 F 
HETATM   11  C17 UNL     1      21.468   1.131  51.179  1.00  0.00     0.043 A 
HETATM   12  C16 UNL     1      22.638   1.483  50.551  1.00  0.00     0.012 A 
ENDBRANCH   1   6
BRANCH   5  13
HETATM   13  C14 UNL     1      26.104   1.616  51.796  1.00  0.00     0.213 C 
HETATM   14  N3  UNL     1      26.555   0.421  51.872  1.00  0.00    -0.105 NA
HETATM   15  O1  UNL     1      26.759  -0.101  53.080  1.00  0.00    -0.244 OA
HETATM   16  C15 UNL     1      27.041   0.803  54.127  1.00  0.00     0.286 C 
HETATM   17  S1  UNL     1      25.932   2.155  53.524  1.00  0.00    -0.059 SA
ENDBRANCH   5  13
BRANCH   3  18
HETATM   18  C8  UNL     1      26.984   5.377  48.840  1.00  0.00    -0.010 A 
HETATM   19  C9  UNL     1      28.320   5.267  48.503  1.00  0.00     0.013 A 
HETATM   20  C10 UNL     1      28.949   6.275  47.790  1.00  0.00     0.001 A 
HETATM   21  C11 UNL     1      28.206   7.390  47.425  1.00  0.00     0.000 A 
HETATM   22  C12 UNL     1      26.869   7.494  47.766  1.00  0.00     0.001 A 
HETATM   23  C13 UNL     1      26.228   6.498  48.476  1.00  0.00     0.013 A 
ENDBRANCH   3  18
TORSDOF 3
ENDMDL
MODEL 8
REMARK VINA RESULT:      -7.6      3.384      7.033
REMARK  3 active torsions:
REMARK  status: ('A' for Active; 'I' for Inactive)
REMARK    1  A    between atoms: C4_5  and  C5_6 
REMARK    2  A    between atoms: C7_8  and  C8_9 
REMARK    3  A    between atoms: N2_16  and  C14_17 
ROOT
HETATM    1  C5  UNL     1      24.470   2.296  53.042  1.00  0.00     0.151 C 
HETATM    2  C6  UNL     1      24.572   2.954  51.672  1.00  0.00     0.094 C 
HETATM    3  C7  UNL     1      23.167   3.489  51.583  1.00  0.00     0.067 C 
HETATM    4  N1  UNL     1      22.417   2.726  52.316  1.00  0.00    -0.173 NA
HETATM    5  N2  UNL     1      23.159   1.702  52.915  1.00  0.00    -0.235 N 
ENDROOT
BRANCH   1   6
HETATM    6  C4  UNL     1      25.568   1.326  53.207  1.00  0.00    -0.033 A 
HETATM    7  C3  UNL     1      26.238   1.056  54.383  1.00  0.00     0.012 A 
HETATM    8  C2  UNL     1      27.256   0.123  54.424  1.00  0.00     0.043 A 
HETATM    9  C1  UNL     1      27.626  -0.565  53.279  1.00  0.00     0.116 A 
HETATM   10  F1  UNL     1      28.632  -1.479  53.342  1.00  0.00    -0.206 F 
HETATM   11  C17 UNL     1      26.976  -0.316  52.091  1.00  0.00     0.043 A 
HETATM   12  C16 UNL     1      25.969   0.617  52.086  1.00  0.00     0.012 A 
ENDBRANCH   1   6
BRANCH   5  13
HETATM   13  C14 UNL     1      22.551   0.458  53.230  1.00  0.00     0.213 C 
HETATM   14  N3  UNL     1      22.900  -0.768  53.117  1.00  0.00    -0.105 NA
HETATM   15  O1  UNL     1      22.049  -1.706  53.529  1.00  0.00    -0.244 OA
HETATM   16  C15 UNL     1      21.145  -1.345  54.551  1.00  0.00     0.286 C 
HETATM   17  S1  UNL     1      20.899   0.400  53.988  1.00  0.00    -0.059 SA
ENDBRANCH   5  13
BRANCH   3  18
HETATM   18  C8  UNL     1      22.798   4.660  50.793  1.00  0.00    -0.010 A 
HETATM   19  C9  UNL     1      23.159   4.783  49.464  1.00  0.00     0.013 A 
HETATM   20  C10 UNL     1      22.794   5.906  48.740  1.00  0.00     0.001 A 
HETATM   21  C11 UNL     1      22.062   6.898  49.380  1.00  0.00     0.000 A 
HETATM   22  C12 UNL     1      21.705   6.769  50.710  1.00  0.00     0.001 A 
HETATM   23  C13 UNL     1      22.061   5.655  51.446  1.00  0.00     0.013 A 
ENDBRANCH   3  18
TORSDOF 3
ENDMDL
MODEL 9
REMARK VINA RESULT:      -7.6      3.611      5.421
REMARK  3 active torsions:
REMARK  status: ('A' for Active; 'I' for Inactive)
REMARK    1  A    between atoms: C4_5  and  C5_6 
REMARK    2  A    between atoms: C7_8  and  C8_9 
REMARK    3  A    between atoms: N2_16  and  C14_17 
ROOT
HETATM    1  C5  UNL     1      22.852   3.408  50.327  1.00  0.00     0.151 C 
HETATM    2  C6  UNL     1      22.491   1.955  50.607  1.00  0.00     0.094 C 
HETATM    3  C7  UNL     1      23.293   1.771  51.868  1.00  0.00     0.067 C 
HETATM    4  N1  UNL     1      24.287   2.603  51.818  1.00  0.00    -0.173 NA
HETATM    5  N2  UNL     1      24.262   3.359  50.640  1.00  0.00    -0.235 N 
ENDROOT
BRANCH   1   6
HETATM    6  C4  UNL     1      22.549   3.730  48.920  1.00  0.00    -0.033 A 
HETATM    7  C3  UNL     1      22.333   4.995  48.410  1.00  0.00     0.012 A 
HETATM    8  C2  UNL     1      22.055   5.182  47.070  1.00  0.00     0.043 A 
HETATM    9  C1  UNL     1      21.987   4.099  46.207  1.00  0.00     0.116 A 
HETATM   10  F1  UNL     1      21.711   4.307  44.891  1.00  0.00    -0.206 F 
HETATM   11  C17 UNL     1      22.197   2.826  46.689  1.00  0.00     0.043 A 
HETATM   12  C16 UNL     1      22.472   2.676  48.025  1.00  0.00     0.012 A 
ENDBRANCH   1   6
BRANCH   5  13
HETATM   13  C14 UNL     1      25.466   3.854  50.073  1.00  0.00     0.213 C 
HETATM   14  N3  UNL     1      26.540   3.316  49.631  1.00  0.00    -0.105 NA
HETATM   15  O1  UNL     1      27.496   4.112  49.156  1.00  0.00    -0.244 OA
HETATM   16  C15 UNL     1      27.088   5.356  48.628  1.00  0.00     0.286 C 
HETATM   17  S1  UNL     1      25.712   5.639  49.832  1.00  0.00    -0.059 SA
ENDBRANCH   5  13
BRANCH   3  18
HETATM   18  C8  UNL     1      22.950   0.808  52.909  1.00  0.00    -0.010 A 
HETATM   19  C9  UNL     1      23.900  -0.023  53.474  1.00  0.00     0.013 A 
HETATM   20  C10 UNL     1      23.543  -0.927  54.460  1.00  0.00     0.001 A 
HETATM   21  C11 UNL     1      22.216  -0.976  54.865  1.00  0.00     0.000 A 
HETATM   22  C12 UNL     1      21.270  -0.142  54.297  1.00  0.00     0.001 A 
HETATM   23  C13 UNL     1      21.609   0.765  53.312  1.00  0.00     0.013 A 
ENDBRANCH   3  18
TORSDOF 3
ENDMDL
