MODEL 1
REMARK VINA RESULT:      -8.1      0.000      0.000
REMARK  6 active torsions:
REMARK  status: ('A' for Active; 'I' for Inactive)
REMARK    1  A    between atoms: O1_2  and  C2_3 
REMARK    2  A    between atoms: C5_6  and  N1_7 
REMARK    3  A    between atoms: N1_7  and  C6_8 
REMARK    4  A    between atoms: C14_21  and  O2_22 
REMARK    5  A    between atoms: O2_22  and  C15_23 
REMARK    6  A    between atoms: C15_23  and  C16_24 
ROOT
HETATM    1  C2  UNL     1      21.301   2.076  51.684  1.00  0.00     0.105 A 
HETATM    2  C3  UNL     1      20.035   1.783  51.431  1.00  0.00     0.075 A 
HETATM    3  C4  UNL     1      19.328   0.697  52.108  1.00  0.00     0.104 A 
HETATM    4  C5  UNL     1      18.067   0.461  51.807  1.00  0.00     0.158 A 
HETATM    5  N2  UNL     1      17.434  -0.607  52.499  1.00  0.00    -0.223 NA
HETATM    6  C12 UNL     1      18.079  -1.305  53.379  1.00  0.00     0.226 A 
HETATM    7  N3  UNL     1      19.442  -1.076  53.726  1.00  0.00    -0.287 N 
HETATM    8  N4  UNL     1      20.091  -0.031  53.062  1.00  0.00    -0.260 N 
HETATM    9  C13 UNL     1      21.469   0.308  53.321  1.00  0.00     0.156 A 
HETATM   10  C14 UNL     1      22.067   1.318  52.666  1.00  0.00     0.119 A 
HETATM   11  H10 UNL     1      19.954  -1.641  54.436  1.00  0.00     0.188 HD
ENDROOT
BRANCH   4  12
HETATM   12  N1  UNL     1      17.328   1.190  50.862  1.00  0.00    -0.337 N 
HETATM   13  H5  UNL     1      17.481   1.211  49.811  1.00  0.00     0.168 HD
BRANCH  12  14
HETATM   14  C6  UNL     1      16.316   1.911  51.560  1.00  0.00     0.072 A 
HETATM   15  C7  UNL     1      15.119   1.330  51.931  1.00  0.00     0.034 A 
HETATM   16  C8  UNL     1      14.133   2.007  52.604  1.00  0.00     0.021 A 
HETATM   17  C9  UNL     1      14.320   3.329  52.937  1.00  0.00     0.014 A 
HETATM   18 BR1  UNL     1      12.985   4.337  53.875  1.00  0.00    -0.051 Br
HETATM   19  C10 UNL     1      15.497   3.961  52.590  1.00  0.00     0.063 A 
HETATM   20  C11 UNL     1      16.451   3.237  51.918  1.00  0.00     0.144 A 
HETATM   21  F1  UNL     1      17.586   3.907  51.603  1.00  0.00    -0.204 F 
ENDBRANCH  12  14
ENDBRANCH   4  12
BRANCH   1  22
HETATM   22  O1  UNL     1      22.022   3.091  51.075  1.00  0.00    -0.353 OA
HETATM   23  C1  UNL     1      21.947   4.446  51.438  1.00  0.00     0.210 C 
ENDBRANCH   1  22
BRANCH  10  24
HETATM   24  O2  UNL     1      23.365   1.458  53.068  1.00  0.00    -0.346 OA
BRANCH  24  25
HETATM   25  C15 UNL     1      24.448   1.037  52.299  1.00  0.00     0.180 C 
BRANCH  25  26
HETATM   26  C16 UNL     1      25.421   0.227  53.152  1.00  0.00     0.013 C 
HETATM   27  C17 UNL     1      26.114   1.088  54.188  1.00  0.00     0.037 C 
HETATM   28  C18 UNL     1      27.118   0.226  54.895  1.00  0.00     0.272 C 
HETATM   29  N5  UNL     1      28.164  -0.211  54.023  1.00  0.00     0.084 N 
HETATM   30  C19 UNL     1      29.090   0.807  53.634  1.00  0.00     0.309 C 
HETATM   31  C20 UNL     1      27.609  -0.974  52.948  1.00  0.00     0.272 C 
HETATM   32  C21 UNL     1      26.506  -0.262  52.198  1.00  0.00     0.037 C 
ENDBRANCH  25  26
ENDBRANCH  24  25
ENDBRANCH  10  24
TORSDOF 6
ENDMDL
MODEL 2
REMARK VINA RESULT:      -8.0      7.744     10.241
REMARK  6 active torsions:
REMARK  status: ('A' for Active; 'I' for Inactive)
REMARK    1  A    between atoms: O1_2  and  C2_3 
REMARK    2  A    between atoms: C5_6  and  N1_7 
REMARK    3  A    between atoms: N1_7  and  C6_8 
REMARK    4  A    between atoms: C14_21  and  O2_22 
REMARK    5  A    between atoms: O2_22  and  C15_23 
REMARK    6  A    between atoms: C15_23  and  C16_24 
ROOT
HETATM    1  C2  UNL     1      27.697   6.469  48.493  1.00  0.00     0.105 A 
HETATM    2  C3  UNL     1      26.841   5.536  48.877  1.00  0.00     0.075 A 
HETATM    3  C4  UNL     1      25.715   5.818  49.765  1.00  0.00     0.104 A 
HETATM    4  C5  UNL     1      24.900   4.839  50.107  1.00  0.00     0.158 A 
HETATM    5  N2  UNL     1      23.824   5.176  50.972  1.00  0.00    -0.223 NA
HETATM    6  C12 UNL     1      23.665   6.390  51.396  1.00  0.00     0.226 A 
HETATM    7  N3  UNL     1      24.528   7.469  51.046  1.00  0.00    -0.287 N 
HETATM    8  N4  UNL     1      25.595   7.168  50.195  1.00  0.00    -0.260 N 
HETATM    9  C13 UNL     1      26.541   8.168  49.763  1.00  0.00     0.156 A 
HETATM   10  C14 UNL     1      27.558   7.849  48.945  1.00  0.00     0.119 A 
HETATM   11  H10 UNL     1      24.393   8.443  51.391  1.00  0.00     0.188 HD
ENDROOT
BRANCH   4  12
HETATM   12  N1  UNL     1      25.032   3.511  49.672  1.00  0.00    -0.337 N 
HETATM   13  H5  UNL     1      24.886   3.145  48.686  1.00  0.00     0.168 HD
BRANCH  12  14
HETATM   14  C6  UNL     1      25.401   2.717  50.797  1.00  0.00     0.072 A 
HETATM   15  C7  UNL     1      26.681   2.723  51.315  1.00  0.00     0.034 A 
HETATM   16  C8  UNL     1      27.057   1.967  52.397  1.00  0.00     0.021 A 
HETATM   17  C9  UNL     1      26.132   1.157  53.015  1.00  0.00     0.014 A 
HETATM   18 BR1  UNL     1      26.586   0.073  54.531  1.00  0.00    -0.051 Br
HETATM   19  C10 UNL     1      24.837   1.111  52.540  1.00  0.00     0.063 A 
HETATM   20  C11 UNL     1      24.514   1.888  51.454  1.00  0.00     0.144 A 
HETATM   21  F1  UNL     1      23.230   1.804  51.030  1.00  0.00    -0.204 F 
ENDBRANCH  12  14
ENDBRANCH   4  12
BRANCH   1  22
HETATM   22  O1  UNL     1      28.781   6.262  47.655  1.00  0.00    -0.353 OA
HETATM   23  C1  UNL     1      29.848   5.393  47.935  1.00  0.00     0.210 C 
ENDBRANCH   1  22
BRANCH  10  24
HETATM   24  O2  UNL     1      28.324   8.946  48.669  1.00  0.00    -0.346 OA
BRANCH  24  25
HETATM   25  C15 UNL     1      29.290   9.438  49.544  1.00  0.00     0.180 C 
BRANCH  25  26
HETATM   26  C16 UNL     1      30.604   9.676  48.803  1.00  0.00     0.013 C 
HETATM   27  C17 UNL     1      30.396   9.774  47.306  1.00  0.00     0.037 C 
HETATM   28  C18 UNL     1      31.749   9.899  46.669  1.00  0.00     0.272 C 
HETATM   29  N5  UNL     1      32.543   8.723  46.852  1.00  0.00     0.084 N 
HETATM   30  C19 UNL     1      32.124   7.587  46.091  1.00  0.00     0.309 C 
HETATM   31  C20 UNL     1      32.736   8.485  48.250  1.00  0.00     0.272 C 
HETATM   32  C21 UNL     1      31.450   8.430  49.044  1.00  0.00     0.037 C 
ENDBRANCH  25  26
ENDBRANCH  24  25
ENDBRANCH  10  24
TORSDOF 6
ENDMDL
MODEL 3
REMARK VINA RESULT:      -8.0      4.359      9.628
REMARK  6 active torsions:
REMARK  status: ('A' for Active; 'I' for Inactive)
REMARK    1  A    between atoms: O1_2  and  C2_3 
REMARK    2  A    between atoms: C5_6  and  N1_7 
REMARK    3  A    between atoms: N1_7  and  C6_8 
REMARK    4  A    between atoms: C14_21  and  O2_22 
REMARK    5  A    between atoms: O2_22  and  C15_23 
REMARK    6  A    between atoms: C15_23  and  C16_24 
ROOT
HETATM    1  C2  UNL     1      21.676   0.889  52.839  1.00  0.00     0.105 A 
HETATM    2  C3  UNL     1      22.821   1.519  53.042  1.00  0.00     0.075 A 
HETATM    3  C4  UNL     1      23.562   2.171  51.964  1.00  0.00     0.104 A 
HETATM    4  C5  UNL     1      24.698   2.782  52.238  1.00  0.00     0.158 A 
HETATM    5  N2  UNL     1      25.372   3.397  51.148  1.00  0.00    -0.223 NA
HETATM    6  C12 UNL     1      24.881   3.349  49.950  1.00  0.00     0.226 A 
HETATM    7  N3  UNL     1      23.658   2.697  49.621  1.00  0.00    -0.287 N 
HETATM    8  N4  UNL     1      22.972   2.084  50.673  1.00  0.00    -0.260 N 
HETATM    9  C13 UNL     1      21.722   1.391  50.477  1.00  0.00     0.156 A 
HETATM   10  C14 UNL     1      21.085   0.810  51.509  1.00  0.00     0.119 A 
HETATM   11  H10 UNL     1      23.270   2.664  48.655  1.00  0.00     0.188 HD
ENDROOT
BRANCH   4  12
HETATM   12  N1  UNL     1      25.267   2.859  53.519  1.00  0.00    -0.337 N 
HETATM   13  H5  UNL     1      24.947   3.475  54.323  1.00  0.00     0.168 HD
BRANCH  12  14
HETATM   14  C6  UNL     1      26.368   1.955  53.564  1.00  0.00     0.072 A 
HETATM   15  C7  UNL     1      27.662   2.354  53.290  1.00  0.00     0.034 A 
HETATM   16  C8  UNL     1      28.735   1.499  53.329  1.00  0.00     0.021 A 
HETATM   17  C9  UNL     1      28.540   0.176  53.652  1.00  0.00     0.014 A 
HETATM   18 BR1  UNL     1      29.992  -1.075  53.724  1.00  0.00    -0.051 Br
HETATM   19  C10 UNL     1      27.267  -0.278  53.935  1.00  0.00     0.063 A 
HETATM   20  C11 UNL     1      26.229   0.619  53.883  1.00  0.00     0.144 A 
HETATM   21  F1  UNL     1      25.002   0.119  54.169  1.00  0.00    -0.204 F 
ENDBRANCH  12  14
ENDBRANCH   4  12
BRANCH   1  22
HETATM   22  O1  UNL     1      20.929   0.254  53.820  1.00  0.00    -0.353 OA
HETATM   23  C1  UNL     1      21.468  -0.575  54.817  1.00  0.00     0.210 C 
ENDBRANCH   1  22
BRANCH  10  24
HETATM   24  O2  UNL     1      19.928   0.215  51.093  1.00  0.00    -0.346 OA
BRANCH  24  25
HETATM   25  C15 UNL     1      18.934   0.892  50.389  1.00  0.00     0.180 C 
BRANCH  25  26
HETATM   26  C16 UNL     1      17.619   0.120  50.453  1.00  0.00     0.013 C 
HETATM   27  C17 UNL     1      16.420   1.038  50.332  1.00  0.00     0.037 C 
HETATM   28  C18 UNL     1      15.189   0.201  50.514  1.00  0.00     0.272 C 
HETATM   29  N5  UNL     1      15.098  -0.347  51.832  1.00  0.00     0.084 N 
HETATM   30  C19 UNL     1      14.788   0.598  52.859  1.00  0.00     0.309 C 
HETATM   31  C20 UNL     1      16.235  -1.177  52.089  1.00  0.00     0.272 C 
HETATM   32  C21 UNL     1      17.560  -0.489  51.851  1.00  0.00     0.037 C 
ENDBRANCH  25  26
ENDBRANCH  24  25
ENDBRANCH  10  24
TORSDOF 6
ENDMDL
MODEL 4
REMARK VINA RESULT:      -7.6      6.410      8.460
REMARK  6 active torsions:
REMARK  status: ('A' for Active; 'I' for Inactive)
REMARK    1  A    between atoms: O1_2  and  C2_3 
REMARK    2  A    between atoms: C5_6  and  N1_7 
REMARK    3  A    between atoms: N1_7  and  C6_8 
REMARK    4  A    between atoms: C14_21  and  O2_22 
REMARK    5  A    between atoms: O2_22  and  C15_23 
REMARK    6  A    between atoms: C15_23  and  C16_24 
ROOT
HETATM    1  C2  UNL     1      26.065   5.849  49.094  1.00  0.00     0.105 A 
HETATM    2  C3  UNL     1      25.195   4.879  49.325  1.00  0.00     0.075 A 
HETATM    3  C4  UNL     1      23.998   5.073  50.140  1.00  0.00     0.104 A 
HETATM    4  C5  UNL     1      23.174   4.061  50.329  1.00  0.00     0.158 A 
HETATM    5  N2  UNL     1      22.027   4.312  51.131  1.00  0.00    -0.223 NA
HETATM    6  C12 UNL     1      21.817   5.483  51.644  1.00  0.00     0.226 A 
HETATM    7  N3  UNL     1      22.688   6.595  51.460  1.00  0.00    -0.287 N 
HETATM    8  N4  UNL     1      23.824   6.379  50.675  1.00  0.00    -0.260 N 
HETATM    9  C13 UNL     1      24.786   7.421  50.409  1.00  0.00     0.156 A 
HETATM   10  C14 UNL     1      25.870   7.183  49.650  1.00  0.00     0.119 A 
HETATM   11  H10 UNL     1      22.512   7.534  51.876  1.00  0.00     0.188 HD
ENDROOT
BRANCH   4  12
HETATM   12  N1  UNL     1      23.360   2.777  49.793  1.00  0.00    -0.337 N 
HETATM   13  H5  UNL     1      23.681   2.537  48.810  1.00  0.00     0.168 HD
BRANCH  12  14
HETATM   14  C6  UNL     1      23.040   1.829  50.808  1.00  0.00     0.072 A 
HETATM   15  C7  UNL     1      23.837   1.644  51.921  1.00  0.00     0.034 A 
HETATM   16  C8  UNL     1      23.546   0.737  52.910  1.00  0.00     0.021 A 
HETATM   17  C9  UNL     1      22.413  -0.037  52.812  1.00  0.00     0.014 A 
HETATM   18 BR1  UNL     1      21.945  -1.324  54.154  1.00  0.00    -0.051 Br
HETATM   19  C10 UNL     1      21.579   0.106  51.721  1.00  0.00     0.063 A 
HETATM   20  C11 UNL     1      21.917   1.028  50.761  1.00  0.00     0.144 A 
HETATM   21  F1  UNL     1      21.064   1.126  49.712  1.00  0.00    -0.204 F 
ENDBRANCH  12  14
ENDBRANCH   4  12
BRANCH   1  22
HETATM   22  O1  UNL     1      27.215   5.725  48.330  1.00  0.00    -0.353 OA
HETATM   23  C1  UNL     1      28.251   4.814  48.595  1.00  0.00     0.210 C 
ENDBRANCH   1  22
BRANCH  10  24
HETATM   24  O2  UNL     1      26.638   8.306  49.533  1.00  0.00    -0.346 OA
BRANCH  24  25
HETATM   25  C15 UNL     1      26.775   9.013  48.340  1.00  0.00     0.180 C 
BRANCH  25  26
HETATM   26  C16 UNL     1      28.226   9.446  48.144  1.00  0.00     0.013 C 
HETATM   27  C17 UNL     1      29.005   8.446  47.315  1.00  0.00     0.037 C 
HETATM   28  C18 UNL     1      30.432   8.908  47.273  1.00  0.00     0.272 C 
HETATM   29  N5  UNL     1      31.049   8.875  48.563  1.00  0.00     0.084 N 
HETATM   30  C19 UNL     1      31.331   7.565  49.064  1.00  0.00     0.309 C 
HETATM   31  C20 UNL     1      30.336   9.731  49.461  1.00  0.00     0.272 C 
HETATM   32  C21 UNL     1      28.854   9.442  49.534  1.00  0.00     0.037 C 
ENDBRANCH  25  26
ENDBRANCH  24  25
ENDBRANCH  10  24
TORSDOF 6
ENDMDL
MODEL 5
REMARK VINA RESULT:      -7.5      4.462      9.697
REMARK  6 active torsions:
REMARK  status: ('A' for Active; 'I' for Inactive)
REMARK    1  A    between atoms: O1_2  and  C2_3 
REMARK    2  A    between atoms: C5_6  and  N1_7 
REMARK    3  A    between atoms: N1_7  and  C6_8 
REMARK    4  A    between atoms: C14_21  and  O2_22 
REMARK    5  A    between atoms: O2_22  and  C15_23 
REMARK    6  A    between atoms: C15_23  and  C16_24 
ROOT
HETATM    1  C2  UNL     1      20.101   0.772  51.609  1.00  0.00     0.105 A 
HETATM    2  C3  UNL     1      21.382   0.843  51.935  1.00  0.00     0.075 A 
HETATM    3  C4  UNL     1      21.952   0.095  53.054  1.00  0.00     0.104 A 
HETATM    4  C5  UNL     1      23.238   0.213  53.322  1.00  0.00     0.158 A 
HETATM    5  N2  UNL     1      23.733  -0.540  54.421  1.00  0.00    -0.223 NA
HETATM    6  C12 UNL     1      22.946  -1.300  55.116  1.00  0.00     0.226 A 
HETATM    7  N3  UNL     1      21.554  -1.448  54.852  1.00  0.00    -0.287 N 
HETATM    8  N4  UNL     1      21.038  -0.720  53.776  1.00  0.00    -0.260 N 
HETATM    9  C13 UNL     1      19.646  -0.782  53.402  1.00  0.00     0.156 A 
HETATM   10  C14 UNL     1      19.179  -0.070  52.362  1.00  0.00     0.119 A 
HETATM   11  H10 UNL     1      20.928  -2.062  55.415  1.00  0.00     0.188 HD
ENDROOT
BRANCH   4  12
HETATM   12  N1  UNL     1      24.127   1.023  52.598  1.00  0.00    -0.337 N 
HETATM   13  H5  UNL     1      23.876   1.837  51.964  1.00  0.00     0.168 HD
BRANCH  12  14
HETATM   14  C6  UNL     1      25.450   0.562  52.861  1.00  0.00     0.072 A 
HETATM   15  C7  UNL     1      25.934  -0.624  52.345  1.00  0.00     0.034 A 
HETATM   16  C8  UNL     1      27.204  -1.084  52.585  1.00  0.00     0.021 A 
HETATM   17  C9  UNL     1      28.057  -0.347  53.375  1.00  0.00     0.014 A 
HETATM   18 BR1  UNL     1      29.845  -0.929  53.754  1.00  0.00    -0.051 Br
HETATM   19  C10 UNL     1      27.626   0.847  53.917  1.00  0.00     0.063 A 
HETATM   20  C11 UNL     1      26.346   1.261  53.645  1.00  0.00     0.144 A 
HETATM   21  F1  UNL     1      25.976   2.440  54.202  1.00  0.00    -0.204 F 
ENDBRANCH  12  14
ENDBRANCH   4  12
BRANCH   1  22
HETATM   22  O1  UNL     1      19.505   1.457  50.561  1.00  0.00    -0.353 OA
HETATM   23  C1  UNL     1      20.086   1.633  49.295  1.00  0.00     0.210 C 
ENDBRANCH   1  22
BRANCH  10  24
HETATM   24  O2  UNL     1      17.840  -0.279  52.191  1.00  0.00    -0.346 OA
BRANCH  24  25
HETATM   25  C15 UNL     1      17.155  -1.340  52.780  1.00  0.00     0.180 C 
BRANCH  25  26
HETATM   26  C16 UNL     1      15.859  -1.621  52.023  1.00  0.00     0.013 C 
HETATM   27  C17 UNL     1      14.745  -0.688  52.448  1.00  0.00     0.037 C 
HETATM   28  C18 UNL     1      13.499  -1.113  51.729  1.00  0.00     0.272 C 
HETATM   29  N5  UNL     1      13.061  -2.414  52.131  1.00  0.00     0.084 N 
HETATM   30  C19 UNL     1      12.504  -2.484  53.447  1.00  0.00     0.309 C 
HETATM   31  C20 UNL     1      14.082  -3.376  51.848  1.00  0.00     0.272 C 
HETATM   32  C21 UNL     1      15.431  -3.026  52.434  1.00  0.00     0.037 C 
ENDBRANCH  25  26
ENDBRANCH  24  25
ENDBRANCH  10  24
TORSDOF 6
ENDMDL
MODEL 6
REMARK VINA RESULT:      -7.5      4.393      9.850
REMARK  6 active torsions:
REMARK  status: ('A' for Active; 'I' for Inactive)
REMARK    1  A    between atoms: O1_2  and  C2_3 
REMARK    2  A    between atoms: C5_6  and  N1_7 
REMARK    3  A    between atoms: N1_7  and  C6_8 
REMARK    4  A    between atoms: C14_21  and  O2_22 
REMARK    5  A    between atoms: O2_22  and  C15_23 
REMARK    6  A    between atoms: C15_23  and  C16_24 
ROOT
HETATM    1  C2  UNL     1      21.362   1.908  52.252  1.00  0.00     0.105 A 
HETATM    2  C3  UNL     1      22.610   2.220  52.561  1.00  0.00     0.075 A 
HETATM    3  C4  UNL     1      23.585   2.647  51.560  1.00  0.00     0.104 A 
HETATM    4  C5  UNL     1      24.813   2.943  51.939  1.00  0.00     0.158 A 
HETATM    5  N2  UNL     1      25.715   3.353  50.920  1.00  0.00    -0.223 NA
HETATM    6  C12 UNL     1      25.334   3.426  49.684  1.00  0.00     0.226 A 
HETATM    7  N3  UNL     1      24.016   3.113  49.242  1.00  0.00    -0.287 N 
HETATM    8  N4  UNL     1      23.106   2.707  50.222  1.00  0.00    -0.260 N 
HETATM    9  C13 UNL     1      21.740   2.362  49.910  1.00  0.00     0.156 A 
HETATM   10  C14 UNL     1      20.888   1.976  50.874  1.00  0.00     0.119 A 
HETATM   11  H10 UNL     1      23.717   3.175  48.246  1.00  0.00     0.188 HD
ENDROOT
BRANCH   4  12
HETATM   12  N1  UNL     1      25.270   2.879  53.265  1.00  0.00    -0.337 N 
HETATM   13  H5  UNL     1      24.909   3.439  54.092  1.00  0.00     0.168 HD
BRANCH  12  14
HETATM   14  C6  UNL     1      26.321   1.918  53.319  1.00  0.00     0.072 A 
HETATM   15  C7  UNL     1      27.651   2.283  53.386  1.00  0.00     0.034 A 
HETATM   16  C8  UNL     1      28.677   1.373  53.439  1.00  0.00     0.021 A 
HETATM   17  C9  UNL     1      28.394   0.026  53.428  1.00  0.00     0.014 A 
HETATM   18 BR1  UNL     1      29.777  -1.301  53.499  1.00  0.00    -0.051 Br
HETATM   19  C10 UNL     1      27.081  -0.396  53.362  1.00  0.00     0.063 A 
HETATM   20  C11 UNL     1      26.093   0.556  53.311  1.00  0.00     0.144 A 
HETATM   21  F1  UNL     1      24.824   0.086  53.247  1.00  0.00    -0.204 F 
ENDBRANCH  12  14
ENDBRANCH   4  12
BRANCH   1  22
HETATM   22  O1  UNL     1      20.394   1.497  53.156  1.00  0.00    -0.353 OA
HETATM   23  C1  UNL     1      20.480   0.334  53.938  1.00  0.00     0.210 C 
ENDBRANCH   1  22
BRANCH  10  24
HETATM   24  O2  UNL     1      19.656   1.699  50.353  1.00  0.00    -0.346 OA
BRANCH  24  25
HETATM   25  C15 UNL     1      18.731   2.688  50.022  1.00  0.00     0.180 C 
BRANCH  25  26
HETATM   26  C16 UNL     1      17.527   2.622  50.958  1.00  0.00     0.013 C 
HETATM   27  C17 UNL     1      16.292   2.104  50.251  1.00  0.00     0.037 C 
HETATM   28  C18 UNL     1      15.150   2.179  51.221  1.00  0.00     0.272 C 
HETATM   29  N5  UNL     1      14.830   3.528  51.575  1.00  0.00     0.084 N 
HETATM   30  C19 UNL     1      14.199   4.290  50.543  1.00  0.00     0.309 C 
HETATM   31  C20 UNL     1      15.966   4.149  52.184  1.00  0.00     0.272 C 
HETATM   32  C21 UNL     1      17.227   4.064  51.355  1.00  0.00     0.037 C 
ENDBRANCH  25  26
ENDBRANCH  24  25
ENDBRANCH  10  24
TORSDOF 6
ENDMDL
MODEL 7
REMARK VINA RESULT:      -7.5      8.477     11.067
REMARK  6 active torsions:
REMARK  status: ('A' for Active; 'I' for Inactive)
REMARK    1  A    between atoms: O1_2  and  C2_3 
REMARK    2  A    between atoms: C5_6  and  N1_7 
REMARK    3  A    between atoms: N1_7  and  C6_8 
REMARK    4  A    between atoms: C14_21  and  O2_22 
REMARK    5  A    between atoms: O2_22  and  C15_23 
REMARK    6  A    between atoms: C15_23  and  C16_24 
ROOT
HETATM    1  C2  UNL     1      27.966   6.509  48.381  1.00  0.00     0.105 A 
HETATM    2  C3  UNL     1      26.890   5.831  48.746  1.00  0.00     0.075 A 
HETATM    3  C4  UNL     1      25.819   6.426  49.544  1.00  0.00     0.104 A 
HETATM    4  C5  UNL     1      24.774   5.691  49.872  1.00  0.00     0.158 A 
HETATM    5  N2  UNL     1      23.766   6.326  50.648  1.00  0.00    -0.223 NA
HETATM    6  C12 UNL     1      23.883   7.565  51.007  1.00  0.00     0.226 A 
HETATM    7  N3  UNL     1      24.999   8.384  50.670  1.00  0.00    -0.287 N 
HETATM    8  N4  UNL     1      26.007   7.788  49.906  1.00  0.00    -0.260 N 
HETATM    9  C13 UNL     1      27.189   8.506  49.496  1.00  0.00     0.156 A 
HETATM   10  C14 UNL     1      28.141   7.906  48.762  1.00  0.00     0.119 A 
HETATM   11  H10 UNL     1      25.085   9.380  50.962  1.00  0.00     0.188 HD
ENDROOT
BRANCH   4  12
HETATM   12  N1  UNL     1      24.603   4.347  49.505  1.00  0.00    -0.337 N 
HETATM   13  H5  UNL     1      24.231   3.981  48.581  1.00  0.00     0.168 HD
BRANCH  12  14
HETATM   14  C6  UNL     1      25.022   3.539  50.601  1.00  0.00     0.072 A 
HETATM   15  C7  UNL     1      24.322   3.489  51.791  1.00  0.00     0.034 A 
HETATM   16  C8  UNL     1      24.708   2.717  52.858  1.00  0.00     0.021 A 
HETATM   17  C9  UNL     1      25.843   1.944  52.763  1.00  0.00     0.014 A 
HETATM   18 BR1  UNL     1      26.443   0.842  54.213  1.00  0.00    -0.051 Br
HETATM   19  C10 UNL     1      26.582   1.955  51.597  1.00  0.00     0.063 A 
HETATM   20  C11 UNL     1      26.151   2.745  50.561  1.00  0.00     0.144 A 
HETATM   21  F1  UNL     1      26.914   2.717  49.441  1.00  0.00    -0.204 F 
ENDBRANCH  12  14
ENDBRANCH   4  12
BRANCH   1  22
HETATM   22  O1  UNL     1      29.012   6.000  47.626  1.00  0.00    -0.353 OA
HETATM   23  C1  UNL     1      30.186   5.450  48.166  1.00  0.00     0.210 C 
ENDBRANCH   1  22
BRANCH  10  24
HETATM   24  O2  UNL     1      29.164   8.770  48.491  1.00  0.00    -0.346 OA
BRANCH  24  25
HETATM   25  C15 UNL     1      29.384   9.316  47.227  1.00  0.00     0.180 C 
BRANCH  25  26
HETATM   26  C16 UNL     1      29.800  10.779  47.348  1.00  0.00     0.013 C 
HETATM   27  C17 UNL     1      29.630  11.299  48.760  1.00  0.00     0.037 C 
HETATM   28  C18 UNL     1      29.961  12.762  48.747  1.00  0.00     0.272 C 
HETATM   29  N5  UNL     1      29.033  13.519  47.965  1.00  0.00     0.084 N 
HETATM   30  C19 UNL     1      27.734  13.666  48.545  1.00  0.00     0.309 C 
HETATM   31  C20 UNL     1      29.049  13.053  46.612  1.00  0.00     0.272 C 
HETATM   32  C21 UNL     1      28.824  11.564  46.476  1.00  0.00     0.037 C 
ENDBRANCH  25  26
ENDBRANCH  24  25
ENDBRANCH  10  24
TORSDOF 6
ENDMDL
MODEL 8
REMARK VINA RESULT:      -7.4      4.043      9.385
REMARK  6 active torsions:
REMARK  status: ('A' for Active; 'I' for Inactive)
REMARK    1  A    between atoms: O1_2  and  C2_3 
REMARK    2  A    between atoms: C5_6  and  N1_7 
REMARK    3  A    between atoms: N1_7  and  C6_8 
REMARK    4  A    between atoms: C14_21  and  O2_22 
REMARK    5  A    between atoms: O2_22  and  C15_23 
REMARK    6  A    between atoms: C15_23  and  C16_24 
ROOT
HETATM    1  C2  UNL     1      19.414   0.553  51.146  1.00  0.00     0.105 A 
HETATM    2  C3  UNL     1      20.671   0.737  51.517  1.00  0.00     0.075 A 
HETATM    3  C4  UNL     1      21.233   0.129  52.721  1.00  0.00     0.104 A 
HETATM    4  C5  UNL     1      22.494   0.354  53.030  1.00  0.00     0.158 A 
HETATM    5  N2  UNL     1      22.983  -0.266  54.213  1.00  0.00    -0.223 NA
HETATM    6  C12 UNL     1      22.213  -1.012  54.940  1.00  0.00     0.226 A 
HETATM    7  N3  UNL     1      20.847  -1.275  54.633  1.00  0.00    -0.287 N 
HETATM    8  N4  UNL     1      20.338  -0.680  53.475  1.00  0.00    -0.260 N 
HETATM    9  C13 UNL     1      18.972  -0.865  53.050  1.00  0.00     0.156 A 
HETATM   10  C14 UNL     1      18.511  -0.279  51.932  1.00  0.00     0.119 A 
HETATM   11  H10 UNL     1      20.234  -1.878  55.222  1.00  0.00     0.188 HD
ENDROOT
BRANCH   4  12
HETATM   12  N1  UNL     1      23.365   1.154  52.274  1.00  0.00    -0.337 N 
HETATM   13  H5  UNL     1      23.097   1.849  51.517  1.00  0.00     0.168 HD
BRANCH  12  14
HETATM   14  C6  UNL     1      24.696   0.875  52.700  1.00  0.00     0.072 A 
HETATM   15  C7  UNL     1      25.329  -0.317  52.408  1.00  0.00     0.034 A 
HETATM   16  C8  UNL     1      26.610  -0.605  52.809  1.00  0.00     0.021 A 
HETATM   17  C9  UNL     1      27.320   0.323  53.536  1.00  0.00     0.014 A 
HETATM   18 BR1  UNL     1      29.113  -0.011  54.128  1.00  0.00    -0.051 Br
HETATM   19  C10 UNL     1      26.737   1.533  53.855  1.00  0.00     0.063 A 
HETATM   20  C11 UNL     1      25.453   1.769  53.430  1.00  0.00     0.144 A 
HETATM   21  F1  UNL     1      24.931   2.972  53.772  1.00  0.00    -0.204 F 
ENDBRANCH  12  14
ENDBRANCH   4  12
BRANCH   1  22
HETATM   22  O1  UNL     1      18.826   1.103  50.017  1.00  0.00    -0.353 OA
HETATM   23  C1  UNL     1      18.180   2.349  49.985  1.00  0.00     0.210 C 
ENDBRANCH   1  22
BRANCH  10  24
HETATM   24  O2  UNL     1      17.197  -0.590  51.725  1.00  0.00    -0.346 OA
BRANCH  24  25
HETATM   25  C15 UNL     1      16.223  -0.477  52.716  1.00  0.00     0.180 C 
BRANCH  25  26
HETATM   26  C16 UNL     1      14.924   0.061  52.122  1.00  0.00     0.013 C 
HETATM   27  C17 UNL     1      15.008   0.202  50.616  1.00  0.00     0.037 C 
HETATM   28  C18 UNL     1      13.731   0.834  50.149  1.00  0.00     0.272 C 
HETATM   29  N5  UNL     1      13.580   2.171  50.633  1.00  0.00     0.084 N 
HETATM   30  C19 UNL     1      14.451   3.133  50.031  1.00  0.00     0.309 C 
HETATM   31  C20 UNL     1      13.570   2.168  52.064  1.00  0.00     0.272 C 
HETATM   32  C21 UNL     1      14.762   1.471  52.682  1.00  0.00     0.037 C 
ENDBRANCH  25  26
ENDBRANCH  24  25
ENDBRANCH  10  24
TORSDOF 6
ENDMDL
MODEL 9
REMARK VINA RESULT:      -7.2      8.505     12.982
REMARK  6 active torsions:
REMARK  status: ('A' for Active; 'I' for Inactive)
REMARK    1  A    between atoms: O1_2  and  C2_3 
REMARK    2  A    between atoms: C5_6  and  N1_7 
REMARK    3  A    between atoms: N1_7  and  C6_8 
REMARK    4  A    between atoms: C14_21  and  O2_22 
REMARK    5  A    between atoms: O2_22  and  C15_23 
REMARK    6  A    between atoms: C15_23  and  C16_24 
ROOT
HETATM    1  C2  UNL     1      26.275   6.287  49.168  1.00  0.00     0.105 A 
HETATM    2  C3  UNL     1      27.364   6.596  48.483  1.00  0.00     0.075 A 
HETATM    3  C4  UNL     1      28.064   7.868  48.650  1.00  0.00     0.104 A 
HETATM    4  C5  UNL     1      29.144   8.111  47.934  1.00  0.00     0.158 A 
HETATM    5  N2  UNL     1      29.780   9.365  48.143  1.00  0.00    -0.223 NA
HETATM    6  C12 UNL     1      29.308  10.217  48.997  1.00  0.00     0.226 A 
HETATM    7  N3  UNL     1      28.144   9.986  49.784  1.00  0.00    -0.287 N 
HETATM    8  N4  UNL     1      27.497   8.760  49.602  1.00  0.00    -0.260 N 
HETATM    9  C13 UNL     1      26.309   8.400  50.337  1.00  0.00     0.156 A 
HETATM   10  C14 UNL     1      25.708   7.214  50.140  1.00  0.00     0.119 A 
HETATM   11  H10 UNL     1      27.772  10.676  50.470  1.00  0.00     0.188 HD
ENDROOT
BRANCH   4  12
HETATM   12  N1  UNL     1      29.691   7.219  46.999  1.00  0.00    -0.337 N 
HETATM   13  H5  UNL     1      29.239   6.883  46.099  1.00  0.00     0.168 HD
BRANCH  12  14
HETATM   14  C6  UNL     1      30.981   6.832  47.466  1.00  0.00     0.072 A 
HETATM   15  C7  UNL     1      31.158   6.105  48.627  1.00  0.00     0.034 A 
HETATM   16  C8  UNL     1      32.391   5.723  49.092  1.00  0.00     0.021 A 
HETATM   17  C9  UNL     1      33.521   6.067  48.387  1.00  0.00     0.014 A 
HETATM   18 BR1  UNL     1      35.276   5.567  48.979  1.00  0.00    -0.051 Br
HETATM   19  C10 UNL     1      33.404   6.793  47.219  1.00  0.00     0.063 A 
HETATM   20  C11 UNL     1      32.147   7.150  46.798  1.00  0.00     0.144 A 
HETATM   21  F1  UNL     1      32.091   7.862  45.646  1.00  0.00    -0.204 F 
ENDBRANCH  12  14
ENDBRANCH   4  12
BRANCH   1  22
HETATM   22  O1  UNL     1      25.570   5.098  49.052  1.00  0.00    -0.353 OA
HETATM   23  C1  UNL     1      25.977   3.876  49.610  1.00  0.00     0.210 C 
ENDBRANCH   1  22
BRANCH  10  24
HETATM   24  O2  UNL     1      24.607   7.087  50.938  1.00  0.00    -0.346 OA
BRANCH  24  25
HETATM   25  C15 UNL     1      23.331   7.482  50.541  1.00  0.00     0.180 C 
BRANCH  25  26
HETATM   26  C16 UNL     1      22.279   6.548  51.134  1.00  0.00     0.013 C 
HETATM   27  C17 UNL     1      22.890   5.256  51.633  1.00  0.00     0.037 C 
HETATM   28  C18 UNL     1      21.768   4.373  52.094  1.00  0.00     0.272 C 
HETATM   29  N5  UNL     1      20.913   3.980  51.016  1.00  0.00     0.084 N 
HETATM   30  C19 UNL     1      21.483   3.035  50.107  1.00  0.00     0.309 C 
HETATM   31  C20 UNL     1      20.337   5.141  50.410  1.00  0.00     0.272 C 
HETATM   32  C21 UNL     1      21.354   6.174  49.979  1.00  0.00     0.037 C 
ENDBRANCH  25  26
ENDBRANCH  24  25
ENDBRANCH  10  24
TORSDOF 6
ENDMDL
