MODEL 1
REMARK VINA RESULT:      -7.7      0.000      0.000
REMARK  5 active torsions:
REMARK  status: ('A' for Active; 'I' for Inactive)
REMARK    1  A    between atoms: C2_2  and  C3_3 
REMARK    2  A    between atoms: C3_3  and  C4_4 
REMARK    3  A    between atoms: C20_25  and  N3_26 
REMARK    4  A    between atoms: N3_26  and  C21_27 
REMARK       I    between atoms: N3_26  and  C23_29 
REMARK    5  A    between atoms: C23_29  and  O5_31 
ROOT
HETATM    1  C4  UNL     1      22.368   3.718  49.170  1.00  0.00     0.064 C 
HETATM    2  C5  UNL     1      21.063   4.340  48.772  1.00  0.00     0.132 C 
HETATM    3  N1  UNL     1      19.874   3.800  49.432  1.00  0.00    -0.357 N 
HETATM    4  C6  UNL     1      18.660   3.250  50.106  1.00  0.00     0.241 C 
HETATM    5  O1  UNL     1      18.047   3.658  49.157  1.00  0.00    -0.269 OA
HETATM    6  C7  UNL     1      18.740   2.567  51.447  1.00  0.00     0.083 C 
HETATM    7  C8  UNL     1      19.869   2.980  52.096  1.00  0.00    -0.022 C 
HETATM    8  C9  UNL     1      21.122   3.692  52.410  1.00  0.00     0.166 C 
HETATM    9  N2  UNL     1      22.088   2.993  51.584  1.00  0.00    -0.340 N 
HETATM   10  C10 UNL     1      21.807   1.706  52.258  1.00  0.00     0.043 A 
HETATM   11  C11 UNL     1      22.801   0.718  52.430  1.00  0.00     0.030 A 
HETATM   12  C12 UNL     1      22.360  -0.420  53.024  1.00  0.00     0.002 A 
HETATM   13  C13 UNL     1      21.062  -0.629  53.435  1.00  0.00     0.001 A 
HETATM   14  C14 UNL     1      20.122   0.395  53.228  1.00  0.00     0.014 A 
HETATM   15  C15 UNL     1      20.405   1.653  52.619  1.00  0.00    -0.001 A 
HETATM   16  C16 UNL     1      22.774   3.782  50.646  1.00  0.00     0.187 C 
HETATM   17  O2  UNL     1      22.158   5.099  50.815  1.00  0.00    -0.349 OA
HETATM   18  C17 UNL     1      22.806   6.124  50.299  1.00  0.00     0.144 C 
HETATM   19  C18 UNL     1      22.026   7.361  50.820  1.00  0.00     0.042 C 
HETATM   20  C19 UNL     1      24.232   6.372  50.823  1.00  0.00     0.202 C 
HETATM   21  O3  UNL     1      24.387   5.297  51.658  1.00  0.00    -0.359 OA
HETATM   22  C20 UNL     1      24.183   4.128  50.849  1.00  0.00     0.284 C 
HETATM   23  H11 UNL     1      20.462   3.382  50.141  1.00  0.00     0.162 HD
ENDROOT
BRANCH   1  24
HETATM   24  C3  UNL     1      22.724   2.436  48.526  1.00  0.00     0.011 C 
BRANCH  24  25
HETATM   25  C2  UNL     1      21.763   1.397  48.160  1.00  0.00    -0.004 C 
HETATM   26  C1  UNL     1      21.179   0.513  49.188  1.00  0.00     0.005 C 
ENDBRANCH  24  25
ENDBRANCH   1  24
BRANCH  22  27
HETATM   27  N3  UNL     1      25.236   3.359  51.351  1.00  0.00    -0.297 N 
HETATM   28  C23 UNL     1      25.381   2.937  52.677  1.00  0.00     0.364 C 
HETATM   29  O4  UNL     1      24.983   2.890  53.860  1.00  0.00    -0.238 OA
BRANCH  27  30
HETATM   30  C21 UNL     1      26.413   2.913  50.577  1.00  0.00     0.126 C 
HETATM   31  C22 UNL     1      26.564   3.809  49.388  1.00  0.00     0.027 C 
ENDBRANCH  27  30
BRANCH  28  32
HETATM   32  O5  UNL     1      26.368   2.167  53.274  1.00  0.00    -0.309 OA
HETATM   33  C24 UNL     1      26.230   0.899  53.817  1.00  0.00     0.215 C 
ENDBRANCH  28  32
ENDBRANCH  22  27
TORSDOF 5
ENDMDL
MODEL 2
REMARK VINA RESULT:      -7.4      6.768      9.158
REMARK  5 active torsions:
REMARK  status: ('A' for Active; 'I' for Inactive)
REMARK    1  A    between atoms: C2_2  and  C3_3 
REMARK    2  A    between atoms: C3_3  and  C4_4 
REMARK    3  A    between atoms: C20_25  and  N3_26 
REMARK    4  A    between atoms: N3_26  and  C21_27 
REMARK       I    between atoms: N3_26  and  C23_29 
REMARK    5  A    between atoms: C23_29  and  O5_31 
ROOT
HETATM    1  C4  UNL     1      28.319  10.286  46.368  1.00  0.00     0.064 C 
HETATM    2  C5  UNL     1      27.088  11.131  46.494  1.00  0.00     0.132 C 
HETATM    3  N1  UNL     1      25.942  10.493  47.141  1.00  0.00    -0.357 N 
HETATM    4  C6  UNL     1      24.771   9.842  47.801  1.00  0.00     0.241 C 
HETATM    5  O1  UNL     1      24.095  10.639  47.208  1.00  0.00    -0.269 OA
HETATM    6  C7  UNL     1      24.941   8.691  48.759  1.00  0.00     0.083 C 
HETATM    7  C8  UNL     1      26.207   8.714  49.270  1.00  0.00    -0.022 C 
HETATM    8  C9  UNL     1      27.593   9.130  49.559  1.00  0.00     0.166 C 
HETATM    9  N2  UNL     1      28.295   8.715  48.360  1.00  0.00    -0.340 N 
HETATM   10  C10 UNL     1      27.914   7.300  48.564  1.00  0.00     0.043 A 
HETATM   11  C11 UNL     1      28.748   6.234  48.163  1.00  0.00     0.030 A 
HETATM   12  C12 UNL     1      28.223   5.002  48.381  1.00  0.00     0.002 A 
HETATM   13  C13 UNL     1      26.985   4.773  48.943  1.00  0.00     0.001 A 
HETATM   14  C14 UNL     1      26.205   5.881  49.315  1.00  0.00     0.014 A 
HETATM   15  C15 UNL     1      26.593   7.244  49.158  1.00  0.00    -0.001 A 
HETATM   16  C16 UNL     1      28.949   9.737  47.652  1.00  0.00     0.187 C 
HETATM   17  O2  UNL     1      28.590  10.939  48.407  1.00  0.00    -0.349 OA
HETATM   18  C17 UNL     1      29.310  12.018  48.177  1.00  0.00     0.144 C 
HETATM   19  C18 UNL     1      28.831  13.026  49.255  1.00  0.00     0.042 C 
HETATM   20  C19 UNL     1      30.821  11.910  48.454  1.00  0.00     0.202 C 
HETATM   21  O3  UNL     1      30.923  10.588  48.794  1.00  0.00    -0.359 OA
HETATM   22  C20 UNL     1      30.411   9.844  47.677  1.00  0.00     0.284 C 
HETATM   23  H11 UNL     1      26.554   9.780  47.516  1.00  0.00     0.162 HD
ENDROOT
BRANCH   1  24
HETATM   24  C3  UNL     1      28.359   9.324  45.246  1.00  0.00     0.011 C 
BRANCH  24  25
HETATM   25  C2  UNL     1      27.277   8.400  44.906  1.00  0.00    -0.004 C 
HETATM   26  C1  UNL     1      26.346   8.702  43.801  1.00  0.00     0.005 C 
ENDBRANCH  24  25
ENDBRANCH   1  24
BRANCH  22  27
HETATM   27  N3  UNL     1      31.389   8.847  47.642  1.00  0.00    -0.297 N 
HETATM   28  C23 UNL     1      31.798   8.066  48.728  1.00  0.00     0.364 C 
HETATM   29  O4  UNL     1      31.731   7.747  49.934  1.00  0.00    -0.238 OA
BRANCH  27  30
HETATM   30  C21 UNL     1      32.203   8.490  46.464  1.00  0.00     0.126 C 
HETATM   31  C22 UNL     1      31.453   7.473  45.661  1.00  0.00     0.027 C 
ENDBRANCH  27  30
BRANCH  28  32
HETATM   32  O5  UNL     1      32.739   7.049  48.802  1.00  0.00    -0.309 OA
HETATM   33  C24 UNL     1      32.498   5.687  48.869  1.00  0.00     0.215 C 
ENDBRANCH  28  32
ENDBRANCH  22  27
TORSDOF 5
ENDMDL
MODEL 3
REMARK VINA RESULT:      -7.2      1.851      2.970
REMARK  5 active torsions:
REMARK  status: ('A' for Active; 'I' for Inactive)
REMARK    1  A    between atoms: C2_2  and  C3_3 
REMARK    2  A    between atoms: C3_3  and  C4_4 
REMARK    3  A    between atoms: C20_25  and  N3_26 
REMARK    4  A    between atoms: N3_26  and  C21_27 
REMARK       I    between atoms: N3_26  and  C23_29 
REMARK    5  A    between atoms: C23_29  and  O5_31 
ROOT
HETATM    1  C4  UNL     1      20.603   2.398  49.164  1.00  0.00     0.064 C 
HETATM    2  C5  UNL     1      19.192   1.917  49.001  1.00  0.00     0.132 C 
HETATM    3  N1  UNL     1      18.750   0.906  49.962  1.00  0.00    -0.357 N 
HETATM    4  C6  UNL     1      18.299  -0.126  50.942  1.00  0.00     0.241 C 
HETATM    5  O1  UNL     1      17.486  -0.440  50.115  1.00  0.00    -0.269 OA
HETATM    6  C7  UNL     1      18.944  -0.268  52.297  1.00  0.00     0.083 C 
HETATM    7  C8  UNL     1      19.550   0.910  52.632  1.00  0.00    -0.022 C 
HETATM    8  C9  UNL     1      20.013   2.309  52.583  1.00  0.00     0.166 C 
HETATM    9  N2  UNL     1      21.114   2.236  51.643  1.00  0.00    -0.340 N 
HETATM   10  C10 UNL     1      21.843   1.270  52.494  1.00  0.00     0.043 A 
HETATM   11  C11 UNL     1      23.254   1.231  52.545  1.00  0.00     0.030 A 
HETATM   12  C12 UNL     1      23.757   0.252  53.338  1.00  0.00     0.002 A 
HETATM   13  C13 UNL     1      22.988  -0.646  54.047  1.00  0.00     0.001 A 
HETATM   14  C14 UNL     1      21.590  -0.554  53.946  1.00  0.00     0.014 A 
HETATM   15  C15 UNL     1      20.888   0.407  53.161  1.00  0.00    -0.001 A 
HETATM   16  C16 UNL     1      20.994   3.041  50.498  1.00  0.00     0.187 C 
HETATM   17  O2  UNL     1      19.669   3.642  50.660  1.00  0.00    -0.349 OA
HETATM   18  C17 UNL     1      19.401   4.691  49.908  1.00  0.00     0.144 C 
HETATM   19  C18 UNL     1      18.043   5.207  50.454  1.00  0.00     0.042 C 
HETATM   20  C19 UNL     1      20.324   5.911  50.073  1.00  0.00     0.202 C 
HETATM   21  O3  UNL     1      21.241   5.418  50.962  1.00  0.00    -0.359 OA
HETATM   22  C20 UNL     1      21.809   4.250  50.346  1.00  0.00     0.284 C 
HETATM   23  H11 UNL     1      19.529   1.142  50.563  1.00  0.00     0.162 HD
ENDROOT
BRANCH   1  24
HETATM   24  C3  UNL     1      21.670   1.547  48.596  1.00  0.00     0.011 C 
BRANCH  24  25
HETATM   25  C2  UNL     1      22.449   1.878  47.404  1.00  0.00    -0.004 C 
HETATM   26  C1  UNL     1      22.218   3.143  46.678  1.00  0.00     0.005 C 
ENDBRANCH  24  25
ENDBRANCH   1  24
BRANCH  22  27
HETATM   27  N3  UNL     1      23.145   4.484  50.680  1.00  0.00    -0.297 N 
HETATM   28  C23 UNL     1      24.254   3.864  50.095  1.00  0.00     0.364 C 
HETATM   29  O4  UNL     1      24.755   3.058  49.283  1.00  0.00    -0.238 OA
BRANCH  27  30
HETATM   30  C21 UNL     1      23.613   5.382  51.755  1.00  0.00     0.126 C 
HETATM   31  C22 UNL     1      23.631   4.614  53.039  1.00  0.00     0.027 C 
ENDBRANCH  27  30
BRANCH  28  32
HETATM   32  O5  UNL     1      25.610   4.030  50.336  1.00  0.00    -0.309 OA
HETATM   33  C24 UNL     1      26.496   3.085  50.828  1.00  0.00     0.215 C 
ENDBRANCH  28  32
ENDBRANCH  22  27
TORSDOF 5
ENDMDL
MODEL 4
REMARK VINA RESULT:      -7.1      2.136      6.544
REMARK  5 active torsions:
REMARK  status: ('A' for Active; 'I' for Inactive)
REMARK    1  A    between atoms: C2_2  and  C3_3 
REMARK    2  A    between atoms: C3_3  and  C4_4 
REMARK    3  A    between atoms: C20_25  and  N3_26 
REMARK    4  A    between atoms: N3_26  and  C21_27 
REMARK       I    between atoms: N3_26  and  C23_29 
REMARK    5  A    between atoms: C23_29  and  O5_31 
ROOT
HETATM    1  C4  UNL     1      21.679   1.542  50.093  1.00  0.00     0.064 C 
HETATM    2  C5  UNL     1      23.098   1.407  50.557  1.00  0.00     0.132 C 
HETATM    3  N1  UNL     1      23.809   2.662  50.804  1.00  0.00    -0.357 N 
HETATM    4  C6  UNL     1      24.535   3.942  51.056  1.00  0.00     0.241 C 
HETATM    5  O1  UNL     1      25.543   3.313  50.876  1.00  0.00    -0.269 OA
HETATM    6  C7  UNL     1      23.802   5.217  51.383  1.00  0.00     0.083 C 
HETATM    7  C8  UNL     1      22.569   4.911  51.885  1.00  0.00    -0.022 C 
HETATM    8  C9  UNL     1      21.408   4.145  52.374  1.00  0.00     0.166 C 
HETATM    9  N2  UNL     1      20.804   3.681  51.140  1.00  0.00    -0.340 N 
HETATM   10  C10 UNL     1      20.598   5.065  50.660  1.00  0.00     0.043 A 
HETATM   11  C11 UNL     1      19.505   5.419  49.839  1.00  0.00     0.030 A 
HETATM   12  C12 UNL     1      19.497   6.720  49.451  1.00  0.00     0.002 A 
HETATM   13  C13 UNL     1      20.456   7.643  49.808  1.00  0.00     0.001 A 
HETATM   14  C14 UNL     1      21.520   7.221  50.624  1.00  0.00     0.014 A 
HETATM   15  C15 UNL     1      21.692   5.897  51.122  1.00  0.00    -0.001 A 
HETATM   16  C16 UNL     1      20.695   2.287  51.000  1.00  0.00     0.187 C 
HETATM   17  O2  UNL     1      21.346   1.785  52.211  1.00  0.00    -0.349 OA
HETATM   18  C17 UNL     1      21.121   0.525  52.524  1.00  0.00     0.144 C 
HETATM   19  C18 UNL     1      21.759   0.368  53.930  1.00  0.00     0.042 C 
HETATM   20  C19 UNL     1      19.654   0.127  52.766  1.00  0.00     0.202 C 
HETATM   21  O3  UNL     1      19.019   1.301  52.464  1.00  0.00    -0.359 OA
HETATM   22  C20 UNL     1      19.392   1.625  51.115  1.00  0.00     0.284 C 
HETATM   23  H11 UNL     1      22.926   3.154  50.828  1.00  0.00     0.162 HD
ENDROOT
BRANCH   1  24
HETATM   24  C3  UNL     1      21.468   1.820  48.656  1.00  0.00     0.011 C 
BRANCH  24  25
HETATM   25  C2  UNL     1      22.412   2.538  47.803  1.00  0.00    -0.004 C 
HETATM   26  C1  UNL     1      22.409   4.014  47.747  1.00  0.00     0.005 C 
ENDBRANCH  24  25
ENDBRANCH   1  24
BRANCH  22  27
HETATM   27  N3  UNL     1      18.135   2.025  50.655  1.00  0.00    -0.297 N 
HETATM   28  C23 UNL     1      17.337   3.024  51.222  1.00  0.00     0.364 C 
HETATM   29  O4  UNL     1      17.131   3.900  52.089  1.00  0.00    -0.238 OA
BRANCH  27  30
HETATM   30  C21 UNL     1      17.404   1.414  49.527  1.00  0.00     0.126 C 
HETATM   31  C22 UNL     1      17.098  -0.009  49.877  1.00  0.00     0.027 C 
ENDBRANCH  27  30
BRANCH  28  32
HETATM   32  O5  UNL     1      16.093   3.506  50.843  1.00  0.00    -0.309 OA
HETATM   33  C24 UNL     1      15.063   3.916  51.674  1.00  0.00     0.215 C 
ENDBRANCH  28  32
ENDBRANCH  22  27
TORSDOF 5
ENDMDL
MODEL 5
REMARK VINA RESULT:      -7.1      1.839      5.767
REMARK  5 active torsions:
REMARK  status: ('A' for Active; 'I' for Inactive)
REMARK    1  A    between atoms: C2_2  and  C3_3 
REMARK    2  A    between atoms: C3_3  and  C4_4 
REMARK    3  A    between atoms: C20_25  and  N3_26 
REMARK    4  A    between atoms: N3_26  and  C21_27 
REMARK       I    between atoms: N3_26  and  C23_29 
REMARK    5  A    between atoms: C23_29  and  O5_31 
ROOT
HETATM    1  C4  UNL     1      24.253   2.996  49.602  1.00  0.00     0.064 C 
HETATM    2  C5  UNL     1      25.628   3.593  49.619  1.00  0.00     0.132 C 
HETATM    3  N1  UNL     1      25.686   5.054  49.678  1.00  0.00    -0.357 N 
HETATM    4  C6  UNL     1      25.747   6.544  49.738  1.00  0.00     0.241 C 
HETATM    5  O1  UNL     1      26.840   6.440  49.249  1.00  0.00    -0.269 OA
HETATM    6  C7  UNL     1      24.614   7.361  50.303  1.00  0.00     0.083 C 
HETATM    7  C8  UNL     1      23.870   6.579  51.141  1.00  0.00    -0.022 C 
HETATM    8  C9  UNL     1      23.403   5.425  51.932  1.00  0.00     0.166 C 
HETATM    9  N2  UNL     1      22.784   4.590  50.920  1.00  0.00    -0.340 N 
HETATM   10  C10 UNL     1      21.817   5.651  50.562  1.00  0.00     0.043 A 
HETATM   11  C11 UNL     1      20.512   5.355  50.114  1.00  0.00     0.030 A 
HETATM   12  C12 UNL     1      19.775   6.446  49.782  1.00  0.00     0.002 A 
HETATM   13  C13 UNL     1      20.230   7.744  49.863  1.00  0.00     0.001 A 
HETATM   14  C14 UNL     1      21.542   7.967  50.313  1.00  0.00     0.014 A 
HETATM   15  C15 UNL     1      22.457   6.944  50.701  1.00  0.00    -0.001 A 
HETATM   16  C16 UNL     1      23.323   3.300  50.781  1.00  0.00     0.187 C 
HETATM   17  O2  UNL     1      24.438   3.308  51.730  1.00  0.00    -0.349 OA
HETATM   18  C17 UNL     1      24.940   2.135  52.060  1.00  0.00     0.144 C 
HETATM   19  C18 UNL     1      25.933   2.462  53.208  1.00  0.00     0.042 C 
HETATM   20  C19 UNL     1      23.974   1.132  52.716  1.00  0.00     0.202 C 
HETATM   21  O3  UNL     1      22.799   1.830  52.649  1.00  0.00    -0.359 OA
HETATM   22  C20 UNL     1      22.586   2.127  51.260  1.00  0.00     0.284 C 
HETATM   23  H11 UNL     1      24.720   5.077  49.977  1.00  0.00     0.162 HD
ENDROOT
BRANCH   1  24
HETATM   24  C3  UNL     1      23.550   2.970  48.302  1.00  0.00     0.011 C 
BRANCH  24  25
HETATM   25  C2  UNL     1      22.842   4.108  47.718  1.00  0.00    -0.004 C 
HETATM   26  C1  UNL     1      21.882   3.914  46.613  1.00  0.00     0.005 C 
ENDBRANCH  24  25
ENDBRANCH   1  24
BRANCH  22  27
HETATM   27  N3  UNL     1      21.220   1.837  51.206  1.00  0.00    -0.297 N 
HETATM   28  C23 UNL     1      20.227   2.433  51.990  1.00  0.00     0.364 C 
HETATM   29  O4  UNL     1      19.868   3.233  52.880  1.00  0.00    -0.238 OA
BRANCH  27  30
HETATM   30  C21 UNL     1      20.599   0.804  50.354  1.00  0.00     0.126 C 
HETATM   31  C22 UNL     1      20.405   1.375  48.983  1.00  0.00     0.027 C 
ENDBRANCH  27  30
BRANCH  28  32
HETATM   32  O5  UNL     1      18.854   2.234  52.009  1.00  0.00    -0.309 OA
HETATM   33  C24 UNL     1      17.876   3.085  51.521  1.00  0.00     0.215 C 
ENDBRANCH  28  32
ENDBRANCH  22  27
TORSDOF 5
ENDMDL
MODEL 6
REMARK VINA RESULT:      -6.7      2.462      5.677
REMARK  5 active torsions:
REMARK  status: ('A' for Active; 'I' for Inactive)
REMARK    1  A    between atoms: C2_2  and  C3_3 
REMARK    2  A    between atoms: C3_3  and  C4_4 
REMARK    3  A    between atoms: C20_25  and  N3_26 
REMARK    4  A    between atoms: N3_26  and  C21_27 
REMARK       I    between atoms: N3_26  and  C23_29 
REMARK    5  A    between atoms: C23_29  and  O5_31 
ROOT
HETATM    1  C4  UNL     1      22.149   5.585  49.302  1.00  0.00     0.064 C 
HETATM    2  C5  UNL     1      23.102   6.234  48.344  1.00  0.00     0.132 C 
HETATM    3  N1  UNL     1      24.519   5.932  48.553  1.00  0.00    -0.357 N 
HETATM    4  C6  UNL     1      25.964   5.625  48.766  1.00  0.00     0.241 C 
HETATM    5  O1  UNL     1      26.186   6.656  48.191  1.00  0.00    -0.269 OA
HETATM    6  C7  UNL     1      26.412   4.369  49.469  1.00  0.00     0.083 C 
HETATM    7  C8  UNL     1      25.421   3.432  49.389  1.00  0.00    -0.022 C 
HETATM    8  C9  UNL     1      24.153   2.762  49.048  1.00  0.00     0.166 C 
HETATM    9  N2  UNL     1      23.220   3.384  49.968  1.00  0.00    -0.340 N 
HETATM   10  C10 UNL     1      23.985   2.913  51.143  1.00  0.00     0.043 A 
HETATM   11  C11 UNL     1      23.358   2.590  52.366  1.00  0.00     0.030 A 
HETATM   12  C12 UNL     1      24.214   2.222  53.353  1.00  0.00     0.002 A 
HETATM   13  C13 UNL     1      25.583   2.160  53.209  1.00  0.00     0.001 A 
HETATM   14  C14 UNL     1      26.142   2.500  51.966  1.00  0.00     0.014 A 
HETATM   15  C15 UNL     1      25.399   2.910  50.821  1.00  0.00    -0.001 A 
HETATM   16  C16 UNL     1      22.136   4.055  49.377  1.00  0.00     0.187 C 
HETATM   17  O2  UNL     1      22.414   3.928  47.945  1.00  0.00    -0.349 OA
HETATM   18  C17 UNL     1      21.415   4.179  47.125  1.00  0.00     0.144 C 
HETATM   19  C18 UNL     1      21.957   3.760  45.733  1.00  0.00     0.042 C 
HETATM   20  C19 UNL     1      20.158   3.304  47.282  1.00  0.00     0.202 C 
HETATM   21  O3  UNL     1      20.505   2.553  48.373  1.00  0.00    -0.359 OA
HETATM   22  C20 UNL     1      20.787   3.485  49.429  1.00  0.00     0.284 C 
HETATM   23  H11 UNL     1      24.261   5.141  49.128  1.00  0.00     0.162 HD
ENDROOT
BRANCH   1  24
HETATM   24  C3  UNL     1      21.982   6.232  50.621  1.00  0.00     0.011 C 
BRANCH  24  25
HETATM   25  C2  UNL     1      21.569   7.620  50.817  1.00  0.00    -0.004 C 
HETATM   26  C1  UNL     1      20.466   8.200  50.026  1.00  0.00     0.005 C 
ENDBRANCH  24  25
ENDBRANCH   1  24
BRANCH  22  27
HETATM   27  N3  UNL     1      20.133   2.811  50.463  1.00  0.00    -0.297 N 
HETATM   28  C23 UNL     1      20.327   1.471  50.816  1.00  0.00     0.364 C 
HETATM   29  O4  UNL     1      20.881   0.364  50.648  1.00  0.00    -0.238 OA
BRANCH  27  30
HETATM   30  C21 UNL     1      19.076   3.382  51.322  1.00  0.00     0.126 C 
HETATM   31  C22 UNL     1      18.340   4.422  50.537  1.00  0.00     0.027 C 
ENDBRANCH  27  30
BRANCH  28  32
HETATM   32  O5  UNL     1      19.748   0.712  51.823  1.00  0.00    -0.309 OA
HETATM   33  C24 UNL     1      18.672  -0.153  51.709  1.00  0.00     0.215 C 
ENDBRANCH  28  32
ENDBRANCH  22  27
TORSDOF 5
ENDMDL
MODEL 7
REMARK VINA RESULT:      -6.7      2.340      5.362
REMARK  5 active torsions:
REMARK  status: ('A' for Active; 'I' for Inactive)
REMARK    1  A    between atoms: C2_2  and  C3_3 
REMARK    2  A    between atoms: C3_3  and  C4_4 
REMARK    3  A    between atoms: C20_25  and  N3_26 
REMARK    4  A    between atoms: N3_26  and  C21_27 
REMARK       I    between atoms: N3_26  and  C23_29 
REMARK    5  A    between atoms: C23_29  and  O5_31 
ROOT
HETATM    1  C4  UNL     1      21.690   4.801  51.066  1.00  0.00     0.064 C 
HETATM    2  C5  UNL     1      20.623   3.763  51.240  1.00  0.00     0.132 C 
HETATM    3  N1  UNL     1      19.967   3.312  50.012  1.00  0.00    -0.357 N 
HETATM    4  C6  UNL     1      19.297   2.852  48.760  1.00  0.00     0.241 C 
HETATM    5  O1  UNL     1      18.375   2.540  49.463  1.00  0.00    -0.269 OA
HETATM    6  C7  UNL     1      19.973   2.954  47.416  1.00  0.00     0.083 C 
HETATM    7  C8  UNL     1      21.326   3.015  47.597  1.00  0.00    -0.022 C 
HETATM    8  C9  UNL     1      22.653   3.028  48.240  1.00  0.00     0.166 C 
HETATM    9  N2  UNL     1      22.716   4.370  48.786  1.00  0.00    -0.340 N 
HETATM   10  C10 UNL     1      22.565   4.978  47.446  1.00  0.00     0.043 A 
HETATM   11  C11 UNL     1      23.165   6.210  47.108  1.00  0.00     0.030 A 
HETATM   12  C12 UNL     1      22.882   6.644  45.854  1.00  0.00     0.002 A 
HETATM   13  C13 UNL     1      22.082   5.967  44.960  1.00  0.00     0.001 A 
HETATM   14  C14 UNL     1      21.511   4.748  45.363  1.00  0.00     0.014 A 
HETATM   15  C15 UNL     1      21.696   4.142  46.640  1.00  0.00    -0.001 A 
HETATM   16  C16 UNL     1      22.890   4.456  50.178  1.00  0.00     0.187 C 
HETATM   17  O2  UNL     1      22.867   3.053  50.596  1.00  0.00    -0.349 OA
HETATM   18  C17 UNL     1      23.323   2.790  51.804  1.00  0.00     0.144 C 
HETATM   19  C18 UNL     1      23.362   1.240  51.861  1.00  0.00     0.042 C 
HETATM   20  C19 UNL     1      24.785   3.181  52.088  1.00  0.00     0.202 C 
HETATM   21  O3  UNL     1      25.116   3.801  50.913  1.00  0.00    -0.359 OA
HETATM   22  C20 UNL     1      24.175   4.873  50.745  1.00  0.00     0.284 C 
HETATM   23  H11 UNL     1      20.725   3.703  49.468  1.00  0.00     0.162 HD
ENDROOT
BRANCH   1  24
HETATM   24  C3  UNL     1      21.243   6.202  50.918  1.00  0.00     0.011 C 
BRANCH  24  25
HETATM   25  C2  UNL     1      20.353   6.682  49.862  1.00  0.00    -0.004 C 
HETATM   26  C1  UNL     1      20.546   8.016  49.260  1.00  0.00     0.005 C 
ENDBRANCH  24  25
ENDBRANCH   1  24
BRANCH  22  27
HETATM   27  N3  UNL     1      25.073   5.855  50.318  1.00  0.00    -0.297 N 
HETATM   28  C23 UNL     1      26.104   5.671  49.390  1.00  0.00     0.364 C 
HETATM   29  O4  UNL     1      26.756   4.948  48.608  1.00  0.00    -0.238 OA
BRANCH  27  30
HETATM   30  C21 UNL     1      25.127   7.241  50.823  1.00  0.00     0.126 C 
HETATM   31  C22 UNL     1      24.172   8.073  50.024  1.00  0.00     0.027 C 
ENDBRANCH  27  30
BRANCH  28  32
HETATM   32  O5  UNL     1      27.034   6.569  48.888  1.00  0.00    -0.309 OA
HETATM   33  C24 UNL     1      28.233   6.272  48.260  1.00  0.00     0.215 C 
ENDBRANCH  28  32
ENDBRANCH  22  27
TORSDOF 5
ENDMDL
MODEL 8
REMARK VINA RESULT:      -6.6      8.536     11.762
REMARK  5 active torsions:
REMARK  status: ('A' for Active; 'I' for Inactive)
REMARK    1  A    between atoms: C2_2  and  C3_3 
REMARK    2  A    between atoms: C3_3  and  C4_4 
REMARK    3  A    between atoms: C20_25  and  N3_26 
REMARK    4  A    between atoms: N3_26  and  C21_27 
REMARK       I    between atoms: N3_26  and  C23_29 
REMARK    5  A    between atoms: C23_29  and  O5_31 
ROOT
HETATM    1  C4  UNL     1      31.194   9.785  48.551  1.00  0.00     0.064 C 
HETATM    2  C5  UNL     1      30.450   9.536  49.829  1.00  0.00     0.132 C 
HETATM    3  N1  UNL     1      29.012   9.301  49.692  1.00  0.00    -0.357 N 
HETATM    4  C6  UNL     1      27.545   9.062  49.553  1.00  0.00     0.241 C 
HETATM    5  O1  UNL     1      27.458   9.427  50.694  1.00  0.00    -0.269 OA
HETATM    6  C7  UNL     1      26.944   8.544  48.271  1.00  0.00     0.083 C 
HETATM    7  C8  UNL     1      27.909   7.897  47.552  1.00  0.00    -0.022 C 
HETATM    8  C9  UNL     1      29.202   7.306  47.159  1.00  0.00     0.166 C 
HETATM    9  N2  UNL     1      29.965   8.473  46.761  1.00  0.00    -0.340 N 
HETATM   10  C10 UNL     1      28.985   8.817  45.707  1.00  0.00     0.043 A 
HETATM   11  C11 UNL     1      29.369   9.449  44.504  1.00  0.00     0.030 A 
HETATM   12  C12 UNL     1      28.337   9.736  43.671  1.00  0.00     0.002 A 
HETATM   13  C13 UNL     1      27.016   9.452  43.943  1.00  0.00     0.001 A 
HETATM   14  C14 UNL     1      26.704   8.827  45.162  1.00  0.00     0.014 A 
HETATM   15  C15 UNL     1      27.655   8.455  46.157  1.00  0.00    -0.001 A 
HETATM   16  C16 UNL     1      31.155   8.697  47.474  1.00  0.00     0.187 C 
HETATM   17  O2  UNL     1      31.141   7.628  48.475  1.00  0.00    -0.349 OA
HETATM   18  C17 UNL     1      32.281   7.379  49.087  1.00  0.00     0.144 C 
HETATM   19  C18 UNL     1      31.993   6.092  49.906  1.00  0.00     0.042 C 
HETATM   20  C19 UNL     1      33.465   6.963  48.197  1.00  0.00     0.202 C 
HETATM   21  O3  UNL     1      32.905   7.087  46.954  1.00  0.00    -0.359 OA
HETATM   22  C20 UNL     1      32.457   8.448  46.848  1.00  0.00     0.284 C 
HETATM   23  H11 UNL     1      29.139   9.118  48.705  1.00  0.00     0.162 HD
ENDROOT
BRANCH   1  24
HETATM   24  C3  UNL     1      31.132  11.153  47.996  1.00  0.00     0.011 C 
BRANCH  24  25
HETATM   25  C2  UNL     1      30.014  12.076  48.185  1.00  0.00    -0.004 C 
HETATM   26  C1  UNL     1      28.841  12.035  47.289  1.00  0.00     0.005 C 
ENDBRANCH  24  25
ENDBRANCH   1  24
BRANCH  22  27
HETATM   27  N3  UNL     1      32.893   8.696  45.545  1.00  0.00    -0.297 N 
HETATM   28  C23 UNL     1      32.561   7.941  44.414  1.00  0.00     0.364 C 
HETATM   29  O4  UNL     1      31.973   6.981  43.874  1.00  0.00    -0.238 OA
BRANCH  27  30
HETATM   30  C21 UNL     1      33.832   9.763  45.146  1.00  0.00     0.126 C 
HETATM   31  C22 UNL     1      33.057  11.030  44.959  1.00  0.00     0.027 C 
ENDBRANCH  27  30
BRANCH  28  32
HETATM   32  O5  UNL     1      32.922   8.104  43.085  1.00  0.00    -0.309 OA
HETATM   33  C24 UNL     1      32.142   8.616  42.061  1.00  0.00     0.215 C 
ENDBRANCH  28  32
ENDBRANCH  22  27
TORSDOF 5
ENDMDL
MODEL 9
REMARK VINA RESULT:      -6.5      1.981      3.449
REMARK  5 active torsions:
REMARK  status: ('A' for Active; 'I' for Inactive)
REMARK    1  A    between atoms: C2_2  and  C3_3 
REMARK    2  A    between atoms: C3_3  and  C4_4 
REMARK    3  A    between atoms: C20_25  and  N3_26 
REMARK    4  A    between atoms: N3_26  and  C21_27 
REMARK       I    between atoms: N3_26  and  C23_29 
REMARK    5  A    between atoms: C23_29  and  O5_31 
ROOT
HETATM    1  C4  UNL     1      20.378   2.540  49.034  1.00  0.00     0.064 C 
HETATM    2  C5  UNL     1      19.067   1.859  49.291  1.00  0.00     0.132 C 
HETATM    3  N1  UNL     1      19.049   0.917  50.412  1.00  0.00    -0.357 N 
HETATM    4  C6  UNL     1      19.029  -0.044  51.554  1.00  0.00     0.241 C 
HETATM    5  O1  UNL     1      18.096  -0.559  51.000  1.00  0.00    -0.269 OA
HETATM    6  C7  UNL     1      20.008   0.062  52.695  1.00  0.00     0.083 C 
HETATM    7  C8  UNL     1      20.483   1.342  52.763  1.00  0.00    -0.022 C 
HETATM    8  C9  UNL     1      20.688   2.775  52.484  1.00  0.00     0.166 C 
HETATM    9  N2  UNL     1      21.515   2.741  51.293  1.00  0.00    -0.340 N 
HETATM   10  C10 UNL     1      22.579   1.988  51.992  1.00  0.00     0.043 A 
HETATM   11  C11 UNL     1      23.945   2.145  51.669  1.00  0.00     0.030 A 
HETATM   12  C12 UNL     1      24.782   1.342  52.374  1.00  0.00     0.002 A 
HETATM   13  C13 UNL     1      24.369   0.439  53.330  1.00  0.00     0.001 A 
HETATM   14  C14 UNL     1      22.994   0.330  53.598  1.00  0.00     0.014 A 
HETATM   15  C15 UNL     1      21.973   1.089  52.955  1.00  0.00    -0.001 A 
HETATM   16  C16 UNL     1      20.983   3.382  50.161  1.00  0.00     0.187 C 
HETATM   17  O2  UNL     1      19.663   3.815  50.622  1.00  0.00    -0.349 OA
HETATM   18  C17 UNL     1      19.050   4.722  49.889  1.00  0.00     0.144 C 
HETATM   19  C18 UNL     1      17.808   5.112  50.735  1.00  0.00     0.042 C 
HETATM   20  C19 UNL     1      19.777   6.066  49.707  1.00  0.00     0.202 C 
HETATM   21  O3  UNL     1      20.955   5.808  50.355  1.00  0.00    -0.359 OA
HETATM   22  C20 UNL     1      21.529   4.663  49.705  1.00  0.00     0.284 C 
HETATM   23  H11 UNL     1      19.906   1.324  50.763  1.00  0.00     0.162 HD
ENDROOT
BRANCH   1  24
HETATM   24  C3  UNL     1      21.390   1.779  48.272  1.00  0.00     0.011 C 
BRANCH  24  25
HETATM   25  C2  UNL     1      22.196   2.330  47.184  1.00  0.00    -0.004 C 
HETATM   26  C1  UNL     1      21.629   3.328  46.255  1.00  0.00     0.005 C 
ENDBRANCH  24  25
ENDBRANCH   1  24
BRANCH  22  27
HETATM   27  N3  UNL     1      22.851   5.112  49.651  1.00  0.00    -0.297 N 
HETATM   28  C23 UNL     1      23.608   5.555  50.741  1.00  0.00     0.364 C 
HETATM   29  O4  UNL     1      23.731   5.807  51.958  1.00  0.00    -0.238 OA
BRANCH  27  30
HETATM   30  C21 UNL     1      23.656   5.255  48.421  1.00  0.00     0.126 C 
HETATM   31  C22 UNL     1      23.150   6.441  47.660  1.00  0.00     0.027 C 
ENDBRANCH  27  30
BRANCH  28  32
HETATM   32  O5  UNL     1      24.919   6.004  50.804  1.00  0.00    -0.309 OA
HETATM   33  C24 UNL     1      25.378   7.289  50.565  1.00  0.00     0.215 C 
ENDBRANCH  28  32
ENDBRANCH  22  27
TORSDOF 5
ENDMDL
