MODEL 1
REMARK VINA RESULT:      -8.8      0.000      0.000
REMARK  6 active torsions:
REMARK  status: ('A' for Active; 'I' for Inactive)
REMARK    1  A    between atoms: O1_2  and  C2_3 
REMARK    2  A    between atoms: C8_11  and  N3_12 
REMARK    3  A    between atoms: N3_12  and  C9_13 
REMARK       I    between atoms: N4_23  and  C17_24 
REMARK    4  A    between atoms: C17_24  and  C18_26 
REMARK    5  A    between atoms: C19_27  and  C20_28 
REMARK    6  A    between atoms: C20_28  and  N5_30 
ROOT
HETATM    1  C2  UNL     1      19.600  -0.931  53.218  1.00  0.00     0.153 A 
HETATM    2  C3  UNL     1      20.260  -1.470  54.229  1.00  0.00     0.088 A 
HETATM    3  C4  UNL     1      21.685  -1.173  54.335  1.00  0.00     0.070 A 
HETATM    4  N1  UNL     1      22.370  -1.673  55.299  1.00  0.00    -0.259 NA
HETATM    5  C5  UNL     1      23.764  -1.428  55.469  1.00  0.00     0.138 A 
HETATM    6  C6  UNL     1      24.370  -0.636  54.568  1.00  0.00     0.067 A 
HETATM    7  C7  UNL     1      25.784  -0.397  54.754  1.00  0.00     0.099 C 
HETATM    8  N2  UNL     1      26.931  -0.216  54.897  1.00  0.00    -0.192 NA
HETATM    9  C8  UNL     1      23.764   0.025  53.392  1.00  0.00     0.164 A 
HETATM   10  C15 UNL     1      22.295  -0.308  53.331  1.00  0.00     0.015 A 
HETATM   11  C16 UNL     1      21.535   0.174  52.364  1.00  0.00     0.114 A 
HETATM   12  N4  UNL     1      20.143  -0.079  52.210  1.00  0.00    -0.269 N 
HETATM   13  C17 UNL     1      19.343   0.445  51.169  1.00  0.00     0.253 C 
HETATM   14  O2  UNL     1      18.108   0.123  51.169  1.00  0.00    -0.268 OA
ENDROOT
BRANCH   9  15
HETATM   15  N3  UNL     1      24.043   1.406  53.239  1.00  0.00    -0.376 N 
HETATM   16  H7  UNL     1      23.749   2.097  53.998  1.00  0.00     0.160 HD
BRANCH  15  17
HETATM   17  C9  UNL     1      24.696   2.008  52.148  1.00  0.00     0.030 A 
HETATM   18  C10 UNL     1      26.062   2.013  51.964  1.00  0.00     0.032 A 
HETATM   19  C11 UNL     1      26.737   2.590  50.909  1.00  0.00     0.046 A 
HETATM   20  C12 UNL     1      26.003   3.227  49.932  1.00  0.00     0.138 A 
HETATM   21  F1  UNL     1      26.564   3.816  48.869  1.00  0.00    -0.204 F 
HETATM   22  C13 UNL     1      24.631   3.260  50.051  1.00  0.00     0.074 A 
HETATM   23 CL1  UNL     1      23.683   4.066  48.819  1.00  0.00    -0.081 Cl
HETATM   24  C14 UNL     1      24.038   2.666  51.126  1.00  0.00     0.056 A 
ENDBRANCH  15  17
ENDBRANCH   9  15
BRANCH   1  25
HETATM   25  O1  UNL     1      18.236  -1.236  53.146  1.00  0.00    -0.340 OA
HETATM   26  C1  UNL     1      17.781  -2.515  53.584  1.00  0.00     0.211 C 
ENDBRANCH   1  25
BRANCH  13  27
HETATM   27  C18 UNL     1      19.880   1.302  50.150  1.00  0.00     0.073 C 
HETATM   28  C19 UNL     1      19.979   2.611  50.277  1.00  0.00     0.013 C 
BRANCH  28  29
HETATM   29  C20 UNL     1      19.670   3.641  51.280  1.00  0.00     0.241 C 
HETATM   30  C21 UNL     1      20.886   4.512  51.538  1.00  0.00     0.047 C 
BRANCH  29  31
HETATM   31  N5  UNL     1      18.533   4.435  50.847  1.00  0.00     0.087 N 
HETATM   32  C22 UNL     1      17.294   3.753  51.227  1.00  0.00     0.310 C 
HETATM   33  C23 UNL     1      18.565   4.650  49.421  1.00  0.00     0.310 C 
ENDBRANCH  29  31
ENDBRANCH  28  29
ENDBRANCH  13  27
TORSDOF 6
ENDMDL
MODEL 2
REMARK VINA RESULT:      -8.6      3.557      6.025
REMARK  6 active torsions:
REMARK  status: ('A' for Active; 'I' for Inactive)
REMARK    1  A    between atoms: O1_2  and  C2_3 
REMARK    2  A    between atoms: C8_11  and  N3_12 
REMARK    3  A    between atoms: N3_12  and  C9_13 
REMARK       I    between atoms: N4_23  and  C17_24 
REMARK    4  A    between atoms: C17_24  and  C18_26 
REMARK    5  A    between atoms: C19_27  and  C20_28 
REMARK    6  A    between atoms: C20_28  and  N5_30 
ROOT
HETATM    1  C2  UNL     1      21.641   3.632  50.210  1.00  0.00     0.153 A 
HETATM    2  C3  UNL     1      20.723   3.060  50.970  1.00  0.00     0.088 A 
HETATM    3  C4  UNL     1      21.171   2.044  51.916  1.00  0.00     0.070 A 
HETATM    4  N1  UNL     1      20.318   1.458  52.676  1.00  0.00    -0.259 NA
HETATM    5  C5  UNL     1      20.680   0.458  53.623  1.00  0.00     0.138 A 
HETATM    6  C6  UNL     1      21.979   0.125  53.710  1.00  0.00     0.067 A 
HETATM    7  C7  UNL     1      22.332  -0.891  54.676  1.00  0.00     0.099 C 
HETATM    8  N2  UNL     1      22.613  -1.724  55.449  1.00  0.00    -0.192 NA
HETATM    9  C8  UNL     1      23.107   0.673  52.926  1.00  0.00     0.164 A 
HETATM   10  C15 UNL     1      22.593   1.719  51.970  1.00  0.00     0.015 A 
HETATM   11  C16 UNL     1      23.420   2.358  51.161  1.00  0.00     0.114 A 
HETATM   12  N4  UNL     1      23.041   3.356  50.222  1.00  0.00    -0.269 N 
HETATM   13  C17 UNL     1      23.939   4.031  49.363  1.00  0.00     0.253 C 
HETATM   14  O2  UNL     1      23.442   4.902  48.573  1.00  0.00    -0.268 OA
ENDROOT
BRANCH   9  15
HETATM   15  N3  UNL     1      24.241   1.087  53.668  1.00  0.00    -0.376 N 
HETATM   16  H7  UNL     1      24.145   1.846  54.413  1.00  0.00     0.160 HD
BRANCH  15  17
HETATM   17  C9  UNL     1      25.551   0.590  53.534  1.00  0.00     0.030 A 
HETATM   18  C10 UNL     1      25.867  -0.643  53.004  1.00  0.00     0.032 A 
HETATM   19  C11 UNL     1      27.136  -1.162  52.855  1.00  0.00     0.046 A 
HETATM   20  C12 UNL     1      28.207  -0.399  53.265  1.00  0.00     0.138 A 
HETATM   21  F1  UNL     1      29.476  -0.813  53.162  1.00  0.00    -0.204 F 
HETATM   22  C13 UNL     1      27.966   0.845  53.805  1.00  0.00     0.074 A 
HETATM   23 CL1  UNL     1      29.317   1.827  54.332  1.00  0.00    -0.081 Cl
HETATM   24  C14 UNL     1      26.681   1.287  53.919  1.00  0.00     0.056 A 
ENDBRANCH  15  17
ENDBRANCH   9  15
BRANCH   1  25
HETATM   25  O1  UNL     1      21.177   4.602  49.315  1.00  0.00    -0.340 OA
HETATM   26  C1  UNL     1      20.198   5.545  49.750  1.00  0.00     0.211 C 
ENDBRANCH   1  25
BRANCH  13  27
HETATM   27  C18 UNL     1      25.348   3.760  49.366  1.00  0.00     0.073 C 
HETATM   28  C19 UNL     1      26.269   4.686  49.178  1.00  0.00     0.013 C 
BRANCH  28  29
HETATM   29  C20 UNL     1      26.331   6.134  48.927  1.00  0.00     0.241 C 
HETATM   30  C21 UNL     1      25.774   6.902  50.112  1.00  0.00     0.047 C 
BRANCH  29  31
HETATM   31  N5  UNL     1      27.698   6.532  48.635  1.00  0.00     0.087 N 
HETATM   32  C22 UNL     1      27.697   7.483  47.521  1.00  0.00     0.310 C 
HETATM   33  C23 UNL     1      28.512   5.387  48.310  1.00  0.00     0.310 C 
ENDBRANCH  29  31
ENDBRANCH  28  29
ENDBRANCH  13  27
TORSDOF 6
ENDMDL
MODEL 3
REMARK VINA RESULT:      -8.6      2.858      4.568
REMARK  6 active torsions:
REMARK  status: ('A' for Active; 'I' for Inactive)
REMARK    1  A    between atoms: O1_2  and  C2_3 
REMARK    2  A    between atoms: C8_11  and  N3_12 
REMARK    3  A    between atoms: N3_12  and  C9_13 
REMARK       I    between atoms: N4_23  and  C17_24 
REMARK    4  A    between atoms: C17_24  and  C18_26 
REMARK    5  A    between atoms: C19_27  and  C20_28 
REMARK    6  A    between atoms: C20_28  and  N5_30 
ROOT
HETATM    1  C2  UNL     1      19.713   1.661  49.768  1.00  0.00     0.153 A 
HETATM    2  C3  UNL     1      19.093   0.993  50.726  1.00  0.00     0.088 A 
HETATM    3  C4  UNL     1      19.918   0.395  51.770  1.00  0.00     0.070 A 
HETATM    4  N1  UNL     1      19.363  -0.264  52.722  1.00  0.00    -0.259 NA
HETATM    5  C5  UNL     1      20.102  -0.874  53.777  1.00  0.00     0.138 A 
HETATM    6  C6  UNL     1      21.439  -0.744  53.755  1.00  0.00     0.067 A 
HETATM    7  C7  UNL     1      22.176  -1.368  54.832  1.00  0.00     0.099 C 
HETATM    8  N2  UNL     1      22.770  -1.886  55.696  1.00  0.00    -0.192 NA
HETATM    9  C8  UNL     1      22.262  -0.035  52.752  1.00  0.00     0.164 A 
HETATM   10  C15 UNL     1      21.365   0.567  51.701  1.00  0.00     0.015 A 
HETATM   11  C16 UNL     1      21.874   1.256  50.695  1.00  0.00     0.114 A 
HETATM   12  N4  UNL     1      21.120   1.861  49.651  1.00  0.00    -0.269 N 
HETATM   13  C17 UNL     1      21.681   2.597  48.581  1.00  0.00     0.253 C 
HETATM   14  O2  UNL     1      20.869   3.077  47.720  1.00  0.00    -0.268 OA
ENDROOT
BRANCH   9  15
HETATM   15  N3  UNL     1      23.229   0.867  53.261  1.00  0.00    -0.376 N 
HETATM   16  H7  UNL     1      22.919   1.781  53.717  1.00  0.00     0.160 HD
BRANCH  15  17
HETATM   17  C9  UNL     1      24.625   0.693  53.235  1.00  0.00     0.030 A 
HETATM   18  C10 UNL     1      25.540   1.692  53.492  1.00  0.00     0.032 A 
HETATM   19  C11 UNL     1      26.913   1.560  53.478  1.00  0.00     0.046 A 
HETATM   20  C12 UNL     1      27.449   0.325  53.184  1.00  0.00     0.138 A 
HETATM   21  F1  UNL     1      28.766   0.094  53.146  1.00  0.00    -0.204 F 
HETATM   22  C13 UNL     1      26.593  -0.721  52.916  1.00  0.00     0.074 A 
HETATM   23 CL1  UNL     1      27.257  -2.297  52.540  1.00  0.00    -0.081 Cl
HETATM   24  C14 UNL     1      25.246  -0.509  52.950  1.00  0.00     0.056 A 
ENDBRANCH  15  17
ENDBRANCH   9  15
BRANCH   1  25
HETATM   25  O1  UNL     1      18.892   2.222  48.783  1.00  0.00    -0.340 OA
HETATM   26  C1  UNL     1      17.544   2.561  49.105  1.00  0.00     0.211 C 
ENDBRANCH   1  25
BRANCH  13  27
HETATM   27  C18 UNL     1      23.095   2.803  48.453  1.00  0.00     0.073 C 
HETATM   28  C19 UNL     1      23.756   3.742  49.101  1.00  0.00     0.013 C 
BRANCH  28  29
HETATM   29  C20 UNL     1      23.471   4.816  50.065  1.00  0.00     0.241 C 
HETATM   30  C21 UNL     1      23.660   4.318  51.486  1.00  0.00     0.047 C 
BRANCH  29  31
HETATM   31  N5  UNL     1      24.314   5.968  49.793  1.00  0.00     0.087 N 
HETATM   32  C22 UNL     1      25.626   5.509  49.333  1.00  0.00     0.310 C 
HETATM   33  C23 UNL     1      24.460   6.792  50.968  1.00  0.00     0.310 C 
ENDBRANCH  29  31
ENDBRANCH  28  29
ENDBRANCH  13  27
TORSDOF 6
ENDMDL
MODEL 4
REMARK VINA RESULT:      -8.4      3.454      5.814
REMARK  6 active torsions:
REMARK  status: ('A' for Active; 'I' for Inactive)
REMARK    1  A    between atoms: O1_2  and  C2_3 
REMARK    2  A    between atoms: C8_11  and  N3_12 
REMARK    3  A    between atoms: N3_12  and  C9_13 
REMARK       I    between atoms: N4_23  and  C17_24 
REMARK    4  A    between atoms: C17_24  and  C18_26 
REMARK    5  A    between atoms: C19_27  and  C20_28 
REMARK    6  A    between atoms: C20_28  and  N5_30 
ROOT
HETATM    1  C2  UNL     1      26.659   1.720  52.497  1.00  0.00     0.153 A 
HETATM    2  C3  UNL     1      26.531   0.827  53.464  1.00  0.00     0.088 A 
HETATM    3  C4  UNL     1      25.210   0.242  53.667  1.00  0.00     0.070 A 
HETATM    4  N1  UNL     1      25.034  -0.630  54.594  1.00  0.00    -0.259 NA
HETATM    5  C5  UNL     1      23.775  -1.245  54.851  1.00  0.00     0.138 A 
HETATM    6  C6  UNL     1      22.737  -0.883  54.079  1.00  0.00     0.067 A 
HETATM    7  C7  UNL     1      21.465  -1.516  54.351  1.00  0.00     0.099 C 
HETATM    8  N2  UNL     1      20.434  -2.019  54.583  1.00  0.00    -0.192 NA
HETATM    9  C8  UNL     1      22.732   0.100  52.973  1.00  0.00     0.164 A 
HETATM   10  C15 UNL     1      24.117   0.669  52.801  1.00  0.00     0.015 A 
HETATM   11  C16 UNL     1      24.364   1.570  51.866  1.00  0.00     0.114 A 
HETATM   12  N4  UNL     1      25.628   2.173  51.622  1.00  0.00    -0.269 N 
HETATM   13  C17 UNL     1      25.876   3.136  50.616  1.00  0.00     0.253 C 
HETATM   14  O2  UNL     1      27.068   3.584  50.524  1.00  0.00    -0.268 OA
ENDROOT
BRANCH   9  15
HETATM   15  N3  UNL     1      22.136  -0.328  51.760  1.00  0.00    -0.376 N 
HETATM   16  H7  UNL     1      22.491  -1.209  51.272  1.00  0.00     0.160 HD
BRANCH  15  17
HETATM   17  C9  UNL     1      21.076   0.304  51.084  1.00  0.00     0.030 A 
HETATM   18  C10 UNL     1      19.754   0.232  51.468  1.00  0.00     0.032 A 
HETATM   19  C11 UNL     1      18.690   0.839  50.834  1.00  0.00     0.046 A 
HETATM   20  C12 UNL     1      18.942   1.592  49.708  1.00  0.00     0.138 A 
HETATM   21  F1  UNL     1      17.979   2.220  49.023  1.00  0.00    -0.204 F 
HETATM   22  C13 UNL     1      20.242   1.707  49.267  1.00  0.00     0.074 A 
HETATM   23 CL1  UNL     1      20.580   2.662  47.837  1.00  0.00    -0.081 Cl
HETATM   24  C14 UNL     1      21.240   1.077  49.950  1.00  0.00     0.056 A 
ENDBRANCH  15  17
ENDBRANCH   9  15
BRANCH   1  25
HETATM   25  O1  UNL     1      27.939   2.260  52.330  1.00  0.00    -0.340 OA
HETATM   26  C1  UNL     1      28.761   2.482  53.476  1.00  0.00     0.211 C 
ENDBRANCH   1  25
BRANCH  13  27
HETATM   27  C18 UNL     1      24.846   3.599  49.731  1.00  0.00     0.073 C 
HETATM   28  C19 UNL     1      23.939   4.493  50.074  1.00  0.00     0.013 C 
BRANCH  28  29
HETATM   29  C20 UNL     1      23.583   5.296  51.254  1.00  0.00     0.241 C 
HETATM   30  C21 UNL     1      24.168   6.693  51.141  1.00  0.00     0.047 C 
BRANCH  29  31
HETATM   31  N5  UNL     1      22.140   5.339  51.413  1.00  0.00     0.087 N 
HETATM   32  C22 UNL     1      21.685   4.095  52.039  1.00  0.00     0.310 C 
HETATM   33  C23 UNL     1      21.484   5.523  50.141  1.00  0.00     0.310 C 
ENDBRANCH  29  31
ENDBRANCH  28  29
ENDBRANCH  13  27
TORSDOF 6
ENDMDL
MODEL 5
REMARK VINA RESULT:      -8.1      3.285      5.745
REMARK  6 active torsions:
REMARK  status: ('A' for Active; 'I' for Inactive)
REMARK    1  A    between atoms: O1_2  and  C2_3 
REMARK    2  A    between atoms: C8_11  and  N3_12 
REMARK    3  A    between atoms: N3_12  and  C9_13 
REMARK       I    between atoms: N4_23  and  C17_24 
REMARK    4  A    between atoms: C17_24  and  C18_26 
REMARK    5  A    between atoms: C19_27  and  C20_28 
REMARK    6  A    between atoms: C20_28  and  N5_30 
ROOT
HETATM    1  C2  UNL     1      26.003   1.212  52.836  1.00  0.00     0.153 A 
HETATM    2  C3  UNL     1      25.465   0.415  53.743  1.00  0.00     0.088 A 
HETATM    3  C4  UNL     1      24.037   0.137  53.631  1.00  0.00     0.070 A 
HETATM    4  N1  UNL     1      23.467  -0.631  54.488  1.00  0.00    -0.259 NA
HETATM    5  C5  UNL     1      22.079  -0.949  54.443  1.00  0.00     0.138 A 
HETATM    6  C6  UNL     1      21.350  -0.411  53.451  1.00  0.00     0.067 A 
HETATM    7  C7  UNL     1      19.943  -0.743  53.417  1.00  0.00     0.099 C 
HETATM    8  N2  UNL     1      18.802  -1.002  53.400  1.00  0.00    -0.192 NA
HETATM    9  C8  UNL     1      21.813   0.496  52.378  1.00  0.00     0.164 A 
HETATM   10  C15 UNL     1      23.291   0.747  52.535  1.00  0.00     0.015 A 
HETATM   11  C16 UNL     1      23.936   1.528  51.686  1.00  0.00     0.114 A 
HETATM   12  N4  UNL     1      25.324   1.834  51.746  1.00  0.00    -0.269 N 
HETATM   13  C17 UNL     1      26.000   2.672  50.829  1.00  0.00     0.253 C 
HETATM   14  O2  UNL     1      27.250   2.849  51.019  1.00  0.00    -0.268 OA
ENDROOT
BRANCH   9  15
HETATM   15  N3  UNL     1      21.431   0.148  51.058  1.00  0.00    -0.376 N 
HETATM   16  H7  UNL     1      21.550  -0.856  50.714  1.00  0.00     0.160 HD
BRANCH  15  17
HETATM   17  C9  UNL     1      20.884   1.014  50.094  1.00  0.00     0.030 A 
HETATM   18  C10 UNL     1      19.570   1.432  50.077  1.00  0.00     0.032 A 
HETATM   19  C11 UNL     1      18.999   2.280  49.151  1.00  0.00     0.046 A 
HETATM   20  C12 UNL     1      19.792   2.771  48.136  1.00  0.00     0.138 A 
HETATM   21  F1  UNL     1      19.333   3.599  47.191  1.00  0.00    -0.204 F 
HETATM   22  C13 UNL     1      21.116   2.394  48.091  1.00  0.00     0.074 A 
HETATM   23 CL1  UNL     1      22.138   3.009  46.808  1.00  0.00    -0.081 Cl
HETATM   24  C14 UNL     1      21.606   1.552  49.044  1.00  0.00     0.056 A 
ENDBRANCH  15  17
ENDBRANCH   9  15
BRANCH   1  25
HETATM   25  O1  UNL     1      27.374   1.458  52.973  1.00  0.00    -0.340 OA
HETATM   26  C1  UNL     1      28.207   0.463  53.568  1.00  0.00     0.211 C 
ENDBRANCH   1  25
BRANCH  13  27
HETATM   27  C18 UNL     1      25.326   3.302  49.730  1.00  0.00     0.073 C 
HETATM   28  C19 UNL     1      24.727   4.473  49.818  1.00  0.00     0.013 C 
BRANCH  28  29
HETATM   29  C20 UNL     1      24.487   5.508  50.836  1.00  0.00     0.241 C 
HETATM   30  C21 UNL     1      25.201   6.794  50.464  1.00  0.00     0.047 C 
BRANCH  29  31
HETATM   31  N5  UNL     1      23.059   5.724  51.001  1.00  0.00     0.087 N 
HETATM   32  C22 UNL     1      22.551   4.827  52.041  1.00  0.00     0.310 C 
HETATM   33  C23 UNL     1      22.354   5.498  49.762  1.00  0.00     0.310 C 
ENDBRANCH  29  31
ENDBRANCH  28  29
ENDBRANCH  13  27
TORSDOF 6
ENDMDL
MODEL 6
REMARK VINA RESULT:      -8.0      3.536      5.976
REMARK  6 active torsions:
REMARK  status: ('A' for Active; 'I' for Inactive)
REMARK    1  A    between atoms: O1_2  and  C2_3 
REMARK    2  A    between atoms: C8_11  and  N3_12 
REMARK    3  A    between atoms: N3_12  and  C9_13 
REMARK       I    between atoms: N4_23  and  C17_24 
REMARK    4  A    between atoms: C17_24  and  C18_26 
REMARK    5  A    between atoms: C19_27  and  C20_28 
REMARK    6  A    between atoms: C20_28  and  N5_30 
ROOT
HETATM    1  C2  UNL     1      25.642   3.620  49.940  1.00  0.00     0.153 A 
HETATM    2  C3  UNL     1      26.634   3.183  50.698  1.00  0.00     0.088 A 
HETATM    3  C4  UNL     1      26.302   2.235  51.756  1.00  0.00     0.070 A 
HETATM    4  N1  UNL     1      27.229   1.781  52.520  1.00  0.00    -0.259 NA
HETATM    5  C5  UNL     1      26.983   0.853  53.572  1.00  0.00     0.138 A 
HETATM    6  C6  UNL     1      25.716   0.446  53.758  1.00  0.00     0.067 A 
HETATM    7  C7  UNL     1      25.481  -0.497  54.830  1.00  0.00     0.099 C 
HETATM    8  N2  UNL     1      25.291  -1.248  55.706  1.00  0.00    -0.192 NA
HETATM    9  C8  UNL     1      24.515   0.852  52.997  1.00  0.00     0.164 A 
HETATM   10  C15 UNL     1      24.911   1.825  51.916  1.00  0.00     0.015 A 
HETATM   11  C16 UNL     1      24.004   2.329  51.097  1.00  0.00     0.114 A 
HETATM   12  N4  UNL     1      24.268   3.254  50.050  1.00  0.00    -0.269 N 
HETATM   13  C17 UNL     1      23.285   3.784  49.181  1.00  0.00     0.253 C 
HETATM   14  O2  UNL     1      23.683   4.607  48.290  1.00  0.00    -0.268 OA
ENDROOT
BRANCH   9  15
HETATM   15  N3  UNL     1      23.680  -0.198  52.540  1.00  0.00    -0.376 N 
HETATM   16  H7  UNL     1      24.080  -0.966  51.915  1.00  0.00     0.160 HD
BRANCH  15  17
HETATM   17  C9  UNL     1      22.312  -0.360  52.828  1.00  0.00     0.030 A 
HETATM   18  C10 UNL     1      21.821  -1.004  53.944  1.00  0.00     0.032 A 
HETATM   19  C11 UNL     1      20.490  -1.180  54.260  1.00  0.00     0.046 A 
HETATM   20  C12 UNL     1      19.540  -0.676  53.399  1.00  0.00     0.138 A 
HETATM   21  F1  UNL     1      18.225  -0.795  53.616  1.00  0.00    -0.204 F 
HETATM   22  C13 UNL     1      19.960  -0.020  52.262  1.00  0.00     0.074 A 
HETATM   23 CL1  UNL     1      18.765   0.626  51.156  1.00  0.00    -0.081 Cl
HETATM   24  C14 UNL     1      21.295   0.113  52.020  1.00  0.00     0.056 A 
ENDBRANCH  15  17
ENDBRANCH   9  15
BRANCH   1  25
HETATM   25  O1  UNL     1      25.995   4.529  48.936  1.00  0.00    -0.340 OA
HETATM   26  C1  UNL     1      27.353   4.956  48.823  1.00  0.00     0.211 C 
ENDBRANCH   1  25
BRANCH  13  27
HETATM   27  C18 UNL     1      21.900   3.423  49.284  1.00  0.00     0.073 C 
HETATM   28  C19 UNL     1      20.988   4.189  49.851  1.00  0.00     0.013 C 
BRANCH  28  29
HETATM   29  C20 UNL     1      20.917   5.499  50.516  1.00  0.00     0.241 C 
HETATM   30  C21 UNL     1      21.937   5.581  51.636  1.00  0.00     0.047 C 
BRANCH  29  31
HETATM   31  N5  UNL     1      21.110   6.563  49.545  1.00  0.00     0.087 N 
HETATM   32  C22 UNL     1      20.982   7.859  50.217  1.00  0.00     0.310 C 
HETATM   33  C23 UNL     1      20.153   6.464  48.470  1.00  0.00     0.310 C 
ENDBRANCH  29  31
ENDBRANCH  28  29
ENDBRANCH  13  27
TORSDOF 6
ENDMDL
MODEL 7
REMARK VINA RESULT:      -7.4      1.979      2.373
REMARK  6 active torsions:
REMARK  status: ('A' for Active; 'I' for Inactive)
REMARK    1  A    between atoms: O1_2  and  C2_3 
REMARK    2  A    between atoms: C8_11  and  N3_12 
REMARK    3  A    between atoms: N3_12  and  C9_13 
REMARK       I    between atoms: N4_23  and  C17_24 
REMARK    4  A    between atoms: C17_24  and  C18_26 
REMARK    5  A    between atoms: C19_27  and  C20_28 
REMARK    6  A    between atoms: C20_28  and  N5_30 
ROOT
HETATM    1  C2  UNL     1      18.710  -1.465  53.345  1.00  0.00     0.153 A 
HETATM    2  C3  UNL     1      19.654  -1.892  54.166  1.00  0.00     0.088 A 
HETATM    3  C4  UNL     1      20.983  -1.307  54.023  1.00  0.00     0.070 A 
HETATM    4  N1  UNL     1      21.934  -1.688  54.796  1.00  0.00    -0.259 NA
HETATM    5  C5  UNL     1      23.256  -1.162  54.718  1.00  0.00     0.138 A 
HETATM    6  C6  UNL     1      23.498  -0.226  53.785  1.00  0.00     0.067 A 
HETATM    7  C7  UNL     1      24.845   0.299  53.717  1.00  0.00     0.099 C 
HETATM    8  N2  UNL     1      25.938   0.711  53.654  1.00  0.00    -0.192 NA
HETATM    9  C8  UNL     1      22.548   0.338  52.802  1.00  0.00     0.164 A 
HETATM   10  C15 UNL     1      21.193  -0.294  52.994  1.00  0.00     0.015 A 
HETATM   11  C16 UNL     1      20.172   0.055  52.231  1.00  0.00     0.114 A 
HETATM   12  N4  UNL     1      18.857  -0.479  52.324  1.00  0.00    -0.269 N 
HETATM   13  C17 UNL     1      17.775  -0.094  51.499  1.00  0.00     0.253 C 
HETATM   14  O2  UNL     1      16.655  -0.670  51.708  1.00  0.00    -0.268 OA
ENDROOT
BRANCH   9  15
HETATM   15  N3  UNL     1      22.510   1.752  52.710  1.00  0.00    -0.376 N 
HETATM   16  H7  UNL     1      22.225   2.335  53.558  1.00  0.00     0.160 HD
BRANCH  15  17
HETATM   17  C9  UNL     1      22.820   2.521  51.574  1.00  0.00     0.030 A 
HETATM   18  C10 UNL     1      23.360   3.789  51.614  1.00  0.00     0.032 A 
HETATM   19  C11 UNL     1      23.678   4.572  50.524  1.00  0.00     0.046 A 
HETATM   20  C12 UNL     1      23.446   4.064  49.264  1.00  0.00     0.138 A 
HETATM   21  F1  UNL     1      23.721   4.744  48.144  1.00  0.00    -0.204 F 
HETATM   22  C13 UNL     1      22.907   2.802  49.148  1.00  0.00     0.074 A 
HETATM   23 CL1  UNL     1      22.605   2.142  47.554  1.00  0.00    -0.081 Cl
HETATM   24  C14 UNL     1      22.620   2.091  50.275  1.00  0.00     0.056 A 
ENDBRANCH  15  17
ENDBRANCH   9  15
BRANCH   1  25
HETATM   25  O1  UNL     1      17.447  -2.047  53.509  1.00  0.00    -0.340 OA
HETATM   26  C1  UNL     1      17.339  -3.466  53.612  1.00  0.00     0.211 C 
ENDBRANCH   1  25
BRANCH  13  27
HETATM   27  C18 UNL     1      17.914   0.895  50.469  1.00  0.00     0.073 C 
HETATM   28  C19 UNL     1      17.404   2.109  50.552  1.00  0.00     0.013 C 
BRANCH  28  29
HETATM   29  C20 UNL     1      16.617   2.904  51.507  1.00  0.00     0.241 C 
HETATM   30  C21 UNL     1      16.846   4.387  51.278  1.00  0.00     0.047 C 
BRANCH  29  31
HETATM   31  N5  UNL     1      15.208   2.564  51.397  1.00  0.00     0.087 N 
HETATM   32  C22 UNL     1      14.468   3.725  50.896  1.00  0.00     0.310 C 
HETATM   33  C23 UNL     1      14.675   2.148  52.672  1.00  0.00     0.310 C 
ENDBRANCH  29  31
ENDBRANCH  28  29
ENDBRANCH  13  27
TORSDOF 6
ENDMDL
MODEL 8
REMARK VINA RESULT:      -7.3      3.802      6.264
REMARK  6 active torsions:
REMARK  status: ('A' for Active; 'I' for Inactive)
REMARK    1  A    between atoms: O1_2  and  C2_3 
REMARK    2  A    between atoms: C8_11  and  N3_12 
REMARK    3  A    between atoms: N3_12  and  C9_13 
REMARK       I    between atoms: N4_23  and  C17_24 
REMARK    4  A    between atoms: C17_24  and  C18_26 
REMARK    5  A    between atoms: C19_27  and  C20_28 
REMARK    6  A    between atoms: C20_28  and  N5_30 
ROOT
HETATM    1  C2  UNL     1      25.769   4.120  49.728  1.00  0.00     0.153 A 
HETATM    2  C3  UNL     1      26.778   3.606  50.411  1.00  0.00     0.088 A 
HETATM    3  C4  UNL     1      26.463   2.595  51.415  1.00  0.00     0.070 A 
HETATM    4  N1  UNL     1      27.408   2.066  52.105  1.00  0.00    -0.259 NA
HETATM    5  C5  UNL     1      27.178   1.073  53.101  1.00  0.00     0.138 A 
HETATM    6  C6  UNL     1      25.909   0.687  53.313  1.00  0.00     0.067 A 
HETATM    7  C7  UNL     1      25.692  -0.322  54.327  1.00  0.00     0.099 C 
HETATM    8  N2  UNL     1      25.517  -1.128  55.157  1.00  0.00    -0.192 NA
HETATM    9  C8  UNL     1      24.690   1.175  52.633  1.00  0.00     0.164 A 
HETATM   10  C15 UNL     1      25.069   2.211  51.606  1.00  0.00     0.015 A 
HETATM   11  C16 UNL     1      24.143   2.793  50.863  1.00  0.00     0.114 A 
HETATM   12  N4  UNL     1      24.390   3.782  49.871  1.00  0.00    -0.269 N 
HETATM   13  C17 UNL     1      23.388   4.396  49.084  1.00  0.00     0.253 C 
HETATM   14  O2  UNL     1      23.772   5.269  48.235  1.00  0.00    -0.268 OA
ENDROOT
BRANCH   9  15
HETATM   15  N3  UNL     1      23.807   0.180  52.142  1.00  0.00    -0.376 N 
HETATM   16  H7  UNL     1      24.142  -0.513  51.403  1.00  0.00     0.160 HD
BRANCH  15  17
HETATM   17  C9  UNL     1      22.470  -0.013  52.534  1.00  0.00     0.030 A 
HETATM   18  C10 UNL     1      22.079  -0.477  53.772  1.00  0.00     0.032 A 
HETATM   19  C11 UNL     1      20.781  -0.677  54.192  1.00  0.00     0.046 A 
HETATM   20  C12 UNL     1      19.758  -0.396  53.312  1.00  0.00     0.138 A 
HETATM   21  F1  UNL     1      18.466  -0.556  53.624  1.00  0.00    -0.204 F 
HETATM   22  C13 UNL     1      20.075   0.071  52.056  1.00  0.00     0.074 A 
HETATM   23 CL1  UNL     1      18.787   0.433  50.925  1.00  0.00    -0.081 Cl
HETATM   24  C14 UNL     1      21.384   0.243  51.716  1.00  0.00     0.056 A 
ENDBRANCH  15  17
ENDBRANCH   9  15
BRANCH   1  25
HETATM   25  O1  UNL     1      26.106   5.086  48.774  1.00  0.00    -0.340 OA
HETATM   26  C1  UNL     1      27.481   5.380  48.530  1.00  0.00     0.211 C 
ENDBRANCH   1  25
BRANCH  13  27
HETATM   27  C18 UNL     1      21.999   4.064  49.221  1.00  0.00     0.073 C 
HETATM   28  C19 UNL     1      21.126   4.158  48.237  1.00  0.00     0.013 C 
BRANCH  28  29
HETATM   29  C20 UNL     1      21.111   4.556  46.821  1.00  0.00     0.241 C 
HETATM   30  C21 UNL     1      21.823   3.520  45.971  1.00  0.00     0.047 C 
BRANCH  29  31
HETATM   31  N5  UNL     1      19.744   4.758  46.373  1.00  0.00     0.087 N 
HETATM   32  C22 UNL     1      19.265   6.058  46.850  1.00  0.00     0.310 C 
HETATM   33  C23 UNL     1      18.881   3.705  46.852  1.00  0.00     0.310 C 
ENDBRANCH  29  31
ENDBRANCH  28  29
ENDBRANCH  13  27
TORSDOF 6
ENDMDL
MODEL 9
REMARK VINA RESULT:      -7.3      3.426      5.903
REMARK  6 active torsions:
REMARK  status: ('A' for Active; 'I' for Inactive)
REMARK    1  A    between atoms: O1_2  and  C2_3 
REMARK    2  A    between atoms: C8_11  and  N3_12 
REMARK    3  A    between atoms: N3_12  and  C9_13 
REMARK       I    between atoms: N4_23  and  C17_24 
REMARK    4  A    between atoms: C17_24  and  C18_26 
REMARK    5  A    between atoms: C19_27  and  C20_28 
REMARK    6  A    between atoms: C20_28  and  N5_30 
ROOT
HETATM    1  C2  UNL     1      24.075   5.080  50.279  1.00  0.00     0.153 A 
HETATM    2  C3  UNL     1      25.317   4.634  50.364  1.00  0.00     0.088 A 
HETATM    3  C4  UNL     1      25.525   3.354  51.033  1.00  0.00     0.070 A 
HETATM    4  N1  UNL     1      26.713   2.877  51.142  1.00  0.00    -0.259 NA
HETATM    5  C5  UNL     1      26.995   1.635  51.780  1.00  0.00     0.138 A 
HETATM    6  C6  UNL     1      25.957   0.946  52.285  1.00  0.00     0.067 A 
HETATM    7  C7  UNL     1      26.259  -0.313  52.929  1.00  0.00     0.099 C 
HETATM    8  N2  UNL     1      26.507  -1.325  53.462  1.00  0.00    -0.192 NA
HETATM    9  C8  UNL     1      24.527   1.323  52.268  1.00  0.00     0.164 A 
HETATM   10  C15 UNL     1      24.365   2.646  51.564  1.00  0.00     0.015 A 
HETATM   11  C16 UNL     1      23.170   3.190  51.419  1.00  0.00     0.114 A 
HETATM   12  N4  UNL     1      22.906   4.432  50.777  1.00  0.00    -0.269 N 
HETATM   13  C17 UNL     1      21.620   5.001  50.630  1.00  0.00     0.253 C 
HETATM   14  O2  UNL     1      21.549   6.125  50.030  1.00  0.00    -0.268 OA
ENDROOT
BRANCH   9  15
HETATM   15  N3  UNL     1      23.624   0.326  51.824  1.00  0.00    -0.376 N 
HETATM   16  H7  UNL     1      23.896  -0.322  51.020  1.00  0.00     0.160 HD
BRANCH  15  17
HETATM   17  C9  UNL     1      22.340   0.074  52.343  1.00  0.00     0.030 A 
HETATM   18  C10 UNL     1      22.091  -0.369  53.624  1.00  0.00     0.032 A 
HETATM   19  C11 UNL     1      20.849  -0.624  54.168  1.00  0.00     0.046 A 
HETATM   20  C12 UNL     1      19.736  -0.427  53.380  1.00  0.00     0.138 A 
HETATM   21  F1  UNL     1      18.490  -0.646  53.814  1.00  0.00    -0.204 F 
HETATM   22  C13 UNL     1      19.911   0.015  52.087  1.00  0.00     0.074 A 
HETATM   23 CL1  UNL     1      18.507   0.270  51.071  1.00  0.00    -0.081 Cl
HETATM   24  C14 UNL     1      21.172   0.245  51.622  1.00  0.00     0.056 A 
ENDBRANCH  15  17
ENDBRANCH   9  15
BRANCH   1  25
HETATM   25  O1  UNL     1      23.910   6.310  49.632  1.00  0.00    -0.340 OA
HETATM   26  C1  UNL     1      24.692   6.602  48.473  1.00  0.00     0.211 C 
ENDBRANCH   1  25
BRANCH  13  27
HETATM   27  C18 UNL     1      20.438   4.357  51.129  1.00  0.00     0.073 C 
HETATM   28  C19 UNL     1      19.605   3.674  50.368  1.00  0.00     0.013 C 
BRANCH  28  29
HETATM   29  C20 UNL     1      19.472   3.297  48.953  1.00  0.00     0.241 C 
HETATM   30  C21 UNL     1      20.441   2.181  48.607  1.00  0.00     0.047 C 
BRANCH  29  31
HETATM   31  N5  UNL     1      18.100   2.913  48.665  1.00  0.00     0.087 N 
HETATM   32  C22 UNL     1      17.801   3.205  47.261  1.00  0.00     0.310 C 
HETATM   33  C23 UNL     1      17.175   3.612  49.524  1.00  0.00     0.310 C 
ENDBRANCH  29  31
ENDBRANCH  28  29
ENDBRANCH  13  27
TORSDOF 6
ENDMDL
