MODEL 1
REMARK VINA RESULT:     -10.1      0.000      0.000
REMARK  3 active torsions:
REMARK  status: ('A' for Active; 'I' for Inactive)
REMARK    1  A    between atoms: C7_8  and  C8_9 
REMARK       I    between atoms: C8_9  and  N2_11 
REMARK    2  A    between atoms: N2_11  and  C9_12 
REMARK    3  A    between atoms: C14_17  and  N3_18 
ROOT
HETATM    1  C1  UNL     1      24.349   7.414  50.832  1.00  0.00     0.043 C 
HETATM    2  C2  UNL     1      23.468   6.375  50.309  1.00  0.00    -0.083 C 
HETATM    3  C3  UNL     1      23.374   5.586  51.354  1.00  0.00     0.003 C 
HETATM    4  C4  UNL     1      23.510   4.993  52.638  1.00  0.00     0.014 C 
HETATM    5  C5  UNL     1      23.743   3.794  53.036  1.00  0.00    -0.009 C 
HETATM    6  C6  UNL     1      23.361   2.797  52.316  1.00  0.00     0.111 C 
HETATM    7  N1  UNL     1      23.694   2.731  50.951  1.00  0.00    -0.304 N 
HETATM    8  C7  UNL     1      24.941   3.078  50.620  1.00  0.00     0.108 C 
HETATM    9  C15 UNL     1      25.676   3.851  49.880  1.00  0.00     0.032 C 
HETATM   10  C16 UNL     1      24.993   4.739  49.017  1.00  0.00    -0.018 C 
HETATM   11  C17 UNL     1      23.735   4.336  49.297  1.00  0.00     0.064 C 
HETATM   12  C18 UNL     1      22.394   4.839  48.743  1.00  0.00    -0.021 C 
HETATM   13  C19 UNL     1      21.079   5.129  48.368  1.00  0.00    -0.019 C 
HETATM   14  C20 UNL     1      20.113   4.295  48.996  1.00  0.00     0.024 C 
HETATM   15  C21 UNL     1      20.549   3.466  49.969  1.00  0.00     0.042 C 
HETATM   16  C22 UNL     1      21.095   2.583  51.026  1.00  0.00     0.138 C 
HETATM   17  C23 UNL     1      22.451   2.261  50.610  1.00  0.00     0.117 C 
HETATM   18  N4  UNL     1      22.378   1.347  49.803  1.00  0.00    -0.228 NA
HETATM   19  C24 UNL     1      21.022   1.243  49.163  1.00  0.00     0.235 C 
HETATM   20  N5  UNL     1      20.002   2.151  49.521  1.00  0.00    -0.246 NA
HETATM   21  C25 UNL     1      23.000   6.291  48.849  1.00  0.00     0.043 C 
ENDROOT
BRANCH   8  22
HETATM   22  C8  UNL     1      25.956   2.308  51.343  1.00  0.00     0.273 C 
HETATM   23  O1  UNL     1      27.141   2.735  51.086  1.00  0.00    -0.266 OA
HETATM   24  N2  UNL     1      25.933   1.229  52.236  1.00  0.00    -0.320 N 
HETATM   25  H7  UNL     1      24.980   0.898  52.423  1.00  0.00     0.169 HD
BRANCH  24  26
HETATM   26  C9  UNL     1      27.050   0.605  52.847  1.00  0.00     0.061 A 
HETATM   27  C10 UNL     1      27.311  -0.725  52.537  1.00  0.00     0.032 A 
HETATM   28  C11 UNL     1      28.403  -1.302  53.139  1.00  0.00     0.002 A 
HETATM   29  C12 UNL     1      29.264  -0.685  54.019  1.00  0.00     0.002 A 
HETATM   30  C13 UNL     1      28.994   0.635  54.320  1.00  0.00     0.031 A 
HETATM   31  C14 UNL     1      27.908   1.231  53.730  1.00  0.00     0.052 A 
BRANCH  31  32
HETATM   32  N3  UNL     1      27.688   2.592  54.075  1.00  0.00    -0.397 N 
HETATM   33  H12 UNL     1      27.605   3.578  53.764  1.00  0.00     0.156 HD
HETATM   34  H13 UNL     1      27.502   2.937  55.066  1.00  0.00     0.156 HD
ENDBRANCH  31  32
ENDBRANCH  24  26
ENDBRANCH   8  22
TORSDOF 3
ENDMDL
MODEL 2
REMARK VINA RESULT:      -9.8      2.483      5.621
REMARK  3 active torsions:
REMARK  status: ('A' for Active; 'I' for Inactive)
REMARK    1  A    between atoms: C7_8  and  C8_9 
REMARK       I    between atoms: C8_9  and  N2_11 
REMARK    2  A    between atoms: N2_11  and  C9_12 
REMARK    3  A    between atoms: C14_17  and  N3_18 
ROOT
HETATM    1  C1  UNL     1      19.537   3.423  50.601  1.00  0.00     0.043 C 
HETATM    2  C2  UNL     1      20.537   2.474  51.079  1.00  0.00    -0.083 C 
HETATM    3  C3  UNL     1      21.346   3.278  51.728  1.00  0.00     0.003 C 
HETATM    4  C4  UNL     1      21.972   4.413  52.308  1.00  0.00     0.014 C 
HETATM    5  C5  UNL     1      23.187   4.831  52.340  1.00  0.00    -0.009 C 
HETATM    6  C6  UNL     1      24.155   3.983  52.291  1.00  0.00     0.111 C 
HETATM    7  N1  UNL     1      24.199   3.006  51.279  1.00  0.00    -0.304 N 
HETATM    8  C7  UNL     1      23.883   3.405  50.044  1.00  0.00     0.108 C 
HETATM    9  C15 UNL     1      23.115   3.202  49.017  1.00  0.00     0.032 C 
HETATM   10  C16 UNL     1      22.188   2.139  49.121  1.00  0.00    -0.018 C 
HETATM   11  C17 UNL     1      22.559   1.689  50.338  1.00  0.00     0.064 C 
HETATM   12  C18 UNL     1      22.002   0.522  51.167  1.00  0.00    -0.021 C 
HETATM   13  C19 UNL     1      21.664  -0.487  52.074  1.00  0.00    -0.019 C 
HETATM   14  C20 UNL     1      22.483  -0.503  53.237  1.00  0.00     0.024 C 
HETATM   15  C21 UNL     1      23.348   0.522  53.400  1.00  0.00     0.042 C 
HETATM   16  C22 UNL     1      24.270   1.675  53.516  1.00  0.00     0.138 C 
HETATM   17  C23 UNL     1      24.624   2.037  52.152  1.00  0.00     0.117 C 
HETATM   18  N4  UNL     1      25.517   1.284  51.794  1.00  0.00    -0.228 NA
HETATM   19  C24 UNL     1      25.565   0.015  52.599  1.00  0.00     0.235 C 
HETATM   20  N5  UNL     1      24.635  -0.196  53.640  1.00  0.00    -0.246 NA
HETATM   21  C25 UNL     1      20.572   0.987  50.694  1.00  0.00     0.043 C 
ENDROOT
BRANCH   8  22
HETATM   22  C8  UNL     1      24.699   4.531  49.584  1.00  0.00     0.273 C 
HETATM   23  O1  UNL     1      24.047   5.285  48.772  1.00  0.00    -0.266 OA
HETATM   24  N2  UNL     1      26.009   4.969  49.821  1.00  0.00    -0.320 N 
HETATM   25  H7  UNL     1      26.515   4.352  50.465  1.00  0.00     0.169 HD
BRANCH  24  26
HETATM   26  C9  UNL     1      26.638   6.114  49.269  1.00  0.00     0.061 A 
HETATM   27  C10 UNL     1      27.584   5.925  48.269  1.00  0.00     0.032 A 
HETATM   28  C11 UNL     1      28.173   7.052  47.748  1.00  0.00     0.002 A 
HETATM   29  C12 UNL     1      27.910   8.351  48.122  1.00  0.00     0.002 A 
HETATM   30  C13 UNL     1      26.969   8.525  49.117  1.00  0.00     0.031 A 
HETATM   31  C14 UNL     1      26.369   7.414  49.651  1.00  0.00     0.052 A 
BRANCH  31  32
HETATM   32  N3  UNL     1      25.404   7.660  50.665  1.00  0.00    -0.397 N 
HETATM   33  H12 UNL     1      24.482   7.428  51.080  1.00  0.00     0.156 HD
HETATM   34  H13 UNL     1      25.522   8.379  51.443  1.00  0.00     0.156 HD
ENDBRANCH  31  32
ENDBRANCH  24  26
ENDBRANCH   8  22
TORSDOF 3
ENDMDL
MODEL 3
REMARK VINA RESULT:      -9.4      3.502      7.965
REMARK  3 active torsions:
REMARK  status: ('A' for Active; 'I' for Inactive)
REMARK    1  A    between atoms: C7_8  and  C8_9 
REMARK       I    between atoms: C8_9  and  N2_11 
REMARK    2  A    between atoms: N2_11  and  C9_12 
REMARK    3  A    between atoms: C14_17  and  N3_18 
ROOT
HETATM    1  C1  UNL     1      24.171   3.550  49.419  1.00  0.00     0.043 C 
HETATM    2  C2  UNL     1      23.989   2.724  50.609  1.00  0.00    -0.083 C 
HETATM    3  C3  UNL     1      22.987   1.966  50.229  1.00  0.00     0.003 C 
HETATM    4  C4  UNL     1      21.932   1.357  49.497  1.00  0.00     0.014 C 
HETATM    5  C5  UNL     1      20.723   1.040  49.792  1.00  0.00    -0.009 C 
HETATM    6  C6  UNL     1      20.420   0.738  51.007  1.00  0.00     0.111 C 
HETATM    7  N1  UNL     1      20.774   1.595  52.066  1.00  0.00    -0.304 N 
HETATM    8  C7  UNL     1      20.594   2.902  51.866  1.00  0.00     0.108 C 
HETATM    9  C15 UNL     1      21.156   4.073  51.868  1.00  0.00     0.032 C 
HETATM   10  C16 UNL     1      22.526   4.116  52.219  1.00  0.00    -0.018 C 
HETATM   11  C17 UNL     1      22.687   2.805  52.494  1.00  0.00     0.064 C 
HETATM   12  C18 UNL     1      23.939   2.043  52.954  1.00  0.00    -0.021 C 
HETATM   13  C19 UNL     1      24.938   1.163  53.383  1.00  0.00    -0.019 C 
HETATM   14  C20 UNL     1      24.483  -0.174  53.553  1.00  0.00     0.024 C 
HETATM   15  C21 UNL     1      23.230  -0.459  53.137  1.00  0.00     0.042 C 
HETATM   16  C22 UNL     1      21.849  -0.703  52.658  1.00  0.00     0.138 C 
HETATM   17  C23 UNL     1      21.130   0.544  52.873  1.00  0.00     0.117 C 
HETATM   18  N4  UNL     1      20.783   0.568  54.044  1.00  0.00    -0.228 NA
HETATM   19  C24 UNL     1      21.603  -0.345  54.913  1.00  0.00     0.235 C 
HETATM   20  N5  UNL     1      22.644  -1.111  54.346  1.00  0.00    -0.246 NA
HETATM   21  C25 UNL     1      24.745   2.931  51.930  1.00  0.00     0.043 C 
ENDROOT
BRANCH   8  22
HETATM   22  C8  UNL     1      19.218   3.237  51.489  1.00  0.00     0.273 C 
HETATM   23  O1  UNL     1      19.171   4.313  50.787  1.00  0.00    -0.266 OA
HETATM   24  N2  UNL     1      17.961   2.663  51.717  1.00  0.00    -0.320 N 
HETATM   25  H7  UNL     1      18.018   1.811  52.284  1.00  0.00     0.169 HD
BRANCH  24  26
HETATM   26  C9  UNL     1      16.708   3.146  51.258  1.00  0.00     0.061 A 
HETATM   27  C10 UNL     1      15.851   3.729  52.183  1.00  0.00     0.032 A 
HETATM   28  C11 UNL     1      14.647   4.194  51.710  1.00  0.00     0.002 A 
HETATM   29  C12 UNL     1      14.213   4.137  50.405  1.00  0.00     0.002 A 
HETATM   30  C13 UNL     1      15.073   3.554  49.496  1.00  0.00     0.031 A 
HETATM   31  C14 UNL     1      16.280   3.083  49.947  1.00  0.00     0.052 A 
BRANCH  31  32
HETATM   32  N3  UNL     1      17.123   2.502  48.962  1.00  0.00    -0.397 N 
HETATM   33  H12 UNL     1      18.048   2.482  48.493  1.00  0.00     0.156 HD
HETATM   34  H13 UNL     1      16.832   1.700  48.321  1.00  0.00     0.156 HD
ENDBRANCH  31  32
ENDBRANCH  24  26
ENDBRANCH   8  22
TORSDOF 3
ENDMDL
MODEL 4
REMARK VINA RESULT:      -9.1      2.719      4.191
REMARK  3 active torsions:
REMARK  status: ('A' for Active; 'I' for Inactive)
REMARK    1  A    between atoms: C7_8  and  C8_9 
REMARK       I    between atoms: C8_9  and  N2_11 
REMARK    2  A    between atoms: N2_11  and  C9_12 
REMARK    3  A    between atoms: C14_17  and  N3_18 
ROOT
HETATM    1  C1  UNL     1      27.070   9.066  50.366  1.00  0.00     0.043 C 
HETATM    2  C2  UNL     1      26.100   8.802  49.308  1.00  0.00    -0.083 C 
HETATM    3  C3  UNL     1      25.143   8.222  49.994  1.00  0.00     0.003 C 
HETATM    4  C4  UNL     1      24.352   7.650  51.026  1.00  0.00     0.014 C 
HETATM    5  C5  UNL     1      23.685   6.557  51.123  1.00  0.00    -0.009 C 
HETATM    6  C6  UNL     1      23.180   6.021  50.067  1.00  0.00     0.111 C 
HETATM    7  N1  UNL     1      23.979   5.787  48.932  1.00  0.00    -0.304 N 
HETATM    8  C7  UNL     1      25.201   5.295  49.149  1.00  0.00     0.108 C 
HETATM    9  C15 UNL     1      26.473   5.462  48.949  1.00  0.00     0.032 C 
HETATM   10  C16 UNL     1      26.851   6.597  48.194  1.00  0.00    -0.018 C 
HETATM   11  C17 UNL     1      25.613   7.051  47.912  1.00  0.00     0.064 C 
HETATM   12  C18 UNL     1      25.177   8.285  47.107  1.00  0.00    -0.021 C 
HETATM   13  C19 UNL     1      24.564   9.332  46.412  1.00  0.00    -0.019 C 
HETATM   14  C20 UNL     1      23.143   9.262  46.418  1.00  0.00     0.024 C 
HETATM   15  C21 UNL     1      22.573   8.324  47.205  1.00  0.00     0.042 C 
HETATM   16  C22 UNL     1      22.014   7.275  48.088  1.00  0.00     0.138 C 
HETATM   17  C23 UNL     1      22.984   6.190  48.077  1.00  0.00     0.117 C 
HETATM   18  N4  UNL     1      22.783   5.531  47.068  1.00  0.00    -0.228 NA
HETATM   19  C24 UNL     1      22.040   6.298  46.011  1.00  0.00     0.235 C 
HETATM   20  N5  UNL     1      21.656   7.636  46.247  1.00  0.00    -0.246 NA
HETATM   21  C25 UNL     1      26.360   9.051  47.815  1.00  0.00     0.043 C 
ENDROOT
BRANCH   8  22
HETATM   22  C8  UNL     1      25.184   4.050  49.921  1.00  0.00     0.273 C 
HETATM   23  O1  UNL     1      24.470   3.149  49.346  1.00  0.00    -0.266 OA
HETATM   24  N2  UNL     1      25.759   3.623  51.126  1.00  0.00    -0.320 N 
HETATM   25  H7  UNL     1      26.319   4.357  51.572  1.00  0.00     0.169 HD
BRANCH  24  26
HETATM   26  C9  UNL     1      25.626   2.346  51.727  1.00  0.00     0.061 A 
HETATM   27  C10 UNL     1      26.688   1.456  51.620  1.00  0.00     0.032 A 
HETATM   28  C11 UNL     1      26.533   0.228  52.218  1.00  0.00     0.002 A 
HETATM   29  C12 UNL     1      25.426  -0.201  52.914  1.00  0.00     0.002 A 
HETATM   30  C13 UNL     1      24.377   0.691  53.013  1.00  0.00     0.031 A 
HETATM   31  C14 UNL     1      24.510   1.923  52.423  1.00  0.00     0.052 A 
BRANCH  31  32
HETATM   32  N3  UNL     1      23.400   2.798  52.566  1.00  0.00    -0.397 N 
HETATM   33  H12 UNL     1      23.052   3.761  52.734  1.00  0.00     0.156 HD
HETATM   34  H13 UNL     1      22.381   2.493  52.490  1.00  0.00     0.156 HD
ENDBRANCH  31  32
ENDBRANCH  24  26
ENDBRANCH   8  22
TORSDOF 3
ENDMDL
MODEL 5
REMARK VINA RESULT:      -8.8      8.467     11.218
REMARK  3 active torsions:
REMARK  status: ('A' for Active; 'I' for Inactive)
REMARK    1  A    between atoms: C7_8  and  C8_9 
REMARK       I    between atoms: C8_9  and  N2_11 
REMARK    2  A    between atoms: N2_11  and  C9_12 
REMARK    3  A    between atoms: C14_17  and  N3_18 
ROOT
HETATM    1  C1  UNL     1      34.999   3.827  48.331  1.00  0.00     0.043 C 
HETATM    2  C2  UNL     1      34.715   4.421  47.029  1.00  0.00    -0.083 C 
HETATM    3  C3  UNL     1      34.350   5.630  47.386  1.00  0.00     0.003 C 
HETATM    4  C4  UNL     1      34.018   6.797  48.126  1.00  0.00     0.014 C 
HETATM    5  C5  UNL     1      33.035   7.622  48.077  1.00  0.00    -0.009 C 
HETATM    6  C6  UNL     1      32.428   7.828  46.960  1.00  0.00     0.111 C 
HETATM    7  N1  UNL     1      31.952   6.746  46.195  1.00  0.00    -0.304 N 
HETATM    8  C7  UNL     1      31.351   5.758  46.862  1.00  0.00     0.108 C 
HETATM    9  C15 UNL     1      31.336   4.482  47.102  1.00  0.00     0.032 C 
HETATM   10  C16 UNL     1      32.307   3.702  46.433  1.00  0.00    -0.018 C 
HETATM   11  C17 UNL     1      32.866   4.689  45.702  1.00  0.00     0.064 C 
HETATM   12  C18 UNL     1      34.025   4.634  44.696  1.00  0.00    -0.021 C 
HETATM   13  C19 UNL     1      35.036   4.810  43.746  1.00  0.00    -0.019 C 
HETATM   14  C20 UNL     1      35.139   6.145  43.266  1.00  0.00     0.024 C 
HETATM   15  C21 UNL     1      34.387   7.084  43.882  1.00  0.00     0.042 C 
HETATM   16  C22 UNL     1      33.539   8.061  44.602  1.00  0.00     0.138 C 
HETATM   17  C23 UNL     1      32.355   7.326  45.018  1.00  0.00     0.117 C 
HETATM   18  N4  UNL     1      31.596   7.284  44.061  1.00  0.00    -0.228 NA
HETATM   19  C24 UNL     1      32.300   7.504  42.752  1.00  0.00     0.235 C 
HETATM   20  N5  UNL     1      33.693   7.729  42.728  1.00  0.00    -0.246 NA
HETATM   21  C25 UNL     1      34.731   3.647  45.703  1.00  0.00     0.043 C 
ENDROOT
BRANCH   8  22
HETATM   22  C8  UNL     1      30.230   6.225  47.683  1.00  0.00     0.273 C 
HETATM   23  O1  UNL     1      30.278   5.732  48.869  1.00  0.00    -0.266 OA
HETATM   24  N2  UNL     1      29.133   7.071  47.473  1.00  0.00    -0.320 N 
HETATM   25  H7  UNL     1      29.108   7.449  46.520  1.00  0.00     0.169 HD
BRANCH  24  26
HETATM   26  C9  UNL     1      28.128   7.411  48.415  1.00  0.00     0.061 A 
HETATM   27  C10 UNL     1      27.027   6.572  48.530  1.00  0.00     0.032 A 
HETATM   28  C11 UNL     1      26.071   6.923  49.454  1.00  0.00     0.002 A 
HETATM   29  C12 UNL     1      26.106   8.026  50.277  1.00  0.00     0.002 A 
HETATM   30  C13 UNL     1      27.205   8.852  50.153  1.00  0.00     0.031 A 
HETATM   31  C14 UNL     1      28.170   8.521  49.236  1.00  0.00     0.052 A 
BRANCH  31  32
HETATM   32  N3  UNL     1      29.279   9.407  49.161  1.00  0.00    -0.397 N 
HETATM   33  H12 UNL     1      30.281   9.548  48.932  1.00  0.00     0.156 HD
HETATM   34  H13 UNL     1      29.239  10.441  49.415  1.00  0.00     0.156 HD
ENDBRANCH  31  32
ENDBRANCH  24  26
ENDBRANCH   8  22
TORSDOF 3
ENDMDL
MODEL 6
REMARK VINA RESULT:      -8.7      3.004      7.228
REMARK  3 active torsions:
REMARK  status: ('A' for Active; 'I' for Inactive)
REMARK    1  A    between atoms: C7_8  and  C8_9 
REMARK       I    between atoms: C8_9  and  N2_11 
REMARK    2  A    between atoms: N2_11  and  C9_12 
REMARK    3  A    between atoms: C14_17  and  N3_18 
ROOT
HETATM    1  C1  UNL     1      22.211   4.746  46.846  1.00  0.00     0.043 C 
HETATM    2  C2  UNL     1      23.035   4.460  48.016  1.00  0.00    -0.083 C 
HETATM    3  C3  UNL     1      22.544   3.299  48.382  1.00  0.00     0.003 C 
HETATM    4  C4  UNL     1      21.782   2.103  48.478  1.00  0.00     0.014 C 
HETATM    5  C5  UNL     1      21.201   1.504  49.453  1.00  0.00    -0.009 C 
HETATM    6  C6  UNL     1      21.671   1.621  50.646  1.00  0.00     0.111 C 
HETATM    7  N1  UNL     1      21.934   2.893  51.189  1.00  0.00    -0.304 N 
HETATM    8  C7  UNL     1      21.022   3.842  50.965  1.00  0.00     0.108 C 
HETATM    9  C15 UNL     1      20.810   5.034  50.495  1.00  0.00     0.032 C 
HETATM   10  C16 UNL     1      21.935   5.721  49.983  1.00  0.00    -0.018 C 
HETATM   11  C17 UNL     1      22.868   4.792  50.277  1.00  0.00     0.064 C 
HETATM   12  C18 UNL     1      24.383   4.804  50.023  1.00  0.00    -0.021 C 
HETATM   13  C19 UNL     1      25.763   4.611  49.904  1.00  0.00    -0.019 C 
HETATM   14  C20 UNL     1      26.216   3.388  50.474  1.00  0.00     0.024 C 
HETATM   15  C21 UNL     1      25.276   2.516  50.897  1.00  0.00     0.042 C 
HETATM   16  C22 UNL     1      24.194   1.606  51.338  1.00  0.00     0.138 C 
HETATM   17  C23 UNL     1      23.103   2.468  51.768  1.00  0.00     0.117 C 
HETATM   18  N4  UNL     1      23.349   2.824  52.910  1.00  0.00    -0.228 NA
HETATM   19  C24 UNL     1      24.807   2.711  53.254  1.00  0.00     0.235 C 
HETATM   20  N5  UNL     1      25.724   2.233  52.293  1.00  0.00    -0.246 NA
HETATM   21  C25 UNL     1      24.050   5.441  48.620  1.00  0.00     0.043 C 
ENDROOT
BRANCH   8  22
HETATM   22  C8  UNL     1      19.680   3.459  51.413  1.00  0.00     0.273 C 
HETATM   23  O1  UNL     1      19.665   3.180  52.668  1.00  0.00    -0.266 OA
HETATM   24  N2  UNL     1      18.430   3.327  50.796  1.00  0.00    -0.320 N 
HETATM   25  H7  UNL     1      18.464   3.547  49.795  1.00  0.00     0.169 HD
BRANCH  24  26
HETATM   26  C9  UNL     1      17.213   2.935  51.411  1.00  0.00     0.061 A 
HETATM   27  C10 UNL     1      16.395   3.927  51.938  1.00  0.00     0.032 A 
HETATM   28  C11 UNL     1      15.220   3.519  52.523  1.00  0.00     0.002 A 
HETATM   29  C12 UNL     1      14.778   2.220  52.633  1.00  0.00     0.002 A 
HETATM   30  C13 UNL     1      15.600   1.243  52.107  1.00  0.00     0.031 A 
HETATM   31  C14 UNL     1      16.778   1.628  51.519  1.00  0.00     0.052 A 
BRANCH  31  32
HETATM   32  N3  UNL     1      17.576   0.578  50.990  1.00  0.00    -0.397 N 
HETATM   33  H12 UNL     1      17.932   0.075  50.156  1.00  0.00     0.156 HD
HETATM   34  H13 UNL     1      18.145  -0.100  51.585  1.00  0.00     0.156 HD
ENDBRANCH  31  32
ENDBRANCH  24  26
ENDBRANCH   8  22
TORSDOF 3
ENDMDL
MODEL 7
REMARK VINA RESULT:      -8.7      2.396      6.739
REMARK  3 active torsions:
REMARK  status: ('A' for Active; 'I' for Inactive)
REMARK    1  A    between atoms: C7_8  and  C8_9 
REMARK       I    between atoms: C8_9  and  N2_11 
REMARK    2  A    between atoms: N2_11  and  C9_12 
REMARK    3  A    between atoms: C14_17  and  N3_18 
ROOT
HETATM    1  C1  UNL     1      18.829   2.119  51.770  1.00  0.00     0.043 C 
HETATM    2  C2  UNL     1      20.135   1.527  52.041  1.00  0.00    -0.083 C 
HETATM    3  C3  UNL     1      20.853   2.607  52.247  1.00  0.00     0.003 C 
HETATM    4  C4  UNL     1      21.296   3.949  52.395  1.00  0.00     0.014 C 
HETATM    5  C5  UNL     1      22.316   4.594  51.957  1.00  0.00    -0.009 C 
HETATM    6  C6  UNL     1      23.419   3.968  51.733  1.00  0.00     0.111 C 
HETATM    7  N1  UNL     1      23.433   2.808  50.936  1.00  0.00    -0.304 N 
HETATM    8  C7  UNL     1      22.691   2.831  49.827  1.00  0.00     0.108 C 
HETATM    9  C15 UNL     1      21.747   2.242  49.157  1.00  0.00     0.032 C 
HETATM   10  C16 UNL     1      21.199   1.072  49.733  1.00  0.00    -0.018 C 
HETATM   11  C17 UNL     1      22.001   1.007  50.816  1.00  0.00     0.064 C 
HETATM   12  C18 UNL     1      22.026  -0.017  51.961  1.00  0.00    -0.021 C 
HETATM   13  C19 UNL     1      22.232  -0.828  53.081  1.00  0.00    -0.019 C 
HETATM   14  C20 UNL     1      23.318  -0.404  53.897  1.00  0.00     0.024 C 
HETATM   15  C21 UNL     1      23.893   0.780  53.596  1.00  0.00     0.042 C 
HETATM   16  C22 UNL     1      24.475   2.087  53.213  1.00  0.00     0.138 C 
HETATM   17  C23 UNL     1      24.325   2.178  51.768  1.00  0.00     0.117 C 
HETATM   18  N4  UNL     1      25.246   1.553  51.265  1.00  0.00    -0.228 NA
HETATM   19  C24 UNL     1      25.849   0.548  52.205  1.00  0.00     0.235 C 
HETATM   20  N5  UNL     1      25.337   0.410  53.514  1.00  0.00    -0.246 NA
HETATM   21  C25 UNL     1      20.450   0.030  51.915  1.00  0.00     0.043 C 
ENDROOT
BRANCH   8  22
HETATM   22  C8  UNL     1      23.020   3.955  48.946  1.00  0.00     0.273 C 
HETATM   23  O1  UNL     1      24.269   3.964  48.642  1.00  0.00    -0.266 OA
HETATM   24  N2  UNL     1      22.297   5.006  48.368  1.00  0.00    -0.320 N 
HETATM   25  H7  UNL     1      21.305   4.985  48.626  1.00  0.00     0.169 HD
BRANCH  24  26
HETATM   26  C9  UNL     1      22.804   6.023  47.519  1.00  0.00     0.061 A 
HETATM   27  C10 UNL     1      22.436   6.003  46.179  1.00  0.00     0.032 A 
HETATM   28  C11 UNL     1      22.937   7.004  45.381  1.00  0.00     0.002 A 
HETATM   29  C12 UNL     1      23.767   8.025  45.786  1.00  0.00     0.002 A 
HETATM   30  C13 UNL     1      24.126   8.034  47.119  1.00  0.00     0.031 A 
HETATM   31  C14 UNL     1      23.637   7.043  47.934  1.00  0.00     0.052 A 
BRANCH  31  32
HETATM   32  N3  UNL     1      24.036   7.111  49.296  1.00  0.00    -0.397 N 
HETATM   33  H12 UNL     1      23.834   7.440  50.259  1.00  0.00     0.156 HD
HETATM   34  H13 UNL     1      24.928   6.672  49.682  1.00  0.00     0.156 HD
ENDBRANCH  31  32
ENDBRANCH  24  26
ENDBRANCH   8  22
TORSDOF 3
ENDMDL
MODEL 8
REMARK VINA RESULT:      -8.6      2.817      3.981
REMARK  3 active torsions:
REMARK  status: ('A' for Active; 'I' for Inactive)
REMARK    1  A    between atoms: C7_8  and  C8_9 
REMARK       I    between atoms: C8_9  and  N2_11 
REMARK    2  A    between atoms: N2_11  and  C9_12 
REMARK    3  A    between atoms: C14_17  and  N3_18 
ROOT
HETATM    1  C1  UNL     1      24.177   7.665  51.208  1.00  0.00     0.043 C 
HETATM    2  C2  UNL     1      23.728   7.134  49.925  1.00  0.00    -0.083 C 
HETATM    3  C3  UNL     1      22.621   6.527  50.286  1.00  0.00     0.003 C 
HETATM    4  C4  UNL     1      21.529   5.997  51.024  1.00  0.00     0.014 C 
HETATM    5  C5  UNL     1      20.958   4.847  51.051  1.00  0.00    -0.009 C 
HETATM    6  C6  UNL     1      20.953   4.112  49.994  1.00  0.00     0.111 C 
HETATM    7  N1  UNL     1      22.150   3.837  49.308  1.00  0.00    -0.304 N 
HETATM    8  C7  UNL     1      23.218   3.548  50.056  1.00  0.00     0.108 C 
HETATM    9  C15 UNL     1      24.450   3.856  50.328  1.00  0.00     0.032 C 
HETATM   10  C16 UNL     1      25.014   4.920  49.586  1.00  0.00    -0.018 C 
HETATM   11  C17 UNL     1      23.960   5.162  48.780  1.00  0.00     0.064 C 
HETATM   12  C18 UNL     1      23.793   6.207  47.666  1.00  0.00    -0.021 C 
HETATM   13  C19 UNL     1      23.432   7.059  46.618  1.00  0.00    -0.019 C 
HETATM   14  C20 UNL     1      22.134   6.801  46.096  1.00  0.00     0.024 C 
HETATM   15  C21 UNL     1      21.367   5.908  46.759  1.00  0.00     0.042 C 
HETATM   16  C22 UNL     1      20.580   4.921  47.534  1.00  0.00     0.138 C 
HETATM   17  C23 UNL     1      21.550   3.985  48.083  1.00  0.00     0.117 C 
HETATM   18  N4  UNL     1      21.813   3.175  47.207  1.00  0.00    -0.228 NA
HETATM   19  C24 UNL     1      21.497   3.687  45.829  1.00  0.00     0.235 C 
HETATM   20  N5  UNL     1      20.957   4.981  45.663  1.00  0.00    -0.246 NA
HETATM   21  C25 UNL     1      24.539   7.213  48.623  1.00  0.00     0.043 C 
ENDROOT
BRANCH   8  22
HETATM   22  C8  UNL     1      22.986   2.427  50.970  1.00  0.00     0.273 C 
HETATM   23  O1  UNL     1      22.667   1.357  50.332  1.00  0.00    -0.266 OA
HETATM   24  N2  UNL     1      23.029   2.257  52.360  1.00  0.00    -0.320 N 
HETATM   25  H7  UNL     1      23.278   3.122  52.852  1.00  0.00     0.169 HD
BRANCH  24  26
HETATM   26  C9  UNL     1      22.766   1.063  53.080  1.00  0.00     0.061 A 
HETATM   27  C10 UNL     1      23.845   0.264  53.441  1.00  0.00     0.032 A 
HETATM   28  C11 UNL     1      23.562  -0.883  54.143  1.00  0.00     0.002 A 
HETATM   29  C12 UNL     1      22.310  -1.312  54.524  1.00  0.00     0.002 A 
HETATM   30  C13 UNL     1      21.248  -0.510  54.160  1.00  0.00     0.031 A 
HETATM   31  C14 UNL     1      21.507   0.639  53.458  1.00  0.00     0.052 A 
BRANCH  31  32
HETATM   32  N3  UNL     1      20.373   1.425  53.119  1.00  0.00    -0.397 N 
HETATM   33  H12 UNL     1      19.705   1.742  52.391  1.00  0.00     0.156 HD
HETATM   34  H13 UNL     1      19.831   2.027  53.812  1.00  0.00     0.156 HD
ENDBRANCH  31  32
ENDBRANCH  24  26
ENDBRANCH   8  22
TORSDOF 3
ENDMDL
MODEL 9
REMARK VINA RESULT:      -8.6      3.036      7.206
REMARK  3 active torsions:
REMARK  status: ('A' for Active; 'I' for Inactive)
REMARK    1  A    between atoms: C7_8  and  C8_9 
REMARK       I    between atoms: C8_9  and  N2_11 
REMARK    2  A    between atoms: N2_11  and  C9_12 
REMARK    3  A    between atoms: C14_17  and  N3_18 
ROOT
HETATM    1  C1  UNL     1      26.201   3.002  50.904  1.00  0.00     0.043 C 
HETATM    2  C2  UNL     1      24.895   2.459  51.265  1.00  0.00    -0.083 C 
HETATM    3  C3  UNL     1      24.187   2.810  50.216  1.00  0.00     0.003 C 
HETATM    4  C4  UNL     1      23.755   3.343  48.972  1.00  0.00     0.014 C 
HETATM    5  C5  UNL     1      22.732   4.034  48.616  1.00  0.00    -0.009 C 
HETATM    6  C6  UNL     1      21.622   3.907  49.256  1.00  0.00     0.111 C 
HETATM    7  N1  UNL     1      21.589   4.021  50.659  1.00  0.00    -0.304 N 
HETATM    8  C7  UNL     1      22.314   5.003  51.199  1.00  0.00     0.108 C 
HETATM    9  C15 UNL     1      23.243   5.301  52.056  1.00  0.00     0.032 C 
HETATM   10  C16 UNL     1      23.792   4.226  52.793  1.00  0.00    -0.018 C 
HETATM   11  C17 UNL     1      23.007   3.245  52.300  1.00  0.00     0.064 C 
HETATM   12  C18 UNL     1      22.993   1.743  52.619  1.00  0.00    -0.021 C 
HETATM   13  C19 UNL     1      22.798   0.366  52.765  1.00  0.00    -0.019 C 
HETATM   14  C20 UNL     1      21.728  -0.143  51.977  1.00  0.00     0.024 C 
HETATM   15  C21 UNL     1      21.156   0.701  51.091  1.00  0.00     0.042 C 
HETATM   16  C22 UNL     1      20.577   1.678  50.140  1.00  0.00     0.138 C 
HETATM   17  C23 UNL     1      20.706   2.978  50.780  1.00  0.00     0.117 C 
HETATM   18  N4  UNL     1      19.773   3.095  51.560  1.00  0.00    -0.228 NA
HETATM   19  C24 UNL     1      19.178   1.773  51.958  1.00  0.00     0.235 C 
HETATM   20  N5  UNL     1      19.709   0.574  51.434  1.00  0.00    -0.246 NA
HETATM   21  C25 UNL     1      24.568   1.822  52.623  1.00  0.00     0.043 C 
ENDROOT
BRANCH   8  22
HETATM   22  C8  UNL     1      21.979   6.323  50.657  1.00  0.00     0.273 C 
HETATM   23  O1  UNL     1      22.938   7.161  50.833  1.00  0.00    -0.266 OA
HETATM   24  N2  UNL     1      20.869   6.873  50.003  1.00  0.00    -0.320 N 
HETATM   25  H7  UNL     1      20.112   6.192  49.879  1.00  0.00     0.169 HD
BRANCH  24  26
HETATM   26  C9  UNL     1      20.727   8.207  49.542  1.00  0.00     0.061 A 
HETATM   27  C10 UNL     1      19.794   9.023  50.171  1.00  0.00     0.032 A 
HETATM   28  C11 UNL     1      19.682  10.312  49.708  1.00  0.00     0.002 A 
HETATM   29  C12 UNL     1      20.409  10.870  48.680  1.00  0.00     0.002 A 
HETATM   30  C13 UNL     1      21.331  10.049  48.063  1.00  0.00     0.031 A 
HETATM   31  C14 UNL     1      21.459   8.758  48.509  1.00  0.00     0.052 A 
BRANCH  31  32
HETATM   32  N3  UNL     1      22.430   7.967  47.838  1.00  0.00    -0.397 N 
HETATM   33  H12 UNL     1      23.393   7.582  47.818  1.00  0.00     0.156 HD
HETATM   34  H13 UNL     1      22.256   7.455  46.919  1.00  0.00     0.156 HD
ENDBRANCH  31  32
ENDBRANCH  24  26
ENDBRANCH   8  22
TORSDOF 3
ENDMDL
