MODEL 1
REMARK VINA RESULT:      -8.7      0.000      0.000
REMARK  3 active torsions:
REMARK  status: ('A' for Active; 'I' for Inactive)
REMARK    1  A    between atoms: C4_5  and  C5_6 
REMARK    2  A    between atoms: C5_6  and  N1_7 
REMARK    3  A    between atoms: N1_7  and  C6_8 
ROOT
HETATM    1  C6  UNL     1      24.238   1.531  52.865  1.00  0.00     0.045 A 
HETATM    2  C7  UNL     1      23.027   0.879  52.923  1.00  0.00     0.049 A 
HETATM    3  C8  UNL     1      22.813  -0.314  53.569  1.00  0.00     0.122 A 
HETATM    4  N2  UNL     1      23.863  -0.877  54.186  1.00  0.00    -0.236 NA
HETATM    5  C9  UNL     1      25.079  -0.320  54.186  1.00  0.00     0.183 A 
HETATM    6  O1  UNL     1      26.219  -0.679  54.705  1.00  0.00    -0.290 OA
HETATM    7  C10 UNL     1      27.166   0.189  54.449  1.00  0.00     0.089 A 
HETATM    8  C11 UNL     1      28.492   0.238  54.779  1.00  0.00     0.038 A 
HETATM    9  C12 UNL     1      29.271   1.293  54.367  1.00  0.00     0.003 A 
HETATM   10  C13 UNL     1      28.671   2.305  53.608  1.00  0.00     0.001 A 
HETATM   11  C14 UNL     1      27.332   2.227  53.291  1.00  0.00     0.015 A 
HETATM   12  C15 UNL     1      26.566   1.177  53.704  1.00  0.00     0.015 A 
HETATM   13  C16 UNL     1      25.242   0.878  53.522  1.00  0.00     0.057 A 
ENDROOT
BRANCH   1  14
HETATM   14  N1  UNL     1      24.328   2.755  52.168  1.00  0.00    -0.385 N 
HETATM   15  H4  UNL     1      24.415   3.748  52.392  1.00  0.00     0.160 HD
BRANCH  14  16
HETATM   16  C5  UNL     1      24.299   2.700  50.732  1.00  0.00     0.158 C 
BRANCH  16  17
HETATM   17  C4  UNL     1      25.251   3.574  50.041  1.00  0.00    -0.038 C 
HETATM   18  C3  UNL     1      24.810   4.948  49.726  1.00  0.00     0.023 C 
HETATM   19  C2  UNL     1      25.745   5.488  48.962  1.00  0.00    -0.002 C 
HETATM   20  C1  UNL     1      26.871   4.793  48.960  1.00  0.00     0.045 C 
HETATM   21 CL1  UNL     1      28.505   5.120  48.424  1.00  0.00    -0.083 Cl
HETATM   22  C17 UNL     1      26.504   3.508  49.566  1.00  0.00     0.033 C 
ENDBRANCH  16  17
ENDBRANCH  14  16
ENDBRANCH   1  14
TORSDOF 3
ENDMDL
MODEL 2
REMARK VINA RESULT:      -8.5      1.790      3.784
REMARK  3 active torsions:
REMARK  status: ('A' for Active; 'I' for Inactive)
REMARK    1  A    between atoms: C4_5  and  C5_6 
REMARK    2  A    between atoms: C5_6  and  N1_7 
REMARK    3  A    between atoms: N1_7  and  C6_8 
ROOT
HETATM    1  C6  UNL     1      27.188   1.793  53.122  1.00  0.00     0.045 A 
HETATM    2  C7  UNL     1      28.489   1.643  53.543  1.00  0.00     0.049 A 
HETATM    3  C8  UNL     1      28.928   0.650  54.385  1.00  0.00     0.122 A 
HETATM    4  N2  UNL     1      28.016  -0.232  54.824  1.00  0.00    -0.236 NA
HETATM    5  C9  UNL     1      26.728  -0.169  54.471  1.00  0.00     0.183 A 
HETATM    6  O1  UNL     1      25.691  -0.898  54.767  1.00  0.00    -0.290 OA
HETATM    7  C10 UNL     1      24.603  -0.460  54.183  1.00  0.00     0.089 A 
HETATM    8  C11 UNL     1      23.306  -0.893  54.196  1.00  0.00     0.038 A 
HETATM    9  C12 UNL     1      22.346  -0.226  53.472  1.00  0.00     0.003 A 
HETATM   10  C13 UNL     1      22.733   0.896  52.730  1.00  0.00     0.001 A 
HETATM   11  C14 UNL     1      24.048   1.307  52.737  1.00  0.00     0.015 A 
HETATM   12  C15 UNL     1      24.995   0.641  53.458  1.00  0.00     0.015 A 
HETATM   13  C16 UNL     1      26.338   0.847  53.623  1.00  0.00     0.057 A 
ENDROOT
BRANCH   1  14
HETATM   14  N1  UNL     1      26.863   2.858  52.254  1.00  0.00    -0.385 N 
HETATM   15  H4  UNL     1      26.678   3.860  52.323  1.00  0.00     0.160 HD
BRANCH  14  16
HETATM   16  C5  UNL     1      26.731   2.552  50.856  1.00  0.00     0.158 C 
BRANCH  16  17
HETATM   17  C4  UNL     1      25.828   3.421  50.096  1.00  0.00    -0.038 C 
HETATM   18  C3  UNL     1      26.417   4.598  49.426  1.00  0.00     0.023 C 
HETATM   19  C2  UNL     1      25.413   5.320  48.957  1.00  0.00    -0.002 C 
HETATM   20  C1  UNL     1      24.266   4.662  48.956  1.00  0.00     0.045 C 
HETATM   21 CL1  UNL     1      22.703   4.936  48.215  1.00  0.00    -0.083 Cl
HETATM   22  C17 UNL     1      24.523   3.485  49.794  1.00  0.00     0.033 C 
ENDBRANCH  16  17
ENDBRANCH  14  16
ENDBRANCH   1  14
TORSDOF 3
ENDMDL
MODEL 3
REMARK VINA RESULT:      -8.1      3.191      5.664
REMARK  3 active torsions:
REMARK  status: ('A' for Active; 'I' for Inactive)
REMARK    1  A    between atoms: C4_5  and  C5_6 
REMARK    2  A    between atoms: C5_6  and  N1_7 
REMARK    3  A    between atoms: N1_7  and  C6_8 
ROOT
HETATM    1  C6  UNL     1      23.794   3.238  52.587  1.00  0.00     0.045 A 
HETATM    2  C7  UNL     1      23.587   4.497  52.072  1.00  0.00     0.049 A 
HETATM    3  C8  UNL     1      22.370   4.983  51.662  1.00  0.00     0.122 A 
HETATM    4  N2  UNL     1      21.311   4.166  51.776  1.00  0.00    -0.236 NA
HETATM    5  C9  UNL     1      21.411   2.925  52.264  1.00  0.00     0.183 A 
HETATM    6  O1  UNL     1      20.540   1.977  52.461  1.00  0.00    -0.290 OA
HETATM    7  C10 UNL     1      21.094   0.904  52.970  1.00  0.00     0.089 A 
HETATM    8  C11 UNL     1      20.590  -0.312  53.337  1.00  0.00     0.038 A 
HETATM    9  C12 UNL     1      21.419  -1.278  53.857  1.00  0.00     0.003 A 
HETATM   10  C13 UNL     1      22.780  -0.980  53.997  1.00  0.00     0.001 A 
HETATM   11  C14 UNL     1      23.257   0.255  53.617  1.00  0.00     0.015 A 
HETATM   12  C15 UNL     1      22.428   1.208  53.102  1.00  0.00     0.015 A 
HETATM   13  C16 UNL     1      22.656   2.484  52.661  1.00  0.00     0.057 A 
ENDROOT
BRANCH   1  14
HETATM   14  N1  UNL     1      25.097   2.856  52.973  1.00  0.00    -0.385 N 
HETATM   15  H4  UNL     1      25.670   2.872  53.820  1.00  0.00     0.160 HD
BRANCH  14  16
HETATM   16  C5  UNL     1      25.939   2.270  51.967  1.00  0.00     0.158 C 
BRANCH  16  17
HETATM   17  C4  UNL     1      26.811   1.183  52.420  1.00  0.00    -0.038 C 
HETATM   18  C3  UNL     1      26.420  -0.197  52.067  1.00  0.00     0.023 C 
HETATM   19  C2  UNL     1      27.239  -1.009  52.715  1.00  0.00    -0.002 C 
HETATM   20  C1  UNL     1      28.293  -0.384  53.212  1.00  0.00     0.045 C 
HETATM   21 CL1  UNL     1      29.824  -0.913  53.877  1.00  0.00    -0.083 Cl
HETATM   22  C17 UNL     1      27.950   1.040  53.114  1.00  0.00     0.033 C 
ENDBRANCH  16  17
ENDBRANCH  14  16
ENDBRANCH   1  14
TORSDOF 3
ENDMDL
MODEL 4
REMARK VINA RESULT:      -8.1      1.822      2.476
REMARK  3 active torsions:
REMARK  status: ('A' for Active; 'I' for Inactive)
REMARK    1  A    between atoms: C4_5  and  C5_6 
REMARK    2  A    between atoms: C5_6  and  N1_7 
REMARK    3  A    between atoms: N1_7  and  C6_8 
ROOT
HETATM    1  C6  UNL     1      22.471  -0.174  52.957  1.00  0.00     0.045 A 
HETATM    2  C7  UNL     1      21.419  -0.730  53.648  1.00  0.00     0.049 A 
HETATM    3  C8  UNL     1      21.535  -1.399  54.842  1.00  0.00     0.122 A 
HETATM    4  N2  UNL     1      22.765  -1.514  55.366  1.00  0.00    -0.236 NA
HETATM    5  C9  UNL     1      23.850  -1.008  54.770  1.00  0.00     0.183 A 
HETATM    6  O1  UNL     1      25.113  -0.999  55.087  1.00  0.00    -0.290 OA
HETATM    7  C10 UNL     1      25.836  -0.375  54.190  1.00  0.00     0.089 A 
HETATM    8  C11 UNL     1      27.176  -0.118  54.096  1.00  0.00     0.038 A 
HETATM    9  C12 UNL     1      27.674   0.576  53.019  1.00  0.00     0.003 A 
HETATM   10  C13 UNL     1      26.778   1.008  52.034  1.00  0.00     0.001 A 
HETATM   11  C14 UNL     1      25.434   0.733  52.157  1.00  0.00     0.015 A 
HETATM   12  C15 UNL     1      24.947   0.044  53.228  1.00  0.00     0.015 A 
HETATM   13  C16 UNL     1      23.680  -0.345  53.572  1.00  0.00     0.057 A 
ENDROOT
BRANCH   1  14
HETATM   14  N1  UNL     1      22.221   0.489  51.737  1.00  0.00    -0.385 N 
HETATM   15  H4  UNL     1      22.234   0.268  50.740  1.00  0.00     0.160 HD
BRANCH  14  16
HETATM   16  C5  UNL     1      21.829   1.870  51.805  1.00  0.00     0.158 C 
BRANCH  16  17
HETATM   17  C4  UNL     1      22.814   2.837  51.313  1.00  0.00    -0.038 C 
HETATM   18  C3  UNL     1      23.229   3.916  52.232  1.00  0.00     0.023 C 
HETATM   19  C2  UNL     1      23.974   4.755  51.532  1.00  0.00    -0.002 C 
HETATM   20  C1  UNL     1      24.358   4.253  50.371  1.00  0.00     0.045 C 
HETATM   21 CL1  UNL     1      25.551   4.717  49.176  1.00  0.00    -0.083 Cl
HETATM   22  C17 UNL     1      23.514   3.066  50.191  1.00  0.00     0.033 C 
ENDBRANCH  16  17
ENDBRANCH  14  16
ENDBRANCH   1  14
TORSDOF 3
ENDMDL
MODEL 5
REMARK VINA RESULT:      -7.9      1.587      3.776
REMARK  3 active torsions:
REMARK  status: ('A' for Active; 'I' for Inactive)
REMARK    1  A    between atoms: C4_5  and  C5_6 
REMARK    2  A    between atoms: C5_6  and  N1_7 
REMARK    3  A    between atoms: N1_7  and  C6_8 
ROOT
HETATM    1  C6  UNL     1      25.815   1.264  52.292  1.00  0.00     0.045 A 
HETATM    2  C7  UNL     1      27.079   0.751  52.473  1.00  0.00     0.049 A 
HETATM    3  C8  UNL     1      27.375  -0.344  53.247  1.00  0.00     0.122 A 
HETATM    4  N2  UNL     1      26.353  -0.952  53.869  1.00  0.00    -0.236 NA
HETATM    5  C9  UNL     1      25.089  -0.529  53.756  1.00  0.00     0.183 A 
HETATM    6  O1  UNL     1      23.964  -0.952  54.257  1.00  0.00    -0.290 OA
HETATM    7  C10 UNL     1      22.951  -0.218  53.869  1.00  0.00     0.089 A 
HETATM    8  C11 UNL     1      21.610  -0.278  54.130  1.00  0.00     0.038 A 
HETATM    9  C12 UNL     1      20.754   0.644  53.576  1.00  0.00     0.003 A 
HETATM   10  C13 UNL     1      21.291   1.635  52.745  1.00  0.00     0.001 A 
HETATM   11  C14 UNL     1      22.647   1.668  52.501  1.00  0.00     0.015 A 
HETATM   12  C15 UNL     1      23.490   0.750  53.055  1.00  0.00     0.015 A 
HETATM   13  C16 UNL     1      24.845   0.576  52.966  1.00  0.00     0.057 A 
ENDROOT
BRANCH   1  14
HETATM   14  N1  UNL     1      25.641   2.397  51.469  1.00  0.00    -0.385 N 
HETATM   15  H4  UNL     1      25.057   3.235  51.450  1.00  0.00     0.160 HD
BRANCH  14  16
HETATM   16  C5  UNL     1      26.472   2.497  50.301  1.00  0.00     0.158 C 
BRANCH  16  17
HETATM   17  C4  UNL     1      26.538   3.822  49.677  1.00  0.00    -0.038 C 
HETATM   18  C3  UNL     1      25.415   4.749  49.923  1.00  0.00     0.023 C 
HETATM   19  C2  UNL     1      25.599   5.796  49.136  1.00  0.00    -0.002 C 
HETATM   20  C1  UNL     1      26.816   5.844  48.622  1.00  0.00     0.045 C 
HETATM   21 CL1  UNL     1      27.742   7.075  47.791  1.00  0.00    -0.083 Cl
HETATM   22  C17 UNL     1      27.373   4.512  48.886  1.00  0.00     0.033 C 
ENDBRANCH  16  17
ENDBRANCH  14  16
ENDBRANCH   1  14
TORSDOF 3
ENDMDL
MODEL 6
REMARK VINA RESULT:      -7.7      3.463      5.844
REMARK  3 active torsions:
REMARK  status: ('A' for Active; 'I' for Inactive)
REMARK    1  A    between atoms: C4_5  and  C5_6 
REMARK    2  A    between atoms: C5_6  and  N1_7 
REMARK    3  A    between atoms: N1_7  and  C6_8 
ROOT
HETATM    1  C6  UNL     1      24.183   2.168  50.854  1.00  0.00     0.045 A 
HETATM    2  C7  UNL     1      24.042   3.151  49.901  1.00  0.00     0.049 A 
HETATM    3  C8  UNL     1      25.044   4.002  49.503  1.00  0.00     0.122 A 
HETATM    4  N2  UNL     1      26.242   3.859  50.090  1.00  0.00    -0.236 NA
HETATM    5  C9  UNL     1      26.477   2.933  51.026  1.00  0.00     0.183 A 
HETATM    6  O1  UNL     1      27.536   2.620  51.716  1.00  0.00    -0.290 OA
HETATM    7  C10 UNL     1      27.306   1.625  52.538  1.00  0.00     0.089 A 
HETATM    8  C11 UNL     1      28.095   0.967  53.440  1.00  0.00     0.038 A 
HETATM    9  C12 UNL     1      27.580  -0.065  54.188  1.00  0.00     0.003 A 
HETATM   10  C13 UNL     1      26.238  -0.417  54.000  1.00  0.00     0.001 A 
HETATM   11  C14 UNL     1      25.469   0.265  53.083  1.00  0.00     0.015 A 
HETATM   12  C15 UNL     1      25.987   1.288  52.345  1.00  0.00     0.015 A 
HETATM   13  C16 UNL     1      25.438   2.103  51.391  1.00  0.00     0.057 A 
ENDROOT
BRANCH   1  14
HETATM   14  N1  UNL     1      23.074   1.356  51.175  1.00  0.00    -0.385 N 
HETATM   15  H4  UNL     1      22.624   0.513  50.812  1.00  0.00     0.160 HD
BRANCH  14  16
HETATM   16  C5  UNL     1      22.289   1.733  52.317  1.00  0.00     0.158 C 
BRANCH  16  17
HETATM   17  C4  UNL     1      21.408   0.693  52.857  1.00  0.00    -0.038 C 
HETATM   18  C3  UNL     1      21.843   0.001  54.086  1.00  0.00     0.023 C 
HETATM   19  C2  UNL     1      20.998  -0.997  54.288  1.00  0.00    -0.002 C 
HETATM   20  C1  UNL     1      19.904  -0.899  53.552  1.00  0.00     0.045 C 
HETATM   21 CL1  UNL     1      18.343  -1.692  53.574  1.00  0.00    -0.083 Cl
HETATM   22  C17 UNL     1      20.229   0.128  52.555  1.00  0.00     0.033 C 
ENDBRANCH  16  17
ENDBRANCH  14  16
ENDBRANCH   1  14
TORSDOF 3
ENDMDL
MODEL 7
REMARK VINA RESULT:      -7.7      3.489      6.030
REMARK  3 active torsions:
REMARK  status: ('A' for Active; 'I' for Inactive)
REMARK    1  A    between atoms: C4_5  and  C5_6 
REMARK    2  A    between atoms: C5_6  and  N1_7 
REMARK    3  A    between atoms: N1_7  and  C6_8 
ROOT
HETATM    1  C6  UNL     1      25.356   0.692  53.779  1.00  0.00     0.045 A 
HETATM    2  C7  UNL     1      26.230   0.114  54.670  1.00  0.00     0.049 A 
HETATM    3  C8  UNL     1      27.596   0.245  54.622  1.00  0.00     0.122 A 
HETATM    4  N2  UNL     1      28.107   0.993  53.632  1.00  0.00    -0.236 NA
HETATM    5  C9  UNL     1      27.340   1.595  52.718  1.00  0.00     0.183 A 
HETATM    6  O1  UNL     1      27.611   2.351  51.692  1.00  0.00    -0.290 OA
HETATM    7  C10 UNL     1      26.525   2.727  51.063  1.00  0.00     0.089 A 
HETATM    8  C11 UNL     1      26.317   3.506  49.959  1.00  0.00     0.038 A 
HETATM    9  C12 UNL     1      25.040   3.741  49.507  1.00  0.00     0.003 A 
HETATM   10  C13 UNL     1      23.971   3.164  50.204  1.00  0.00     0.001 A 
HETATM   11  C14 UNL     1      24.214   2.384  51.313  1.00  0.00     0.015 A 
HETATM   12  C15 UNL     1      25.484   2.155  51.756  1.00  0.00     0.015 A 
HETATM   13  C16 UNL     1      25.974   1.432  52.810  1.00  0.00     0.057 A 
ENDROOT
BRANCH   1  14
HETATM   14  N1  UNL     1      23.969   0.481  53.937  1.00  0.00    -0.385 N 
HETATM   15  H4  UNL     1      23.193   0.907  54.447  1.00  0.00     0.160 HD
BRANCH  14  16
HETATM   16  C5  UNL     1      23.383  -0.619  53.222  1.00  0.00     0.158 C 
BRANCH  16  17
HETATM   17  C4  UNL     1      21.931  -0.557  53.035  1.00  0.00    -0.038 C 
HETATM   18  C3  UNL     1      21.427   0.108  51.817  1.00  0.00     0.023 C 
HETATM   19  C2  UNL     1      20.113   0.200  51.942  1.00  0.00    -0.002 C 
HETATM   20  C1  UNL     1      19.636  -0.557  52.916  1.00  0.00     0.045 C 
HETATM   21 CL1  UNL     1      18.033  -1.092  53.372  1.00  0.00    -0.083 Cl
HETATM   22  C17 UNL     1      20.824  -0.951  53.684  1.00  0.00     0.033 C 
ENDBRANCH  16  17
ENDBRANCH  14  16
ENDBRANCH   1  14
TORSDOF 3
ENDMDL
MODEL 8
REMARK VINA RESULT:      -7.6      1.871      2.545
REMARK  3 active torsions:
REMARK  status: ('A' for Active; 'I' for Inactive)
REMARK    1  A    between atoms: C4_5  and  C5_6 
REMARK    2  A    between atoms: C5_6  and  N1_7 
REMARK    3  A    between atoms: N1_7  and  C6_8 
ROOT
HETATM    1  C6  UNL     1      23.547   2.506  50.918  1.00  0.00     0.045 A 
HETATM    2  C7  UNL     1      22.238   2.926  50.872  1.00  0.00     0.049 A 
HETATM    3  C8  UNL     1      21.242   2.473  51.703  1.00  0.00     0.122 A 
HETATM    4  N2  UNL     1      21.579   1.556  52.623  1.00  0.00    -0.236 NA
HETATM    5  C9  UNL     1      22.825   1.086  52.745  1.00  0.00     0.183 A 
HETATM    6  O1  UNL     1      23.368   0.214  53.546  1.00  0.00    -0.290 OA
HETATM    7  C10 UNL     1      24.646   0.060  53.304  1.00  0.00     0.089 A 
HETATM    8  C11 UNL     1      25.609  -0.726  53.873  1.00  0.00     0.038 A 
HETATM    9  C12 UNL     1      26.902  -0.686  53.408  1.00  0.00     0.003 A 
HETATM   10  C13 UNL     1      27.199   0.176  52.345  1.00  0.00     0.001 A 
HETATM   11  C14 UNL     1      26.207   0.956  51.792  1.00  0.00     0.015 A 
HETATM   12  C15 UNL     1      24.927   0.910  52.259  1.00  0.00     0.015 A 
HETATM   13  C16 UNL     1      23.788   1.572  51.886  1.00  0.00     0.057 A 
ENDROOT
BRANCH   1  14
HETATM   14  N1  UNL     1      24.478   3.049  50.006  1.00  0.00    -0.385 N 
HETATM   15  H4  UNL     1      25.058   2.720  49.232  1.00  0.00     0.160 HD
BRANCH  14  16
HETATM   16  C5  UNL     1      24.761   4.454  50.110  1.00  0.00     0.158 C 
BRANCH  16  17
HETATM   17  C4  UNL     1      25.990   4.907  49.454  1.00  0.00    -0.038 C 
HETATM   18  C3  UNL     1      26.075   6.331  49.073  1.00  0.00     0.023 C 
HETATM   19  C2  UNL     1      27.175   6.475  48.353  1.00  0.00    -0.002 C 
HETATM   20  C1  UNL     1      27.984   5.432  48.441  1.00  0.00     0.045 C 
HETATM   21 CL1  UNL     1      29.653   5.142  47.997  1.00  0.00    -0.083 Cl
HETATM   22  C17 UNL     1      27.162   4.386  49.059  1.00  0.00     0.033 C 
ENDBRANCH  16  17
ENDBRANCH  14  16
ENDBRANCH   1  14
TORSDOF 3
ENDMDL
MODEL 9
REMARK VINA RESULT:      -7.3      6.402      9.203
REMARK  3 active torsions:
REMARK  status: ('A' for Active; 'I' for Inactive)
REMARK    1  A    between atoms: C4_5  and  C5_6 
REMARK    2  A    between atoms: C5_6  and  N1_7 
REMARK    3  A    between atoms: N1_7  and  C6_8 
ROOT
HETATM    1  C6  UNL     1      31.030   6.780  48.624  1.00  0.00     0.045 A 
HETATM    2  C7  UNL     1      30.838   8.127  48.830  1.00  0.00     0.049 A 
HETATM    3  C8  UNL     1      31.713   9.110  48.435  1.00  0.00     0.122 A 
HETATM    4  N2  UNL     1      32.831   8.721  47.804  1.00  0.00    -0.236 NA
HETATM    5  C9  UNL     1      33.106   7.435  47.557  1.00  0.00     0.183 A 
HETATM    6  O1  UNL     1      34.107   6.839  46.974  1.00  0.00    -0.290 OA
HETATM    7  C10 UNL     1      33.955   5.538  46.956  1.00  0.00     0.089 A 
HETATM    8  C11 UNL     1      34.726   4.522  46.463  1.00  0.00     0.038 A 
HETATM    9  C12 UNL     1      34.314   3.217  46.585  1.00  0.00     0.003 A 
HETATM   10  C13 UNL     1      33.093   2.962  47.221  1.00  0.00     0.001 A 
HETATM   11  C14 UNL     1      32.338   4.007  47.708  1.00  0.00     0.015 A 
HETATM   12  C15 UNL     1      32.755   5.300  47.583  1.00  0.00     0.015 A 
HETATM   13  C16 UNL     1      32.196   6.487  47.975  1.00  0.00     0.057 A 
ENDROOT
BRANCH   1  14
HETATM   14  N1  UNL     1      30.054   5.868  49.079  1.00  0.00    -0.385 N 
HETATM   15  H4  UNL     1      29.793   5.415  49.957  1.00  0.00     0.160 HD
BRANCH  14  16
HETATM   16  C5  UNL     1      29.111   5.374  48.114  1.00  0.00     0.158 C 
BRANCH  16  17
HETATM   17  C4  UNL     1      27.750   5.150  48.608  1.00  0.00    -0.038 C 
HETATM   18  C3  UNL     1      26.819   6.296  48.589  1.00  0.00     0.023 C 
HETATM   19  C2  UNL     1      25.726   5.918  49.231  1.00  0.00    -0.002 C 
HETATM   20  C1  UNL     1      25.668   4.610  49.419  1.00  0.00     0.045 C 
HETATM   21 CL1  UNL     1      24.403   3.502  49.905  1.00  0.00    -0.083 Cl
HETATM   22  C17 UNL     1      27.026   4.140  49.116  1.00  0.00     0.033 C 
ENDBRANCH  16  17
ENDBRANCH  14  16
ENDBRANCH   1  14
TORSDOF 3
ENDMDL
