MODEL 1
REMARK VINA RESULT:      -9.1      0.000      0.000
REMARK  2 active torsions:
REMARK  status: ('A' for Active; 'I' for Inactive)
REMARK    1  A    between atoms: C9_11  and  N3_12 
REMARK    2  A    between atoms: N3_12  and  C10_13 
ROOT
HETATM    1  C1  UNL     1      25.967  -1.495  53.061  1.00  0.00     0.310 C 
HETATM    2  N1  UNL     1      25.050  -0.339  53.080  1.00  0.00     0.091 N 
HETATM    3  C2  UNL     1      24.000  -0.693  53.957  1.00  0.00     0.277 C 
HETATM    4  C3  UNL     1      22.654  -0.908  53.302  1.00  0.00     0.068 C 
HETATM    5  C4  UNL     1      22.262   0.244  52.452  1.00  0.00    -0.056 C 
HETATM    6  C5  UNL     1      21.478  -0.147  51.462  1.00  0.00     0.008 C 
HETATM    7  C6  UNL     1      20.789   0.459  50.337  1.00  0.00     0.017 C 
HETATM    8  C7  UNL     1      20.729   1.685  49.904  1.00  0.00     0.083 C 
HETATM    9  N2  UNL     1      21.348   2.839  50.426  1.00  0.00    -0.396 N 
HETATM   10  C8  UNL     1      21.531   4.119  51.068  1.00  0.00     0.165 C 
HETATM   11  C9  UNL     1      23.011   4.470  51.186  1.00  0.00     0.158 A 
HETATM   12  C16 UNL     1      23.121   5.874  51.619  1.00  0.00     0.256 A 
HETATM   13  O1  UNL     1      22.677   6.738  50.836  1.00  0.00    -0.270 OA
HETATM   14  N4  UNL     1      23.745   5.891  52.911  1.00  0.00    -0.334 N 
HETATM   15  C17 UNL     1      24.014   4.523  53.303  1.00  0.00     0.102 A 
HETATM   16  C18 UNL     1      23.594   3.726  52.331  1.00  0.00     0.010 A 
HETATM   17  C19 UNL     1      23.807   2.343  52.736  1.00  0.00     0.023 C 
HETATM   18  C20 UNL     1      22.694   1.624  52.744  1.00  0.00     0.023 C 
HETATM   19  C21 UNL     1      25.206   2.104  53.055  1.00  0.00     0.188 C 
HETATM   20  O2  UNL     1      25.818   3.193  53.003  1.00  0.00    -0.290 OA
HETATM   21  C22 UNL     1      25.850   0.796  53.395  1.00  0.00     0.355 C 
HETATM   22  H11 UNL     1      22.268   2.428  50.067  1.00  0.00     0.159 HD
HETATM   23  H19 UNL     1      23.874   6.861  53.289  1.00  0.00     0.168 HD
ENDROOT
BRANCH  11  24
HETATM   24  N3  UNL     1      23.728   4.346  49.954  1.00  0.00    -0.367 N 
HETATM   25  H14 UNL     1      23.093   3.904  49.226  1.00  0.00     0.161 HD
BRANCH  24  26
HETATM   26  C10 UNL     1      25.023   4.667  49.473  1.00  0.00     0.029 A 
HETATM   27  C11 UNL     1      25.398   5.872  48.927  1.00  0.00     0.031 A 
HETATM   28  C12 UNL     1      26.646   6.218  48.462  1.00  0.00     0.026 A 
HETATM   29  C13 UNL     1      27.569   5.207  48.586  1.00  0.00     0.034 A 
HETATM   30 CL1  UNL     1      29.210   5.494  48.036  1.00  0.00    -0.084 Cl
HETATM   31  C14 UNL     1      27.304   3.965  49.116  1.00  0.00     0.026 A 
HETATM   32  C15 UNL     1      26.025   3.722  49.551  1.00  0.00     0.031 A 
ENDBRANCH  24  26
ENDBRANCH  11  24
TORSDOF 2
ENDMDL
MODEL 2
REMARK VINA RESULT:      -8.4      2.984      3.770
REMARK  2 active torsions:
REMARK  status: ('A' for Active; 'I' for Inactive)
REMARK    1  A    between atoms: C9_11  and  N3_12 
REMARK    2  A    between atoms: N3_12  and  C10_13 
ROOT
HETATM    1  C1  UNL     1      26.766  -1.493  52.350  1.00  0.00     0.310 C 
HETATM    2  N1  UNL     1      25.716  -0.532  52.737  1.00  0.00     0.091 N 
HETATM    3  C2  UNL     1      25.690  -0.536  54.150  1.00  0.00     0.277 C 
HETATM    4  C3  UNL     1      24.448  -1.131  54.774  1.00  0.00     0.068 C 
HETATM    5  C4  UNL     1      23.209  -0.522  54.227  1.00  0.00    -0.056 C 
HETATM    6  C5  UNL     1      22.204  -1.380  54.273  1.00  0.00     0.008 C 
HETATM    7  C6  UNL     1      20.799  -1.405  53.908  1.00  0.00     0.017 C 
HETATM    8  C7  UNL     1      20.019  -0.516  53.366  1.00  0.00     0.083 C 
HETATM    9  N2  UNL     1      20.327   0.795  52.950  1.00  0.00    -0.396 N 
HETATM   10  C8  UNL     1      20.367   2.237  52.895  1.00  0.00     0.165 C 
HETATM   11  C9  UNL     1      21.310   2.722  51.800  1.00  0.00     0.158 A 
HETATM   12  C16 UNL     1      21.122   4.174  51.636  1.00  0.00     0.256 A 
HETATM   13  O1  UNL     1      20.000   4.553  51.243  1.00  0.00    -0.270 OA
HETATM   14  N4  UNL     1      22.352   4.823  51.994  1.00  0.00    -0.334 N 
HETATM   15  C17 UNL     1      23.302   3.806  52.394  1.00  0.00     0.102 A 
HETATM   16  C18 UNL     1      22.709   2.625  52.289  1.00  0.00     0.010 A 
HETATM   17  C19 UNL     1      23.636   1.596  52.743  1.00  0.00     0.023 C 
HETATM   18  C20 UNL     1      23.160   0.871  53.744  1.00  0.00     0.023 C 
HETATM   19  C21 UNL     1      24.876   1.641  51.984  1.00  0.00     0.188 C 
HETATM   20  O2  UNL     1      24.843   2.635  51.226  1.00  0.00    -0.290 OA
HETATM   21  C22 UNL     1      26.024   0.684  52.062  1.00  0.00     0.355 C 
HETATM   22  H11 UNL     1      20.882   0.342  52.154  1.00  0.00     0.159 HD
HETATM   23  H19 UNL     1      22.307   5.866  51.892  1.00  0.00     0.168 HD
ENDROOT
BRANCH  11  24
HETATM   24  N3  UNL     1      21.070   2.114  50.527  1.00  0.00    -0.367 N 
HETATM   25  H14 UNL     1      20.780   1.103  50.675  1.00  0.00     0.161 HD
BRANCH  24  26
HETATM   26  C10 UNL     1      21.106   2.512  49.166  1.00  0.00     0.029 A 
HETATM   27  C11 UNL     1      20.010   2.801  48.388  1.00  0.00     0.031 A 
HETATM   28  C12 UNL     1      20.012   3.198  47.071  1.00  0.00     0.026 A 
HETATM   29  C13 UNL     1      21.274   3.298  46.536  1.00  0.00     0.034 A 
HETATM   30 CL1  UNL     1      21.443   3.795  44.863  1.00  0.00    -0.084 Cl
HETATM   31  C14 UNL     1      22.438   3.034  47.223  1.00  0.00     0.026 A 
HETATM   32  C15 UNL     1      22.325   2.643  48.534  1.00  0.00     0.031 A 
ENDBRANCH  24  26
ENDBRANCH  11  24
TORSDOF 2
ENDMDL
MODEL 3
REMARK VINA RESULT:      -8.1      1.570      2.197
REMARK  2 active torsions:
REMARK  status: ('A' for Active; 'I' for Inactive)
REMARK    1  A    between atoms: C9_11  and  N3_12 
REMARK    2  A    between atoms: N3_12  and  C10_13 
ROOT
HETATM    1  C1  UNL     1      25.366   0.662  53.069  1.00  0.00     0.310 C 
HETATM    2  N1  UNL     1      24.253   1.546  52.669  1.00  0.00     0.091 N 
HETATM    3  C2  UNL     1      23.097   1.010  53.279  1.00  0.00     0.277 C 
HETATM    4  C3  UNL     1      22.084   0.408  52.331  1.00  0.00     0.068 C 
HETATM    5  C4  UNL     1      21.717   1.350  51.244  1.00  0.00    -0.056 C 
HETATM    6  C5  UNL     1      21.364   0.693  50.152  1.00  0.00     0.008 C 
HETATM    7  C6  UNL     1      20.922   1.010  48.806  1.00  0.00     0.017 C 
HETATM    8  C7  UNL     1      20.724   2.141  48.193  1.00  0.00     0.083 C 
HETATM    9  N2  UNL     1      20.892   3.453  48.681  1.00  0.00    -0.396 N 
HETATM   10  C8  UNL     1      20.593   4.786  49.147  1.00  0.00     0.165 C 
HETATM   11  C9  UNL     1      21.858   5.509  49.599  1.00  0.00     0.158 A 
HETATM   12  C16 UNL     1      21.524   6.925  49.830  1.00  0.00     0.256 A 
HETATM   13  O1  UNL     1      21.152   7.582  48.836  1.00  0.00    -0.270 OA
HETATM   14  N4  UNL     1      21.721   7.206  51.223  1.00  0.00    -0.334 N 
HETATM   15  C17 UNL     1      22.156   5.988  51.874  1.00  0.00     0.102 A 
HETATM   16  C18 UNL     1      22.226   5.033  50.957  1.00  0.00     0.010 A 
HETATM   17  C19 UNL     1      22.609   3.787  51.608  1.00  0.00     0.023 C 
HETATM   18  C20 UNL     1      21.730   2.813  51.428  1.00  0.00     0.023 C 
HETATM   19  C21 UNL     1      23.869   3.938  52.319  1.00  0.00     0.188 C 
HETATM   20  O2  UNL     1      24.215   5.138  52.267  1.00  0.00    -0.290 OA
HETATM   21  C22 UNL     1      24.656   2.868  53.010  1.00  0.00     0.355 C 
HETATM   22  H11 UNL     1      21.945   3.261  48.644  1.00  0.00     0.159 HD
HETATM   23  H19 UNL     1      21.516   8.204  51.471  1.00  0.00     0.168 HD
ENDROOT
BRANCH  11  24
HETATM   24  N3  UNL     1      22.915   5.470  48.635  1.00  0.00    -0.367 N 
HETATM   25  H14 UNL     1      22.500   5.291  47.674  1.00  0.00     0.161 HD
BRANCH  24  26
HETATM   26  C10 UNL     1      24.324   5.622  48.639  1.00  0.00     0.029 A 
HETATM   27  C11 UNL     1      25.229   4.675  49.057  1.00  0.00     0.031 A 
HETATM   28  C12 UNL     1      26.601   4.787  49.064  1.00  0.00     0.026 A 
HETATM   29  C13 UNL     1      27.048   5.998  48.591  1.00  0.00     0.034 A 
HETATM   30 CL1  UNL     1      28.776   6.294  48.537  1.00  0.00    -0.084 Cl
HETATM   31  C14 UNL     1      26.233   7.015  48.148  1.00  0.00     0.026 A 
HETATM   32  C15 UNL     1      24.877   6.800  48.183  1.00  0.00     0.031 A 
ENDBRANCH  24  26
ENDBRANCH  11  24
TORSDOF 2
ENDMDL
MODEL 4
REMARK VINA RESULT:      -8.0      6.357     11.137
REMARK  2 active torsions:
REMARK  status: ('A' for Active; 'I' for Inactive)
REMARK    1  A    between atoms: C9_11  and  N3_12 
REMARK    2  A    between atoms: N3_12  and  C10_13 
ROOT
HETATM    1  C1  UNL     1      30.576  10.104  42.567  1.00  0.00     0.310 C 
HETATM    2  N1  UNL     1      31.248   9.468  43.716  1.00  0.00     0.091 N 
HETATM    3  C2  UNL     1      32.632   9.662  43.509  1.00  0.00     0.277 C 
HETATM    4  C3  UNL     1      33.423   8.411  43.200  1.00  0.00     0.068 C 
HETATM    5  C4  UNL     1      33.188   7.345  44.207  1.00  0.00    -0.056 C 
HETATM    6  C5  UNL     1      33.343   6.147  43.669  1.00  0.00     0.008 C 
HETATM    7  C6  UNL     1      33.255   4.762  44.094  1.00  0.00     0.017 C 
HETATM    8  C7  UNL     1      32.961   4.214  45.237  1.00  0.00     0.083 C 
HETATM    9  N2  UNL     1      32.622   4.836  46.456  1.00  0.00    -0.396 N 
HETATM   10  C8  UNL     1      32.701   5.303  47.820  1.00  0.00     0.165 C 
HETATM   11  C9  UNL     1      31.496   6.166  48.178  1.00  0.00     0.158 A 
HETATM   12  C16 UNL     1      31.512   6.404  49.632  1.00  0.00     0.256 A 
HETATM   13  O1  UNL     1      31.381   5.403  50.365  1.00  0.00    -0.270 OA
HETATM   14  N4  UNL     1      31.687   7.812  49.848  1.00  0.00    -0.334 N 
HETATM   15  C17 UNL     1      31.798   8.459  48.558  1.00  0.00     0.102 A 
HETATM   16  C18 UNL     1      31.695   7.528  47.620  1.00  0.00     0.010 A 
HETATM   17  C19 UNL     1      31.860   8.158  46.317  1.00  0.00     0.023 C 
HETATM   18  C20 UNL     1      32.859   7.646  45.614  1.00  0.00     0.023 C 
HETATM   19  C21 UNL     1      30.884   9.219  46.124  1.00  0.00     0.188 C 
HETATM   20  O2  UNL     1      30.246   9.371  47.188  1.00  0.00    -0.290 OA
HETATM   21  C22 UNL     1      30.648  10.021  44.883  1.00  0.00     0.355 C 
HETATM   22  H11 UNL     1      31.695   5.097  45.989  1.00  0.00     0.159 HD
HETATM   23  H19 UNL     1      31.697   8.070  50.865  1.00  0.00     0.168 HD
ENDROOT
BRANCH  11  24
HETATM   24  N3  UNL     1      30.240   5.558  47.859  1.00  0.00    -0.367 N 
HETATM   25  H14 UNL     1      30.418   4.663  47.315  1.00  0.00     0.161 HD
BRANCH  24  26
HETATM   26  C10 UNL     1      28.869   5.832  48.091  1.00  0.00     0.029 A 
HETATM   27  C11 UNL     1      28.227   7.010  47.793  1.00  0.00     0.031 A 
HETATM   28  C12 UNL     1      26.898   7.303  47.996  1.00  0.00     0.026 A 
HETATM   29  C13 UNL     1      26.194   6.266  48.561  1.00  0.00     0.034 A 
HETATM   30 CL1  UNL     1      24.484   6.486  48.884  1.00  0.00    -0.084 Cl
HETATM   31  C14 UNL     1      26.735   5.047  48.900  1.00  0.00     0.026 A 
HETATM   32  C15 UNL     1      28.072   4.857  48.655  1.00  0.00     0.031 A 
ENDBRANCH  24  26
ENDBRANCH  11  24
TORSDOF 2
ENDMDL
MODEL 5
REMARK VINA RESULT:      -8.0      6.138     10.882
REMARK  2 active torsions:
REMARK  status: ('A' for Active; 'I' for Inactive)
REMARK    1  A    between atoms: C9_11  and  N3_12 
REMARK    2  A    between atoms: N3_12  and  C10_13 
ROOT
HETATM    1  C1  UNL     1      27.739  13.030  47.009  1.00  0.00     0.310 C 
HETATM    2  N1  UNL     1      28.842  12.071  47.212  1.00  0.00     0.091 N 
HETATM    3  C2  UNL     1      30.030  12.791  46.958  1.00  0.00     0.277 C 
HETATM    4  C3  UNL     1      30.784  12.379  45.713  1.00  0.00     0.068 C 
HETATM    5  C4  UNL     1      31.038  10.917  45.680  1.00  0.00    -0.056 C 
HETATM    6  C5  UNL     1      31.115  10.481  44.434  1.00  0.00     0.008 C 
HETATM    7  C6  UNL     1      31.330   9.218  43.751  1.00  0.00     0.017 C 
HETATM    8  C7  UNL     1      31.526   8.008  44.189  1.00  0.00     0.083 C 
HETATM    9  N2  UNL     1      31.584   7.548  45.520  1.00  0.00    -0.396 N 
HETATM   10  C8  UNL     1      32.098   7.022  46.763  1.00  0.00     0.165 C 
HETATM   11  C9  UNL     1      31.019   6.998  47.840  1.00  0.00     0.158 A 
HETATM   12  C16 UNL     1      31.531   6.236  48.992  1.00  0.00     0.256 A 
HETATM   13  O1  UNL     1      31.778   5.028  48.800  1.00  0.00    -0.270 OA
HETATM   14  N4  UNL     1      31.624   7.132  50.110  1.00  0.00    -0.334 N 
HETATM   15  C17 UNL     1      31.196   8.444  49.676  1.00  0.00     0.102 A 
HETATM   16  C18 UNL     1      30.861   8.366  48.396  1.00  0.00     0.010 A 
HETATM   17  C19 UNL     1      30.480   9.693  47.930  1.00  0.00     0.023 C 
HETATM   18  C20 UNL     1      31.208  10.116  46.907  1.00  0.00     0.023 C 
HETATM   19  C21 UNL     1      29.395  10.235  48.734  1.00  0.00     0.188 C 
HETATM   20  O2  UNL     1      29.170   9.449  49.680  1.00  0.00    -0.290 OA
HETATM   21  C22 UNL     1      28.646  11.510  48.506  1.00  0.00     0.355 C 
HETATM   22  H11 UNL     1      30.529   7.725  45.559  1.00  0.00     0.159 HD
HETATM   23  H19 UNL     1      31.972   6.662  50.981  1.00  0.00     0.168 HD
ENDROOT
BRANCH  11  24
HETATM   24  N3  UNL     1      29.803   6.370  47.419  1.00  0.00    -0.367 N 
HETATM   25  H14 UNL     1      29.970   5.880  46.492  1.00  0.00     0.161 HD
BRANCH  24  26
HETATM   26  C10 UNL     1      28.484   6.231  47.919  1.00  0.00     0.029 A 
HETATM   27  C11 UNL     1      27.496   7.183  47.845  1.00  0.00     0.031 A 
HETATM   28  C12 UNL     1      26.206   7.076  48.310  1.00  0.00     0.026 A 
HETATM   29  C13 UNL     1      25.942   5.863  48.901  1.00  0.00     0.034 A 
HETATM   30 CL1  UNL     1      24.337   5.571  49.545  1.00  0.00    -0.084 Cl
HETATM   31  C14 UNL     1      26.854   4.840  49.029  1.00  0.00     0.026 A 
HETATM   32  C15 UNL     1      28.115   5.051  48.530  1.00  0.00     0.031 A 
ENDBRANCH  24  26
ENDBRANCH  11  24
TORSDOF 2
ENDMDL
MODEL 6
REMARK VINA RESULT:      -7.8      3.475      6.365
REMARK  2 active torsions:
REMARK  status: ('A' for Active; 'I' for Inactive)
REMARK    1  A    between atoms: C9_11  and  N3_12 
REMARK    2  A    between atoms: N3_12  and  C10_13 
ROOT
HETATM    1  C1  UNL     1      16.260   2.420  50.415  1.00  0.00     0.310 C 
HETATM    2  N1  UNL     1      17.515   3.182  50.270  1.00  0.00     0.091 N 
HETATM    3  C2  UNL     1      17.176   4.351  49.552  1.00  0.00     0.277 C 
HETATM    4  C3  UNL     1      17.738   4.436  48.150  1.00  0.00     0.068 C 
HETATM    5  C4  UNL     1      19.205   4.213  48.129  1.00  0.00    -0.056 C 
HETATM    6  C5  UNL     1      19.586   3.694  46.974  1.00  0.00     0.008 C 
HETATM    7  C6  UNL     1      20.822   3.258  46.349  1.00  0.00     0.017 C 
HETATM    8  C7  UNL     1      22.053   3.232  46.770  1.00  0.00     0.083 C 
HETATM    9  N2  UNL     1      22.571   3.636  48.017  1.00  0.00    -0.396 N 
HETATM   10  C8  UNL     1      23.284   4.388  49.021  1.00  0.00     0.165 C 
HETATM   11  C9  UNL     1      23.032   3.825  50.416  1.00  0.00     0.158 A 
HETATM   12  C16 UNL     1      23.966   4.474  51.353  1.00  0.00     0.256 A 
HETATM   13  O1  UNL     1      25.181   4.261  51.169  1.00  0.00    -0.270 OA
HETATM   14  N4  UNL     1      23.192   5.232  52.295  1.00  0.00    -0.334 N 
HETATM   15  C17 UNL     1      21.793   5.085  51.957  1.00  0.00     0.102 A 
HETATM   16  C18 UNL     1      21.707   4.297  50.894  1.00  0.00     0.010 A 
HETATM   17  C19 UNL     1      20.306   4.184  50.508  1.00  0.00     0.023 C 
HETATM   18  C20 UNL     1      20.076   4.575  49.263  1.00  0.00     0.023 C 
HETATM   19  C21 UNL     1      19.501   3.684  51.611  1.00  0.00     0.188 C 
HETATM   20  O2  UNL     1      20.225   3.599  52.626  1.00  0.00    -0.290 OA
HETATM   21  C22 UNL     1      18.050   3.318  51.583  1.00  0.00     0.355 C 
HETATM   22  H11 UNL     1      22.086   2.772  48.424  1.00  0.00     0.159 HD
HETATM   23  H19 UNL     1      23.785   5.719  53.011  1.00  0.00     0.168 HD
ENDROOT
BRANCH  11  24
HETATM   24  N3  UNL     1      23.244   2.413  50.511  1.00  0.00    -0.367 N 
HETATM   25  H14 UNL     1      23.744   2.079  49.636  1.00  0.00     0.161 HD
BRANCH  24  26
HETATM   26  C10 UNL     1      22.976   1.387  51.452  1.00  0.00     0.029 A 
HETATM   27  C11 UNL     1      23.822   0.984  52.457  1.00  0.00     0.031 A 
HETATM   28  C12 UNL     1      23.588   0.001  53.391  1.00  0.00     0.026 A 
HETATM   29  C13 UNL     1      22.361  -0.602  53.248  1.00  0.00     0.034 A 
HETATM   30 CL1  UNL     1      21.915  -1.879  54.365  1.00  0.00    -0.084 Cl
HETATM   31  C14 UNL     1      21.438  -0.279  52.279  1.00  0.00     0.026 A 
HETATM   32  C15 UNL     1      21.771   0.718  51.396  1.00  0.00     0.031 A 
ENDBRANCH  24  26
ENDBRANCH  11  24
TORSDOF 2
ENDMDL
MODEL 7
REMARK VINA RESULT:      -7.7      7.070     11.467
REMARK  2 active torsions:
REMARK  status: ('A' for Active; 'I' for Inactive)
REMARK    1  A    between atoms: C9_11  and  N3_12 
REMARK    2  A    between atoms: N3_12  and  C10_13 
ROOT
HETATM    1  C1  UNL     1      32.414   5.775  41.158  1.00  0.00     0.310 C 
HETATM    2  N1  UNL     1      32.848   6.154  42.516  1.00  0.00     0.091 N 
HETATM    3  C2  UNL     1      34.255   6.261  42.456  1.00  0.00     0.277 C 
HETATM    4  C3  UNL     1      35.019   5.206  43.223  1.00  0.00     0.068 C 
HETATM    5  C4  UNL     1      34.560   5.106  44.631  1.00  0.00    -0.056 C 
HETATM    6  C5  UNL     1      34.740   3.882  45.099  1.00  0.00     0.008 C 
HETATM    7  C6  UNL     1      34.508   3.164  46.339  1.00  0.00     0.017 C 
HETATM    8  C7  UNL     1      33.996   3.527  47.479  1.00  0.00     0.083 C 
HETATM    9  N2  UNL     1      33.490   4.786  47.861  1.00  0.00    -0.396 N 
HETATM   10  C8  UNL     1      33.362   6.065  48.519  1.00  0.00     0.165 C 
HETATM   11  C9  UNL     1      32.161   6.841  47.987  1.00  0.00     0.158 A 
HETATM   12  C16 UNL     1      31.945   8.011  48.856  1.00  0.00     0.256 A 
HETATM   13  O1  UNL     1      31.638   7.778  50.043  1.00  0.00    -0.270 OA
HETATM   14  N4  UNL     1      32.156   9.192  48.069  1.00  0.00    -0.334 N 
HETATM   15  C17 UNL     1      32.517   8.785  46.727  1.00  0.00     0.102 A 
HETATM   16  C18 UNL     1      32.524   7.460  46.687  1.00  0.00     0.010 A 
HETATM   17  C19 UNL     1      32.941   7.036  45.357  1.00  0.00     0.023 C 
HETATM   18  C20 UNL     1      34.016   6.262  45.369  1.00  0.00     0.023 C 
HETATM   19  C21 UNL     1      32.069   7.596  44.336  1.00  0.00     0.188 C 
HETATM   20  O2  UNL     1      31.270   8.385  44.883  1.00  0.00    -0.290 OA
HETATM   21  C22 UNL     1      32.089   7.307  42.867  1.00  0.00     0.355 C 
HETATM   22  H11 UNL     1      32.670   4.582  47.203  1.00  0.00     0.159 HD
HETATM   23  H19 UNL     1      32.008  10.076  48.613  1.00  0.00     0.168 HD
ENDROOT
BRANCH  11  24
HETATM   24  N3  UNL     1      30.947   6.083  47.980  1.00  0.00    -0.367 N 
HETATM   25  H14 UNL     1      31.185   5.048  48.001  1.00  0.00     0.161 HD
BRANCH  24  26
HETATM   26  C10 UNL     1      29.556   6.358  47.968  1.00  0.00     0.029 A 
HETATM   27  C11 UNL     1      28.968   7.486  47.449  1.00  0.00     0.031 A 
HETATM   28  C12 UNL     1      27.624   7.778  47.412  1.00  0.00     0.026 A 
HETATM   29  C13 UNL     1      26.841   6.795  47.971  1.00  0.00     0.034 A 
HETATM   30 CL1  UNL     1      25.102   7.020  48.001  1.00  0.00    -0.084 Cl
HETATM   31  C14 UNL     1      27.323   5.628  48.519  1.00  0.00     0.026 A 
HETATM   32  C15 UNL     1      28.682   5.435  48.504  1.00  0.00     0.031 A 
ENDBRANCH  24  26
ENDBRANCH  11  24
TORSDOF 2
ENDMDL
MODEL 8
REMARK VINA RESULT:      -7.6      4.138      6.653
REMARK  2 active torsions:
REMARK  status: ('A' for Active; 'I' for Inactive)
REMARK    1  A    between atoms: C9_11  and  N3_12 
REMARK    2  A    between atoms: N3_12  and  C10_13 
ROOT
HETATM    1  C1  UNL     1      22.828  -1.112  55.034  1.00  0.00     0.310 C 
HETATM    2  N1  UNL     1      22.829  -0.318  53.790  1.00  0.00     0.091 N 
HETATM    3  C2  UNL     1      24.165  -0.325  53.329  1.00  0.00     0.277 C 
HETATM    4  C3  UNL     1      24.880   1.005  53.397  1.00  0.00     0.068 C 
HETATM    5  C4  UNL     1      24.103   2.085  52.737  1.00  0.00    -0.056 C 
HETATM    6  C5  UNL     1      24.368   3.258  53.286  1.00  0.00     0.008 C 
HETATM    7  C6  UNL     1      23.957   4.640  53.113  1.00  0.00     0.017 C 
HETATM    8  C7  UNL     1      23.118   5.208  52.298  1.00  0.00     0.083 C 
HETATM    9  N2  UNL     1      22.320   4.618  51.297  1.00  0.00    -0.396 N 
HETATM   10  C8  UNL     1      21.807   4.251  49.998  1.00  0.00     0.165 C 
HETATM   11  C9  UNL     1      20.665   3.247  50.119  1.00  0.00     0.158 A 
HETATM   12  C16 UNL     1      20.034   3.102  48.795  1.00  0.00     0.256 A 
HETATM   13  O1  UNL     1      19.482   4.117  48.324  1.00  0.00    -0.270 OA
HETATM   14  N4  UNL     1      20.229   1.749  48.358  1.00  0.00    -0.334 N 
HETATM   15  C17 UNL     1      20.985   1.048  49.374  1.00  0.00     0.102 A 
HETATM   16  C18 UNL     1      21.233   1.896  50.362  1.00  0.00     0.010 A 
HETATM   17  C19 UNL     1      22.042   1.220  51.368  1.00  0.00     0.023 C 
HETATM   18  C20 UNL     1      23.196   1.826  51.603  1.00  0.00     0.023 C 
HETATM   19  C21 UNL     1      21.375   0.020  51.849  1.00  0.00     0.188 C 
HETATM   20  O2  UNL     1      20.337  -0.157  51.175  1.00  0.00    -0.290 OA
HETATM   21  C22 UNL     1      21.817  -0.880  52.961  1.00  0.00     0.355 C 
HETATM   22  H11 UNL     1      21.742   4.200  52.095  1.00  0.00     0.159 HD
HETATM   23  H19 UNL     1      19.796   1.557  47.422  1.00  0.00     0.168 HD
ENDROOT
BRANCH  11  24
HETATM   24  N3  UNL     1      19.644   3.650  51.037  1.00  0.00    -0.367 N 
HETATM   25  H14 UNL     1      20.039   4.387  51.692  1.00  0.00     0.161 HD
BRANCH  24  26
HETATM   26  C10 UNL     1      18.282   3.334  51.274  1.00  0.00     0.029 A 
HETATM   27  C11 UNL     1      17.767   2.068  51.410  1.00  0.00     0.031 A 
HETATM   28  C12 UNL     1      16.455   1.729  51.649  1.00  0.00     0.026 A 
HETATM   29  C13 UNL     1      15.624   2.819  51.752  1.00  0.00     0.034 A 
HETATM   30 CL1  UNL     1      13.917   2.551  52.057  1.00  0.00    -0.084 Cl
HETATM   31  C14 UNL     1      16.032   4.128  51.633  1.00  0.00     0.026 A 
HETATM   32  C15 UNL     1      17.364   4.357  51.394  1.00  0.00     0.031 A 
ENDBRANCH  24  26
ENDBRANCH  11  24
TORSDOF 2
ENDMDL
MODEL 9
REMARK VINA RESULT:      -7.5      6.976      9.726
REMARK  2 active torsions:
REMARK  status: ('A' for Active; 'I' for Inactive)
REMARK    1  A    between atoms: C9_11  and  N3_12 
REMARK    2  A    between atoms: N3_12  and  C10_13 
ROOT
HETATM    1  C1  UNL     1      32.836   5.892  45.095  1.00  0.00     0.310 C 
HETATM    2  N1  UNL     1      32.187   6.608  46.211  1.00  0.00     0.091 N 
HETATM    3  C2  UNL     1      32.502   5.873  47.376  1.00  0.00     0.277 C 
HETATM    4  C3  UNL     1      31.338   5.161  48.027  1.00  0.00     0.068 C 
HETATM    5  C4  UNL     1      30.199   6.080  48.278  1.00  0.00    -0.056 C 
HETATM    6  C5  UNL     1      29.051   5.423  48.254  1.00  0.00     0.008 C 
HETATM    7  C6  UNL     1      27.640   5.725  48.414  1.00  0.00     0.017 C 
HETATM    8  C7  UNL     1      27.003   6.836  48.644  1.00  0.00     0.083 C 
HETATM    9  N2  UNL     1      27.522   8.136  48.808  1.00  0.00    -0.396 N 
HETATM   10  C8  UNL     1      27.910   9.385  49.419  1.00  0.00     0.165 C 
HETATM   11  C9  UNL     1      28.653  10.276  48.430  1.00  0.00     0.158 A 
HETATM   12  C16 UNL     1      28.804  11.612  49.032  1.00  0.00     0.256 A 
HETATM   13  O1  UNL     1      27.753  12.245  49.262  1.00  0.00    -0.270 OA
HETATM   14  N4  UNL     1      30.205  11.860  49.214  1.00  0.00    -0.334 N 
HETATM   15  C17 UNL     1      30.936  10.699  48.753  1.00  0.00     0.102 A 
HETATM   16  C18 UNL     1      30.058   9.807  48.317  1.00  0.00     0.010 A 
HETATM   17  C19 UNL     1      30.775   8.609  47.901  1.00  0.00     0.023 C 
HETATM   18  C20 UNL     1      30.387   7.518  48.544  1.00  0.00     0.023 C 
HETATM   19  C21 UNL     1      31.766   8.924  46.884  1.00  0.00     0.188 C 
HETATM   20  O2  UNL     1      31.804  10.164  46.734  1.00  0.00    -0.290 OA
HETATM   21  C22 UNL     1      32.620   7.961  46.119  1.00  0.00     0.355 C 
HETATM   22  H11 UNL     1      27.736   8.112  47.760  1.00  0.00     0.159 HD
HETATM   23  H19 UNL     1      30.402  12.803  49.630  1.00  0.00     0.168 HD
ENDROOT
BRANCH  11  24
HETATM   24  N3  UNL     1      27.968  10.444  47.184  1.00  0.00    -0.367 N 
HETATM   25  H14 UNL     1      26.922  10.368  47.352  1.00  0.00     0.161 HD
BRANCH  24  26
HETATM   26  C10 UNL     1      28.322  10.693  45.834  1.00  0.00     0.029 A 
HETATM   27  C11 UNL     1      28.572  11.929  45.288  1.00  0.00     0.031 A 
HETATM   28  C12 UNL     1      28.926  12.203  43.987  1.00  0.00     0.026 A 
HETATM   29  C13 UNL     1      29.023  11.078  43.203  1.00  0.00     0.034 A 
HETATM   30 CL1  UNL     1      29.466  11.262  41.516  1.00  0.00    -0.084 Cl
HETATM   31  C14 UNL     1      28.795   9.794  43.645  1.00  0.00     0.026 A 
HETATM   32  C15 UNL     1      28.446   9.631  44.963  1.00  0.00     0.031 A 
ENDBRANCH  24  26
ENDBRANCH  11  24
TORSDOF 2
ENDMDL
