MODEL 1
REMARK VINA RESULT:      -8.5      0.000      0.000
REMARK  3 active torsions:
REMARK  status: ('A' for Active; 'I' for Inactive)
REMARK    1  A    between atoms: C7_8  and  P1_9 
REMARK    2  A    between atoms: P1_9  and  C8_10 
REMARK    3  A    between atoms: C8_10  and  C9_12 
ROOT
HETATM    1  C9  UNL     1      28.272  -0.030  54.713  1.00  0.00     0.207 C 
HETATM    2  C10 UNL     1      28.955   1.241  54.742  1.00  0.00     0.067 C 
HETATM    3  N1  UNL     1      29.504   2.275  54.784  1.00  0.00    -0.197 NA
ENDROOT
BRANCH   1   4
HETATM    4  C8  UNL     1      26.771   0.118  54.613  1.00  0.00     0.166 C 
HETATM    5  O1  UNL     1      26.200   0.556  55.595  1.00  0.00    -0.292 OA
BRANCH   4   6
HETATM    6  P1  UNL     1      25.938  -0.353  53.071  1.00  0.00    -0.022 P 
HETATM    7  H8  UNL     1      25.036  -1.450  53.165  1.00  0.00     0.070 HD
BRANCH   6   8
HETATM    8  C7  UNL     1      25.371   1.058  52.057  1.00  0.00    -0.013 C 
HETATM    9  C6  UNL     1      24.070   1.038  52.251  1.00  0.00     0.019 C 
HETATM   10  C5  UNL     1      22.829   1.703  51.896  1.00  0.00     0.016 C 
HETATM   11 BR1  UNL     1      23.187  -0.247  53.416  1.00  0.00    -0.050 Br
HETATM   12  C4  UNL     1      22.441   2.746  51.088  1.00  0.00    -0.022 C 
HETATM   13  C3  UNL     1      23.405   3.484  50.311  1.00  0.00     0.066 C 
HETATM   14  C2  UNL     1      23.747   4.850  50.192  1.00  0.00     0.076 C 
HETATM   15  C1  UNL     1      22.807   5.390  49.048  1.00  0.00     0.047 C 
HETATM   16  O2  UNL     1      23.617   5.787  51.180  1.00  0.00    -0.375 OA
HETATM   17  C17 UNL     1      25.169   4.874  49.699  1.00  0.00     0.141 C 
HETATM   18  C16 UNL     1      23.782   7.073  50.605  1.00  0.00     0.198 C 
HETATM   19  C15 UNL     1      25.002   7.048  49.766  1.00  0.00     0.027 C 
HETATM   20  C14 UNL     1      25.740   6.094  49.239  1.00  0.00     0.048 C 
HETATM   21  N4  UNL     1      26.920   6.011  48.433  1.00  0.00    -0.246 NA
HETATM   22  C13 UNL     1      27.696   4.936  48.598  1.00  0.00     0.235 C 
HETATM   23  N3  UNL     1      27.269   3.926  49.526  1.00  0.00    -0.228 NA
HETATM   24  C12 UNL     1      26.157   3.946  50.160  1.00  0.00     0.114 C 
HETATM   25  N2  UNL     1      26.412   2.815  50.874  1.00  0.00    -0.373 N 
HETATM   26  C11 UNL     1      26.641   1.619  51.534  1.00  0.00     0.162 C 
HETATM   27  H13 UNL     1      26.639   3.423  51.718  1.00  0.00     0.161 HD
ENDBRANCH   6   8
ENDBRANCH   4   6
ENDBRANCH   1   4
TORSDOF 3
ENDMDL
MODEL 2
REMARK VINA RESULT:      -7.8      3.856      7.286
REMARK  3 active torsions:
REMARK  status: ('A' for Active; 'I' for Inactive)
REMARK    1  A    between atoms: C7_8  and  P1_9 
REMARK    2  A    between atoms: P1_9  and  C8_10 
REMARK    3  A    between atoms: C8_10  and  C9_12 
ROOT
HETATM    1  C9  UNL     1      16.923   2.346  51.256  1.00  0.00     0.207 C 
HETATM    2  C10 UNL     1      16.567   3.344  50.276  1.00  0.00     0.067 C 
HETATM    3  N1  UNL     1      16.284   4.142  49.467  1.00  0.00    -0.197 NA
ENDROOT
BRANCH   1   4
HETATM    4  C8  UNL     1      18.408   2.302  51.529  1.00  0.00     0.166 C 
HETATM    5  O1  UNL     1      18.897   3.291  52.044  1.00  0.00    -0.292 OA
BRANCH   4   6
HETATM    6  P1  UNL     1      19.345   0.812  51.086  1.00  0.00    -0.022 P 
HETATM    7  H8  UNL     1      19.264   0.413  49.722  1.00  0.00     0.070 HD
BRANCH   6   8
HETATM    8  C7  UNL     1      21.003   0.706  51.850  1.00  0.00    -0.013 C 
HETATM    9  C6  UNL     1      20.801  -0.132  52.843  1.00  0.00     0.019 C 
HETATM   10  C5  UNL     1      21.454  -0.798  53.956  1.00  0.00     0.016 C 
HETATM   11 BR1  UNL     1      19.079  -0.968  53.198  1.00  0.00    -0.050 Br
HETATM   12  C4  UNL     1      22.706  -0.817  54.523  1.00  0.00    -0.022 C 
HETATM   13  C3  UNL     1      23.776  -0.009  53.992  1.00  0.00     0.066 C 
HETATM   14  C2  UNL     1      25.087  -0.276  53.536  1.00  0.00     0.076 C 
HETATM   15  C1  UNL     1      25.983  -0.142  54.826  1.00  0.00     0.047 C 
HETATM   16  O2  UNL     1      25.506  -1.450  52.976  1.00  0.00    -0.375 OA
HETATM   17  C17 UNL     1      25.428   0.848  52.595  1.00  0.00     0.141 C 
HETATM   18  C16 UNL     1      26.924  -1.440  52.919  1.00  0.00     0.198 C 
HETATM   19  C15 UNL     1      27.350  -0.148  52.333  1.00  0.00     0.027 C 
HETATM   20  C14 UNL     1      26.769   1.017  52.148  1.00  0.00     0.048 C 
HETATM   21  N4  UNL     1      27.126   2.286  51.589  1.00  0.00    -0.246 NA
HETATM   22  C13 UNL     1      26.146   3.005  51.034  1.00  0.00     0.235 C 
HETATM   23  N3  UNL     1      24.809   2.483  51.083  1.00  0.00    -0.228 NA
HETATM   24  C12 UNL     1      24.473   1.404  51.684  1.00  0.00     0.114 C 
HETATM   25  N2  UNL     1      23.170   1.454  51.292  1.00  0.00    -0.373 N 
HETATM   26  C11 UNL     1      21.829   1.558  50.960  1.00  0.00     0.162 C 
HETATM   27  H13 UNL     1      23.382   0.709  50.562  1.00  0.00     0.161 HD
ENDBRANCH   6   8
ENDBRANCH   4   6
ENDBRANCH   1   4
TORSDOF 3
ENDMDL
MODEL 3
REMARK VINA RESULT:      -7.7      3.702      5.837
REMARK  3 active torsions:
REMARK  status: ('A' for Active; 'I' for Inactive)
REMARK    1  A    between atoms: C7_8  and  P1_9 
REMARK    2  A    between atoms: P1_9  and  C8_10 
REMARK    3  A    between atoms: C8_10  and  C9_12 
ROOT
HETATM    1  C9  UNL     1      28.899   0.514  53.847  1.00  0.00     0.207 C 
HETATM    2  C10 UNL     1      28.797  -0.903  53.601  1.00  0.00     0.067 C 
HETATM    3  N1  UNL     1      28.717  -2.051  53.382  1.00  0.00    -0.197 NA
ENDROOT
BRANCH   1   4
HETATM    4  C8  UNL     1      27.619   1.253  53.531  1.00  0.00     0.166 C 
HETATM    5  O1  UNL     1      27.218   2.034  54.375  1.00  0.00    -0.292 OA
BRANCH   4   6
HETATM    6  P1  UNL     1      26.785   0.940  51.951  1.00  0.00    -0.022 P 
HETATM    7  H8  UNL     1      27.216  -0.218  51.242  1.00  0.00     0.070 HD
BRANCH   6   8
HETATM    8  C7  UNL     1      24.980   1.229  51.976  1.00  0.00    -0.013 C 
HETATM    9  C6  UNL     1      24.864   2.338  51.279  1.00  0.00     0.019 C 
HETATM   10  C5  UNL     1      23.902   3.306  50.782  1.00  0.00     0.016 C 
HETATM   11 BR1  UNL     1      26.381   3.252  50.470  1.00  0.00    -0.050 Br
HETATM   12  C4  UNL     1      22.545   3.508  50.861  1.00  0.00    -0.022 C 
HETATM   13  C3  UNL     1      21.700   2.607  51.606  1.00  0.00     0.066 C 
HETATM   14  C2  UNL     1      20.547   1.849  51.302  1.00  0.00     0.076 C 
HETATM   15  C1  UNL     1      19.347   2.818  51.624  1.00  0.00     0.047 C 
HETATM   16  O2  UNL     1      20.232   1.350  50.068  1.00  0.00    -0.375 OA
HETATM   17  C17 UNL     1      20.531   0.716  52.292  1.00  0.00     0.141 C 
HETATM   18  C16 UNL     1      18.884   0.907  50.094  1.00  0.00     0.198 C 
HETATM   19  C15 UNL     1      18.699   0.069  51.301  1.00  0.00     0.027 C 
HETATM   20  C14 UNL     1      19.369  -0.097  52.421  1.00  0.00     0.048 C 
HETATM   21  N4  UNL     1      19.242  -0.888  53.607  1.00  0.00    -0.246 NA
HETATM   22  C13 UNL     1      20.372  -1.242  54.227  1.00  0.00     0.235 C 
HETATM   23  N3  UNL     1      21.617  -0.765  53.694  1.00  0.00    -0.228 NA
HETATM   24  C12 UNL     1      21.723   0.037  52.702  1.00  0.00     0.114 C 
HETATM   25  N2  UNL     1      23.084   0.011  52.677  1.00  0.00    -0.373 N 
HETATM   26  C11 UNL     1      24.468   0.047  52.713  1.00  0.00     0.162 C 
HETATM   27  H13 UNL     1      23.036  -0.648  51.843  1.00  0.00     0.161 HD
ENDBRANCH   6   8
ENDBRANCH   4   6
ENDBRANCH   1   4
TORSDOF 3
ENDMDL
MODEL 4
REMARK VINA RESULT:      -7.4      2.178      3.025
REMARK  3 active torsions:
REMARK  status: ('A' for Active; 'I' for Inactive)
REMARK    1  A    between atoms: C7_8  and  P1_9 
REMARK    2  A    between atoms: P1_9  and  C8_10 
REMARK    3  A    between atoms: C8_10  and  C9_12 
ROOT
HETATM    1  C9  UNL     1      26.188   1.803  53.763  1.00  0.00     0.207 C 
HETATM    2  C10 UNL     1      27.563   2.225  53.862  1.00  0.00     0.067 C 
HETATM    3  N1  UNL     1      28.676   2.584  53.930  1.00  0.00    -0.197 NA
ENDROOT
BRANCH   1   4
HETATM    4  C8  UNL     1      25.871   1.156  52.435  1.00  0.00     0.166 C 
HETATM    5  O1  UNL     1      26.599   0.246  52.084  1.00  0.00    -0.292 OA
BRANCH   4   6
HETATM    6  P1  UNL     1      24.455   1.760  51.474  1.00  0.00    -0.022 P 
HETATM    7  H8  UNL     1      23.208   1.792  52.161  1.00  0.00     0.070 HD
BRANCH   6   8
HETATM    8  C7  UNL     1      24.818   3.208  50.419  1.00  0.00    -0.013 C 
HETATM    9  C6  UNL     1      23.625   3.732  50.242  1.00  0.00     0.019 C 
HETATM   10  C5  UNL     1      22.916   4.819  49.591  1.00  0.00     0.016 C 
HETATM   11 BR1  UNL     1      22.010   2.999  51.043  1.00  0.00    -0.050 Br
HETATM   12  C4  UNL     1      23.228   5.873  48.765  1.00  0.00    -0.022 C 
HETATM   13  C3  UNL     1      24.583   6.101  48.328  1.00  0.00     0.066 C 
HETATM   14  C2  UNL     1      25.472   7.198  48.384  1.00  0.00     0.076 C 
HETATM   15  C1  UNL     1      25.191   7.995  47.053  1.00  0.00     0.047 C 
HETATM   16  O2  UNL     1      25.469   8.170  49.345  1.00  0.00    -0.375 OA
HETATM   17  C17 UNL     1      26.854   6.608  48.308  1.00  0.00     0.141 C 
HETATM   18  C16 UNL     1      26.297   9.236  48.909  1.00  0.00     0.198 C 
HETATM   19  C15 UNL     1      27.580   8.661  48.444  1.00  0.00     0.027 C 
HETATM   20  C14 UNL     1      27.977   7.456  48.093  1.00  0.00     0.048 C 
HETATM   21  N4  UNL     1      29.192   6.846  47.644  1.00  0.00    -0.246 NA
HETATM   22  C13 UNL     1      29.382   5.562  47.961  1.00  0.00     0.235 C 
HETATM   23  N3  UNL     1      28.342   4.878  48.677  1.00  0.00    -0.228 NA
HETATM   24  C12 UNL     1      27.208   5.391  48.976  1.00  0.00     0.114 C 
HETATM   25  N2  UNL     1      26.769   4.306  49.671  1.00  0.00    -0.373 N 
HETATM   26  C11 UNL     1      26.297   3.167  50.303  1.00  0.00     0.162 C 
HETATM   27  H13 UNL     1      26.982   4.824  50.576  1.00  0.00     0.161 HD
ENDBRANCH   6   8
ENDBRANCH   4   6
ENDBRANCH   1   4
TORSDOF 3
ENDMDL
MODEL 5
REMARK VINA RESULT:      -7.4      2.574      6.856
REMARK  3 active torsions:
REMARK  status: ('A' for Active; 'I' for Inactive)
REMARK    1  A    between atoms: C7_8  and  P1_9 
REMARK    2  A    between atoms: P1_9  and  C8_10 
REMARK    3  A    between atoms: C8_10  and  C9_12 
ROOT
HETATM    1  C9  UNL     1      22.852   7.226  49.848  1.00  0.00     0.207 C 
HETATM    2  C10 UNL     1      22.028   6.862  48.721  1.00  0.00     0.067 C 
HETATM    3  N1  UNL     1      21.353   6.549  47.816  1.00  0.00    -0.197 NA
ENDROOT
BRANCH   1   4
HETATM    4  C8  UNL     1      24.134   6.430  49.913  1.00  0.00     0.166 C 
HETATM    5  O1  UNL     1      25.096   6.986  50.410  1.00  0.00    -0.292 OA
BRANCH   4   6
HETATM    6  P1  UNL     1      24.156   4.735  49.266  1.00  0.00    -0.022 P 
HETATM    7  H8  UNL     1      24.695   4.579  47.957  1.00  0.00     0.070 HD
BRANCH   6   8
HETATM    8  C7  UNL     1      24.649   3.466  50.485  1.00  0.00    -0.013 C 
HETATM    9  C6  UNL     1      23.559   2.737  50.588  1.00  0.00     0.019 C 
HETATM   10  C5  UNL     1      22.987   1.585  51.262  1.00  0.00     0.016 C 
HETATM   11 BR1  UNL     1      21.944   3.086  49.558  1.00  0.00    -0.050 Br
HETATM   12  C4  UNL     1      23.385   0.675  52.213  1.00  0.00    -0.022 C 
HETATM   13  C3  UNL     1      24.697   0.744  52.806  1.00  0.00     0.066 C 
HETATM   14  C2  UNL     1      25.772  -0.164  52.947  1.00  0.00     0.076 C 
HETATM   15  C1  UNL     1      25.484  -0.899  54.311  1.00  0.00     0.047 C 
HETATM   16  O2  UNL     1      26.060  -1.187  52.087  1.00  0.00    -0.375 OA
HETATM   17  C17 UNL     1      27.004   0.685  53.108  1.00  0.00     0.141 C 
HETATM   18  C16 UNL     1      27.011  -2.039  52.706  1.00  0.00     0.198 C 
HETATM   19  C15 UNL     1      28.103  -1.195  53.244  1.00  0.00     0.027 C 
HETATM   20  C14 UNL     1      28.229   0.086  53.518  1.00  0.00     0.048 C 
HETATM   21  N4  UNL     1      29.250   0.949  54.029  1.00  0.00    -0.246 NA
HETATM   22  C13 UNL     1      29.240   2.219  53.613  1.00  0.00     0.235 C 
HETATM   23  N3  UNL     1      28.185   2.636  52.732  1.00  0.00    -0.228 NA
HETATM   24  C12 UNL     1      27.207   1.894  52.368  1.00  0.00     0.114 C 
HETATM   25  N2  UNL     1      26.664   2.821  51.532  1.00  0.00    -0.373 N 
HETATM   26  C11 UNL     1      26.071   3.798  50.749  1.00  0.00     0.162 C 
HETATM   27  H13 UNL     1      27.074   2.288  50.707  1.00  0.00     0.161 HD
ENDBRANCH   6   8
ENDBRANCH   4   6
ENDBRANCH   1   4
TORSDOF 3
ENDMDL
MODEL 6
REMARK VINA RESULT:      -7.3      3.565      7.679
REMARK  3 active torsions:
REMARK  status: ('A' for Active; 'I' for Inactive)
REMARK    1  A    between atoms: C7_8  and  P1_9 
REMARK    2  A    between atoms: P1_9  and  C8_10 
REMARK    3  A    between atoms: C8_10  and  C9_12 
ROOT
HETATM    1  C9  UNL     1      20.914   6.823  48.575  1.00  0.00     0.207 C 
HETATM    2  C10 UNL     1      20.399   7.892  49.396  1.00  0.00     0.067 C 
HETATM    3  N1  UNL     1      19.999   8.765  50.067  1.00  0.00    -0.197 NA
ENDROOT
BRANCH   1   4
HETATM    4  C8  UNL     1      21.348   5.624  49.385  1.00  0.00     0.166 C 
HETATM    5  O1  UNL     1      20.790   4.570  49.141  1.00  0.00    -0.292 OA
BRANCH   4   6
HETATM    6  P1  UNL     1      22.645   5.826  50.638  1.00  0.00    -0.022 P 
HETATM    7  H8  UNL     1      22.341   6.718  51.706  1.00  0.00     0.070 HD
BRANCH   6   8
HETATM    8  C7  UNL     1      23.486   4.274  51.114  1.00  0.00    -0.013 C 
HETATM    9  C6  UNL     1      24.667   4.412  50.552  1.00  0.00     0.019 C 
HETATM   10  C5  UNL     1      25.948   3.757  50.359  1.00  0.00     0.016 C 
HETATM   11 BR1  UNL     1      25.189   5.992  49.542  1.00  0.00    -0.050 Br
HETATM   12  C4  UNL     1      26.529   2.559  50.704  1.00  0.00    -0.022 C 
HETATM   13  C3  UNL     1      25.801   1.570  51.461  1.00  0.00     0.066 C 
HETATM   14  C2  UNL     1      26.038   0.874  52.668  1.00  0.00     0.076 C 
HETATM   15  C1  UNL     1      26.815  -0.424  52.224  1.00  0.00     0.047 C 
HETATM   16  O2  UNL     1      26.774   1.343  53.721  1.00  0.00    -0.375 OA
HETATM   17  C17 UNL     1      24.681   0.471  53.179  1.00  0.00     0.141 C 
HETATM   18  C16 UNL     1      27.024   0.265  54.609  1.00  0.00     0.198 C 
HETATM   19  C15 UNL     1      25.742  -0.433  54.857  1.00  0.00     0.027 C 
HETATM   20  C14 UNL     1      24.574  -0.459  54.251  1.00  0.00     0.048 C 
HETATM   21  N4  UNL     1      23.311  -1.104  54.446  1.00  0.00    -0.246 NA
HETATM   22  C13 UNL     1      22.223  -0.455  54.020  1.00  0.00     0.235 C 
HETATM   23  N3  UNL     1      22.401   0.807  53.358  1.00  0.00    -0.228 NA
HETATM   24  C12 UNL     1      23.538   1.328  53.082  1.00  0.00     0.114 C 
HETATM   25  N2  UNL     1      23.016   2.476  52.568  1.00  0.00    -0.373 N 
HETATM   26  C11 UNL     1      22.477   3.603  51.970  1.00  0.00     0.162 C 
HETATM   27  H13 UNL     1      23.269   2.973  53.475  1.00  0.00     0.161 HD
ENDBRANCH   6   8
ENDBRANCH   4   6
ENDBRANCH   1   4
TORSDOF 3
ENDMDL
MODEL 7
REMARK VINA RESULT:      -7.1      6.445      9.018
REMARK  3 active torsions:
REMARK  status: ('A' for Active; 'I' for Inactive)
REMARK    1  A    between atoms: C7_8  and  P1_9 
REMARK    2  A    between atoms: P1_9  and  C8_10 
REMARK    3  A    between atoms: C8_10  and  C9_12 
ROOT
HETATM    1  C9  UNL     1      33.230   4.584  44.992  1.00  0.00     0.207 C 
HETATM    2  C10 UNL     1      33.200   5.912  44.429  1.00  0.00     0.067 C 
HETATM    3  N1  UNL     1      33.191   6.985  43.958  1.00  0.00    -0.197 NA
ENDROOT
BRANCH   1   4
HETATM    4  C8  UNL     1      34.385   4.381  45.944  1.00  0.00     0.166 C 
HETATM    5  O1  UNL     1      35.406   3.915  45.471  1.00  0.00    -0.292 OA
BRANCH   4   6
HETATM    6  P1  UNL     1      34.184   4.838  47.688  1.00  0.00    -0.022 P 
HETATM    7  H8  UNL     1      35.365   5.274  48.355  1.00  0.00     0.070 HD
BRANCH   6   8
HETATM    8  C7  UNL     1      32.669   5.795  48.050  1.00  0.00    -0.013 C 
HETATM    9  C6  UNL     1      33.132   7.021  48.166  1.00  0.00     0.019 C 
HETATM   10  C5  UNL     1      32.741   8.392  48.436  1.00  0.00     0.016 C 
HETATM   11 BR1  UNL     1      35.009   7.477  47.925  1.00  0.00    -0.050 Br
HETATM   12  C4  UNL     1      31.584   9.067  48.747  1.00  0.00    -0.022 C 
HETATM   13  C3  UNL     1      30.329   8.369  48.882  1.00  0.00     0.066 C 
HETATM   14  C2  UNL     1      29.050   8.504  48.295  1.00  0.00     0.076 C 
HETATM   15  C1  UNL     1      28.290   9.509  49.242  1.00  0.00     0.047 C 
HETATM   16  O2  UNL     1      28.803   8.997  47.044  1.00  0.00    -0.375 OA
HETATM   17  C17 UNL     1      28.403   7.151  48.411  1.00  0.00     0.141 C 
HETATM   18  C16 UNL     1      27.412   9.247  46.926  1.00  0.00     0.198 C 
HETATM   19  C15 UNL     1      26.687   8.047  47.405  1.00  0.00     0.027 C 
HETATM   20  C14 UNL     1      27.014   7.003  48.136  1.00  0.00     0.048 C 
HETATM   21  N4  UNL     1      26.365   5.823  48.622  1.00  0.00    -0.246 NA
HETATM   22  C13 UNL     1      27.125   4.739  48.800  1.00  0.00     0.235 C 
HETATM   23  N3  UNL     1      28.534   4.847  48.544  1.00  0.00    -0.228 NA
HETATM   24  C12 UNL     1      29.131   5.932  48.221  1.00  0.00     0.114 C 
HETATM   25  N2  UNL     1      30.351   5.349  48.059  1.00  0.00    -0.373 N 
HETATM   26  C11 UNL     1      31.604   4.764  47.980  1.00  0.00     0.162 C 
HETATM   27  H13 UNL     1      30.207   5.386  47.005  1.00  0.00     0.161 HD
ENDBRANCH   6   8
ENDBRANCH   4   6
ENDBRANCH   1   4
TORSDOF 3
ENDMDL
MODEL 8
REMARK VINA RESULT:      -6.9      5.192      7.534
REMARK  3 active torsions:
REMARK  status: ('A' for Active; 'I' for Inactive)
REMARK    1  A    between atoms: C7_8  and  P1_9 
REMARK    2  A    between atoms: P1_9  and  C8_10 
REMARK    3  A    between atoms: C8_10  and  C9_12 
ROOT
HETATM    1  C9  UNL     1      33.442   6.418  47.079  1.00  0.00     0.207 C 
HETATM    2  C10 UNL     1      32.794   6.538  45.796  1.00  0.00     0.067 C 
HETATM    3  N1  UNL     1      32.272   6.656  44.754  1.00  0.00    -0.197 NA
ENDROOT
BRANCH   1   4
HETATM    4  C8  UNL     1      32.567   6.887  48.219  1.00  0.00     0.166 C 
HETATM    5  O1  UNL     1      32.760   6.368  49.303  1.00  0.00    -0.292 OA
BRANCH   4   6
HETATM    6  P1  UNL     1      31.318   8.165  47.906  1.00  0.00    -0.022 P 
HETATM    7  H8  UNL     1      31.346   8.754  46.610  1.00  0.00     0.070 HD
BRANCH   6   8
HETATM    8  C7  UNL     1      29.658   7.780  48.569  1.00  0.00    -0.013 C 
HETATM    9  C6  UNL     1      29.216   8.966  48.924  1.00  0.00     0.019 C 
HETATM   10  C5  UNL     1      28.086   9.658  49.517  1.00  0.00     0.016 C 
HETATM   11 BR1  UNL     1      30.237  10.604  48.670  1.00  0.00    -0.050 Br
HETATM   12  C4  UNL     1      26.862   9.319  50.044  1.00  0.00    -0.022 C 
HETATM   13  C3  UNL     1      26.431   7.944  50.102  1.00  0.00     0.066 C 
HETATM   14  C2  UNL     1      25.294   7.241  49.643  1.00  0.00     0.076 C 
HETATM   15  C1  UNL     1      24.269   7.334  50.837  1.00  0.00     0.047 C 
HETATM   16  O2  UNL     1      24.544   7.577  48.551  1.00  0.00    -0.375 OA
HETATM   17  C17 UNL     1      25.732   5.809  49.496  1.00  0.00     0.141 C 
HETATM   18  C16 UNL     1      23.342   6.824  48.582  1.00  0.00     0.198 C 
HETATM   19  C15 UNL     1      23.695   5.406  48.828  1.00  0.00     0.027 C 
HETATM   20  C14 UNL     1      24.762   4.788  49.286  1.00  0.00     0.048 C 
HETATM   21  N4  UNL     1      25.158   3.436  49.539  1.00  0.00    -0.246 NA
HETATM   22  C13 UNL     1      26.458   3.149  49.422  1.00  0.00     0.235 C 
HETATM   23  N3  UNL     1      27.363   4.219  49.105  1.00  0.00    -0.228 NA
HETATM   24  C12 UNL     1      27.024   5.448  48.994  1.00  0.00     0.114 C 
HETATM   25  N2  UNL     1      28.263   5.877  48.628  1.00  0.00    -0.373 N 
HETATM   26  C11 UNL     1      29.544   6.318  48.340  1.00  0.00     0.162 C 
HETATM   27  H13 UNL     1      27.925   5.932  47.620  1.00  0.00     0.161 HD
ENDBRANCH   6   8
ENDBRANCH   4   6
ENDBRANCH   1   4
TORSDOF 3
ENDMDL
MODEL 9
REMARK VINA RESULT:      -6.7      4.460      7.211
REMARK  3 active torsions:
REMARK  status: ('A' for Active; 'I' for Inactive)
REMARK    1  A    between atoms: C7_8  and  P1_9 
REMARK    2  A    between atoms: P1_9  and  C8_10 
REMARK    3  A    between atoms: C8_10  and  C9_12 
ROOT
HETATM    1  C9  UNL     1      28.754  10.777  48.894  1.00  0.00     0.207 C 
HETATM    2  C10 UNL     1      29.598  10.531  47.751  1.00  0.00     0.067 C 
HETATM    3  N1  UNL     1      30.268  10.333  46.810  1.00  0.00    -0.197 NA
ENDROOT
BRANCH   1   4
HETATM    4  C8  UNL     1      27.946   9.564  49.293  1.00  0.00     0.166 C 
HETATM    5  O1  UNL     1      27.568   9.517  50.450  1.00  0.00    -0.292 OA
BRANCH   4   6
HETATM    6  P1  UNL     1      27.594   8.289  48.051  1.00  0.00    -0.022 P 
HETATM    7  H8  UNL     1      28.705   7.866  47.266  1.00  0.00     0.070 HD
BRANCH   6   8
HETATM    8  C7  UNL     1      26.476   6.962  48.625  1.00  0.00    -0.013 C 
HETATM    9  C6  UNL     1      27.268   5.912  48.636  1.00  0.00     0.019 C 
HETATM   10  C5  UNL     1      27.310   4.488  48.914  1.00  0.00     0.016 C 
HETATM   11 BR1  UNL     1      29.154   5.996  48.161  1.00  0.00    -0.050 Br
HETATM   12  C4  UNL     1      26.425   3.512  49.307  1.00  0.00    -0.022 C 
HETATM   13  C3  UNL     1      25.037   3.820  49.549  1.00  0.00     0.066 C 
HETATM   14  C2  UNL     1      24.155   3.637  50.638  1.00  0.00     0.076 C 
HETATM   15  C1  UNL     1      23.522   2.214  50.393  1.00  0.00     0.047 C 
HETATM   16  O2  UNL     1      24.521   3.601  51.954  1.00  0.00    -0.375 OA
HETATM   17  C17 UNL     1      23.080   4.677  50.471  1.00  0.00     0.141 C 
HETATM   18  C16 UNL     1      23.425   3.116  52.713  1.00  0.00     0.198 C 
HETATM   19  C15 UNL     1      22.215   3.866  52.302  1.00  0.00     0.027 C 
HETATM   20  C14 UNL     1      21.900   4.610  51.264  1.00  0.00     0.048 C 
HETATM   21  N4  UNL     1      20.761   5.355  50.821  1.00  0.00    -0.246 NA
HETATM   22  C13 UNL     1      20.994   6.435  50.068  1.00  0.00     0.235 C 
HETATM   23  N3  UNL     1      22.353   6.737  49.718  1.00  0.00    -0.228 NA
HETATM   24  C12 UNL     1      23.360   6.006  50.018  1.00  0.00     0.114 C 
HETATM   25  N2  UNL     1      24.283   6.858  49.491  1.00  0.00    -0.373 N 
HETATM   26  C11 UNL     1      25.207   7.688  48.879  1.00  0.00     0.162 C 
HETATM   27  H13 UNL     1      24.517   7.182  50.478  1.00  0.00     0.161 HD
ENDBRANCH   6   8
ENDBRANCH   4   6
ENDBRANCH   1   4
TORSDOF 3
ENDMDL
