MODEL 1
REMARK VINA RESULT:      -7.8      0.000      0.000
REMARK  5 active torsions:
REMARK  status: ('A' for Active; 'I' for Inactive)
REMARK    1  A    between atoms: C3_3  and  C4_4 
REMARK    2  A    between atoms: C5_5  and  O1_6 
REMARK    3  A    between atoms: C9_13  and  C10_14 
REMARK    4  A    between atoms: C10_14  and  N3_15 
REMARK    5  A    between atoms: N3_15  and  C11_16 
ROOT
HETATM    1  C1  UNL     1      25.070   1.949  51.446  1.00  0.00     0.051 C 
HETATM    2  C2  UNL     1      23.810   1.260  51.819  1.00  0.00    -0.024 A 
HETATM    3  C3  UNL     1      22.682   1.440  51.050  1.00  0.00     0.065 A 
HETATM    4  N1  UNL     1      21.493   0.864  51.298  1.00  0.00    -0.259 NA
HETATM    5  C6  UNL     1      21.315   0.038  52.357  1.00  0.00     0.140 A 
HETATM    6  C7  UNL     1      22.432  -0.164  53.151  1.00  0.00     0.070 A 
HETATM    7  C8  UNL     1      22.323  -1.033  54.302  1.00  0.00     0.101 C 
HETATM    8  N2  UNL     1      22.254  -1.747  55.235  1.00  0.00    -0.191 NA
HETATM    9  C9  UNL     1      23.670   0.428  52.903  1.00  0.00    -0.010 A 
ENDROOT
BRANCH   9  10
HETATM   10  C10 UNL     1      24.820   0.175  53.786  1.00  0.00     0.160 C 
BRANCH  10  11
HETATM   11  N3  UNL     1      25.676  -0.902  53.274  1.00  0.00    -0.386 N 
HETATM   12  H9  UNL     1      25.270  -1.758  52.833  1.00  0.00     0.160 HD
BRANCH  11  13
HETATM   13  C11 UNL     1      27.084  -0.726  53.407  1.00  0.00     0.029 A 
HETATM   14  C12 UNL     1      27.903  -1.797  53.082  1.00  0.00     0.029 A 
HETATM   15  C13 UNL     1      29.288  -1.645  53.205  1.00  0.00     0.004 A 
HETATM   16  C14 UNL     1      29.759  -0.423  53.646  1.00  0.00     0.024 A 
HETATM   17  C15 UNL     1      28.920   0.634  53.965  1.00  0.00     0.036 A 
HETATM   18 CL1  UNL     1      29.551   2.172  54.523  1.00  0.00    -0.084 Cl
HETATM   19  C16 UNL     1      27.553   0.490  53.845  1.00  0.00     0.052 A 
ENDBRANCH  11  13
ENDBRANCH  10  11
ENDBRANCH   9  10
BRANCH   3  20
HETATM   20  C4  UNL     1      22.783   2.312  49.891  1.00  0.00     0.059 C 
HETATM   21  C5  UNL     1      22.349   1.961  48.698  1.00  0.00     0.184 C 
BRANCH  21  22
HETATM   22  O1  UNL     1      22.334   2.603  47.471  1.00  0.00    -0.168 OA
HETATM   23  F1  UNL     1      22.563   3.934  47.443  1.00  0.00    -0.043 F 
ENDBRANCH  21  22
ENDBRANCH   3  20
TORSDOF 5
ENDMDL
MODEL 2
REMARK VINA RESULT:      -7.7      2.254      2.747
REMARK  5 active torsions:
REMARK  status: ('A' for Active; 'I' for Inactive)
REMARK    1  A    between atoms: C3_3  and  C4_4 
REMARK    2  A    between atoms: C5_5  and  O1_6 
REMARK    3  A    between atoms: C9_13  and  C10_14 
REMARK    4  A    between atoms: C10_14  and  N3_15 
REMARK    5  A    between atoms: N3_15  and  C11_16 
ROOT
HETATM    1  C1  UNL     1      22.805   1.410  51.109  1.00  0.00     0.051 C 
HETATM    2  C2  UNL     1      22.616   0.515  52.276  1.00  0.00    -0.024 A 
HETATM    3  C3  UNL     1      21.388  -0.067  52.498  1.00  0.00     0.065 A 
HETATM    4  N1  UNL     1      21.111  -0.892  53.522  1.00  0.00    -0.259 NA
HETATM    5  C6  UNL     1      22.052  -1.221  54.439  1.00  0.00     0.140 A 
HETATM    6  C7  UNL     1      23.300  -0.652  54.244  1.00  0.00     0.070 A 
HETATM    7  C8  UNL     1      24.360  -0.954  55.182  1.00  0.00     0.101 C 
HETATM    8  N2  UNL     1      25.235  -1.200  55.928  1.00  0.00    -0.191 NA
HETATM    9  C9  UNL     1      23.598   0.205  53.185  1.00  0.00    -0.010 A 
ENDROOT
BRANCH   9  10
HETATM   10  C10 UNL     1      24.945   0.780  53.034  1.00  0.00     0.160 C 
BRANCH  10  11
HETATM   11  N3  UNL     1      25.863  -0.148  52.362  1.00  0.00    -0.386 N 
HETATM   12  H9  UNL     1      25.557  -0.723  51.546  1.00  0.00     0.160 HD
BRANCH  11  13
HETATM   13  C11 UNL     1      27.190  -0.227  52.875  1.00  0.00     0.029 A 
HETATM   14  C12 UNL     1      27.837  -1.452  52.812  1.00  0.00     0.029 A 
HETATM   15  C13 UNL     1      29.140  -1.551  53.310  1.00  0.00     0.004 A 
HETATM   16  C14 UNL     1      29.709  -0.409  53.839  1.00  0.00     0.024 A 
HETATM   17  C15 UNL     1      29.043   0.806  53.892  1.00  0.00     0.036 A 
HETATM   18 CL1  UNL     1      29.794   2.238  54.572  1.00  0.00    -0.084 Cl
HETATM   19  C16 UNL     1      27.757   0.910  53.402  1.00  0.00     0.052 A 
ENDBRANCH  11  13
ENDBRANCH  10  11
ENDBRANCH   9  10
BRANCH   3  20
HETATM   20  C4  UNL     1      20.317   0.232  51.560  1.00  0.00     0.059 C 
HETATM   21  C5  UNL     1      19.049   0.011  51.837  1.00  0.00     0.184 C 
BRANCH  21  22
HETATM   22  O1  UNL     1      17.877   0.208  51.126  1.00  0.00    -0.168 OA
HETATM   23  F1  UNL     1      17.948   0.255  49.778  1.00  0.00    -0.043 F 
ENDBRANCH  21  22
ENDBRANCH   3  20
TORSDOF 5
ENDMDL
MODEL 3
REMARK VINA RESULT:      -7.6      4.226      6.386
REMARK  5 active torsions:
REMARK  status: ('A' for Active; 'I' for Inactive)
REMARK    1  A    between atoms: C3_3  and  C4_4 
REMARK    2  A    between atoms: C5_5  and  O1_6 
REMARK    3  A    between atoms: C9_13  and  C10_14 
REMARK    4  A    between atoms: C10_14  and  N3_15 
REMARK    5  A    between atoms: N3_15  and  C11_16 
ROOT
HETATM    1  C1  UNL     1      22.738   1.703  52.151  1.00  0.00     0.051 C 
HETATM    2  C2  UNL     1      24.019   1.192  52.701  1.00  0.00    -0.024 A 
HETATM    3  C3  UNL     1      24.039  -0.004  53.381  1.00  0.00     0.065 A 
HETATM    4  N1  UNL     1      25.142  -0.556  53.916  1.00  0.00    -0.259 NA
HETATM    5  C6  UNL     1      26.351   0.047  53.820  1.00  0.00     0.140 A 
HETATM    6  C7  UNL     1      26.365   1.253  53.140  1.00  0.00     0.070 A 
HETATM    7  C8  UNL     1      27.619   1.960  52.996  1.00  0.00     0.101 C 
HETATM    8  N2  UNL     1      28.633   2.540  52.858  1.00  0.00    -0.191 NA
HETATM    9  C9  UNL     1      25.226   1.834  52.581  1.00  0.00    -0.010 A 
ENDROOT
BRANCH   9  10
HETATM   10  C10 UNL     1      25.306   3.122  51.872  1.00  0.00     0.160 C 
BRANCH  10  11
HETATM   11  N3  UNL     1      25.620   2.943  50.449  1.00  0.00    -0.386 N 
HETATM   12  H9  UNL     1      25.619   1.998  50.004  1.00  0.00     0.160 HD
BRANCH  11  13
HETATM   13  C11 UNL     1      25.925   4.119  49.703  1.00  0.00     0.029 A 
HETATM   14  C12 UNL     1      24.892   5.007  49.444  1.00  0.00     0.029 A 
HETATM   15  C13 UNL     1      25.170   6.167  48.714  1.00  0.00     0.004 A 
HETATM   16  C14 UNL     1      26.472   6.359  48.292  1.00  0.00     0.024 A 
HETATM   17  C15 UNL     1      27.489   5.456  48.564  1.00  0.00     0.036 A 
HETATM   18 CL1  UNL     1      29.131   5.730  48.012  1.00  0.00    -0.084 Cl
HETATM   19  C16 UNL     1      27.221   4.310  49.283  1.00  0.00     0.052 A 
ENDBRANCH  11  13
ENDBRANCH  10  11
ENDBRANCH   9  10
BRANCH   3  20
HETATM   20  C4  UNL     1      22.782  -0.721  53.531  1.00  0.00     0.059 C 
HETATM   21  C5  UNL     1      22.399  -1.249  54.676  1.00  0.00     0.184 C 
BRANCH  21  22
HETATM   22  O1  UNL     1      21.274  -1.960  55.059  1.00  0.00    -0.168 OA
HETATM   23  F1  UNL     1      20.221  -1.995  54.214  1.00  0.00    -0.043 F 
ENDBRANCH  21  22
ENDBRANCH   3  20
TORSDOF 5
ENDMDL
MODEL 4
REMARK VINA RESULT:      -7.6      4.355      6.356
REMARK  5 active torsions:
REMARK  status: ('A' for Active; 'I' for Inactive)
REMARK    1  A    between atoms: C3_3  and  C4_4 
REMARK    2  A    between atoms: C5_5  and  O1_6 
REMARK    3  A    between atoms: C9_13  and  C10_14 
REMARK    4  A    between atoms: C10_14  and  N3_15 
REMARK    5  A    between atoms: N3_15  and  C11_16 
ROOT
HETATM    1  C1  UNL     1      27.119   1.773  52.155  1.00  0.00     0.051 C 
HETATM    2  C2  UNL     1      25.759   1.248  52.429  1.00  0.00    -0.024 A 
HETATM    3  C3  UNL     1      25.610  -0.006  52.977  1.00  0.00     0.065 A 
HETATM    4  N1  UNL     1      24.427  -0.575  53.266  1.00  0.00    -0.259 NA
HETATM    5  C6  UNL     1      23.258   0.068  53.030  1.00  0.00     0.140 A 
HETATM    6  C7  UNL     1      23.373   1.333  52.479  1.00  0.00     0.070 A 
HETATM    7  C8  UNL     1      22.169   2.084  52.196  1.00  0.00     0.101 C 
HETATM    8  N2  UNL     1      21.200   2.713  51.972  1.00  0.00    -0.191 NA
HETATM    9  C9  UNL     1      24.596   1.932  52.175  1.00  0.00    -0.010 A 
ENDROOT
BRANCH   9  10
HETATM   10  C10 UNL     1      24.651   3.281  51.588  1.00  0.00     0.160 C 
BRANCH  10  11
HETATM   11  N3  UNL     1      24.796   3.236  50.128  1.00  0.00    -0.386 N 
HETATM   12  H9  UNL     1      24.445   2.425  49.569  1.00  0.00     0.160 HD
BRANCH  11  13
HETATM   13  C11 UNL     1      25.437   4.348  49.508  1.00  0.00     0.029 A 
HETATM   14  C12 UNL     1      24.664   5.464  49.224  1.00  0.00     0.029 A 
HETATM   15  C13 UNL     1      25.273   6.567  48.617  1.00  0.00     0.004 A 
HETATM   16  C14 UNL     1      26.622   6.475  48.334  1.00  0.00     0.024 A 
HETATM   17  C15 UNL     1      27.375   5.348  48.627  1.00  0.00     0.036 A 
HETATM   18 CL1  UNL     1      29.087   5.264  48.255  1.00  0.00    -0.084 Cl
HETATM   19  C16 UNL     1      26.780   4.257  49.227  1.00  0.00     0.052 A 
ENDBRANCH  11  13
ENDBRANCH  10  11
ENDBRANCH   9  10
BRANCH   3  20
HETATM   20  C4  UNL     1      26.815  -0.768  53.264  1.00  0.00     0.059 C 
HETATM   21  C5  UNL     1      27.020  -1.979  52.787  1.00  0.00     0.184 C 
BRANCH  21  22
HETATM   22  O1  UNL     1      28.062  -2.882  52.915  1.00  0.00    -0.168 OA
HETATM   23  F1  UNL     1      29.312  -2.397  53.078  1.00  0.00    -0.043 F 
ENDBRANCH  21  22
ENDBRANCH   3  20
TORSDOF 5
ENDMDL
MODEL 5
REMARK VINA RESULT:      -7.6      2.093      2.459
REMARK  5 active torsions:
REMARK  status: ('A' for Active; 'I' for Inactive)
REMARK    1  A    between atoms: C3_3  and  C4_4 
REMARK    2  A    between atoms: C5_5  and  O1_6 
REMARK    3  A    between atoms: C9_13  and  C10_14 
REMARK    4  A    between atoms: C10_14  and  N3_15 
REMARK    5  A    between atoms: N3_15  and  C11_16 
ROOT
HETATM    1  C1  UNL     1      24.143   2.006  51.228  1.00  0.00     0.051 C 
HETATM    2  C2  UNL     1      23.032   1.528  52.088  1.00  0.00    -0.024 A 
HETATM    3  C3  UNL     1      21.805   2.148  52.023  1.00  0.00     0.065 A 
HETATM    4  N1  UNL     1      20.735   1.795  52.755  1.00  0.00    -0.259 NA
HETATM    5  C6  UNL     1      20.790   0.769  53.638  1.00  0.00     0.140 A 
HETATM    6  C7  UNL     1      22.012   0.123  53.727  1.00  0.00     0.070 A 
HETATM    7  C8  UNL     1      22.152  -0.984  54.648  1.00  0.00     0.101 C 
HETATM    8  N2  UNL     1      22.279  -1.894  55.383  1.00  0.00    -0.191 NA
HETATM    9  C9  UNL     1      23.129   0.481  52.971  1.00  0.00    -0.010 A 
ENDROOT
BRANCH   9  10
HETATM   10  C10 UNL     1      24.402  -0.244  53.113  1.00  0.00     0.160 C 
BRANCH  10  11
HETATM   11  N3  UNL     1      25.189   0.250  54.250  1.00  0.00    -0.386 N 
HETATM   12  H9  UNL     1      24.777   0.325  55.207  1.00  0.00     0.160 HD
BRANCH  11  13
HETATM   13  C11 UNL     1      26.540   0.620  53.986  1.00  0.00     0.029 A 
HETATM   14  C12 UNL     1      26.806   1.957  53.732  1.00  0.00     0.029 A 
HETATM   15  C13 UNL     1      28.125   2.342  53.472  1.00  0.00     0.004 A 
HETATM   16  C14 UNL     1      29.092   1.356  53.485  1.00  0.00     0.024 A 
HETATM   17  C15 UNL     1      28.802   0.024  53.742  1.00  0.00     0.036 A 
HETATM   18 CL1  UNL     1      30.054  -1.204  53.750  1.00  0.00    -0.084 Cl
HETATM   19  C16 UNL     1      27.503  -0.361  54.000  1.00  0.00     0.052 A 
ENDBRANCH  11  13
ENDBRANCH  10  11
ENDBRANCH   9  10
BRANCH   3  20
HETATM   20  C4  UNL     1      21.656   3.262  51.100  1.00  0.00     0.059 C 
HETATM   21  C5  UNL     1      21.307   4.469  51.494  1.00  0.00     0.184 C 
BRANCH  21  22
HETATM   22  O1  UNL     1      21.105   5.663  50.821  1.00  0.00    -0.168 OA
HETATM   23  F1  UNL     1      21.493   6.809  51.421  1.00  0.00    -0.043 F 
ENDBRANCH  21  22
ENDBRANCH   3  20
TORSDOF 5
ENDMDL
MODEL 6
REMARK VINA RESULT:      -7.6      4.002      6.275
REMARK  5 active torsions:
REMARK  status: ('A' for Active; 'I' for Inactive)
REMARK    1  A    between atoms: C3_3  and  C4_4 
REMARK    2  A    between atoms: C5_5  and  O1_6 
REMARK    3  A    between atoms: C9_13  and  C10_14 
REMARK    4  A    between atoms: C10_14  and  N3_15 
REMARK    5  A    between atoms: N3_15  and  C11_16 
ROOT
HETATM    1  C1  UNL     1      25.978   1.025  52.116  1.00  0.00     0.051 C 
HETATM    2  C2  UNL     1      25.450   0.285  53.289  1.00  0.00    -0.024 A 
HETATM    3  C3  UNL     1      26.303  -0.077  54.307  1.00  0.00     0.065 A 
HETATM    4  N1  UNL     1      25.929  -0.747  55.411  1.00  0.00    -0.259 NA
HETATM    5  C6  UNL     1      24.643  -1.125  55.606  1.00  0.00     0.140 A 
HETATM    6  C7  UNL     1      23.759  -0.775  54.599  1.00  0.00     0.070 A 
HETATM    7  C8  UNL     1      22.366  -1.144  54.733  1.00  0.00     0.101 C 
HETATM    8  N2  UNL     1      21.228  -1.426  54.833  1.00  0.00    -0.191 NA
HETATM    9  C9  UNL     1      24.136  -0.081  53.450  1.00  0.00    -0.010 A 
ENDROOT
BRANCH   9  10
HETATM   10  C10 UNL     1      23.148   0.260  52.414  1.00  0.00     0.160 C 
BRANCH  10  11
HETATM   11  N3  UNL     1      22.624   1.621  52.584  1.00  0.00    -0.386 N 
HETATM   12  H9  UNL     1      22.035   1.880  53.408  1.00  0.00     0.160 HD
BRANCH  11  13
HETATM   13  C11 UNL     1      22.957   2.572  51.576  1.00  0.00     0.029 A 
HETATM   14  C12 UNL     1      22.926   2.151  50.255  1.00  0.00     0.029 A 
HETATM   15  C13 UNL     1      23.249   3.068  49.249  1.00  0.00     0.004 A 
HETATM   16  C14 UNL     1      23.581   4.351  49.639  1.00  0.00     0.024 A 
HETATM   17  C15 UNL     1      23.605   4.749  50.967  1.00  0.00     0.036 A 
HETATM   18 CL1  UNL     1      24.032   6.387  51.428  1.00  0.00    -0.084 Cl
HETATM   19  C16 UNL     1      23.287   3.849  51.963  1.00  0.00     0.052 A 
ENDBRANCH  11  13
ENDBRANCH  10  11
ENDBRANCH   9  10
BRANCH   3  20
HETATM   20  C4  UNL     1      27.705   0.290  54.180  1.00  0.00     0.059 C 
HETATM   21  C5  UNL     1      28.636  -0.575  53.834  1.00  0.00     0.184 C 
BRANCH  21  22
HETATM   22  O1  UNL     1      30.005  -0.467  53.650  1.00  0.00    -0.168 OA
HETATM   23  F1  UNL     1      30.792  -1.461  54.116  1.00  0.00    -0.043 F 
ENDBRANCH  21  22
ENDBRANCH   3  20
TORSDOF 5
ENDMDL
MODEL 7
REMARK VINA RESULT:      -7.5      4.616      7.362
REMARK  5 active torsions:
REMARK  status: ('A' for Active; 'I' for Inactive)
REMARK    1  A    between atoms: C3_3  and  C4_4 
REMARK    2  A    between atoms: C5_5  and  O1_6 
REMARK    3  A    between atoms: C9_13  and  C10_14 
REMARK    4  A    between atoms: C10_14  and  N3_15 
REMARK    5  A    between atoms: N3_15  and  C11_16 
ROOT
HETATM    1  C1  UNL     1      25.613   1.324  52.216  1.00  0.00     0.051 C 
HETATM    2  C2  UNL     1      25.157   0.441  53.318  1.00  0.00    -0.024 A 
HETATM    3  C3  UNL     1      26.053   0.035  54.281  1.00  0.00     0.065 A 
HETATM    4  N1  UNL     1      25.746  -0.761  55.319  1.00  0.00    -0.259 NA
HETATM    5  C6  UNL     1      24.490  -1.236  55.498  1.00  0.00     0.140 A 
HETATM    6  C7  UNL     1      23.563  -0.844  54.546  1.00  0.00     0.070 A 
HETATM    7  C8  UNL     1      22.198  -1.310  54.665  1.00  0.00     0.101 C 
HETATM    8  N2  UNL     1      21.082  -1.669  54.756  1.00  0.00    -0.191 NA
HETATM    9  C9  UNL     1      23.872  -0.019  53.464  1.00  0.00    -0.010 A 
ENDROOT
BRANCH   9  10
HETATM   10  C10 UNL     1      22.841   0.360  52.484  1.00  0.00     0.160 C 
BRANCH  10  11
HETATM   11  N3  UNL     1      22.203   1.637  52.827  1.00  0.00    -0.386 N 
HETATM   12  H9  UNL     1      22.703   2.364  53.386  1.00  0.00     0.160 HD
BRANCH  11  13
HETATM   13  C11 UNL     1      20.870   1.837  52.363  1.00  0.00     0.029 A 
HETATM   14  C12 UNL     1      20.441   3.142  52.173  1.00  0.00     0.029 A 
HETATM   15  C13 UNL     1      19.136   3.361  51.718  1.00  0.00     0.004 A 
HETATM   16  C14 UNL     1      18.348   2.251  51.482  1.00  0.00     0.024 A 
HETATM   17  C15 UNL     1      18.800   0.955  51.679  1.00  0.00     0.036 A 
HETATM   18 CL1  UNL     1      17.773  -0.433  51.370  1.00  0.00    -0.084 Cl
HETATM   19  C16 UNL     1      20.085   0.733  52.128  1.00  0.00     0.052 A 
ENDBRANCH  11  13
ENDBRANCH  10  11
ENDBRANCH   9  10
BRANCH   3  20
HETATM   20  C4  UNL     1      27.428   0.498  54.167  1.00  0.00     0.059 C 
HETATM   21  C5  UNL     1      28.447  -0.327  54.040  1.00  0.00     0.184 C 
BRANCH  21  22
HETATM   22  O1  UNL     1      29.812  -0.131  53.916  1.00  0.00    -0.168 OA
HETATM   23  F1  UNL     1      30.615  -1.217  53.903  1.00  0.00    -0.043 F 
ENDBRANCH  21  22
ENDBRANCH   3  20
TORSDOF 5
ENDMDL
MODEL 8
REMARK VINA RESULT:      -7.4      3.535      4.966
REMARK  5 active torsions:
REMARK  status: ('A' for Active; 'I' for Inactive)
REMARK    1  A    between atoms: C3_3  and  C4_4 
REMARK    2  A    between atoms: C5_5  and  O1_6 
REMARK    3  A    between atoms: C9_13  and  C10_14 
REMARK    4  A    between atoms: C10_14  and  N3_15 
REMARK    5  A    between atoms: N3_15  and  C11_16 
ROOT
HETATM    1  C1  UNL     1      23.830   1.720  51.392  1.00  0.00     0.051 C 
HETATM    2  C2  UNL     1      24.043   2.941  50.577  1.00  0.00    -0.024 A 
HETATM    3  C3  UNL     1      22.964   3.713  50.210  1.00  0.00     0.065 A 
HETATM    4  N1  UNL     1      23.047   4.835  49.475  1.00  0.00    -0.259 NA
HETATM    5  C6  UNL     1      24.238   5.303  49.030  1.00  0.00     0.140 A 
HETATM    6  C7  UNL     1      25.345   4.549  49.384  1.00  0.00     0.070 A 
HETATM    7  C8  UNL     1      26.654   4.982  48.946  1.00  0.00     0.101 C 
HETATM    8  N2  UNL     1      27.726   5.327  48.608  1.00  0.00    -0.191 NA
HETATM    9  C9  UNL     1      25.270   3.382  50.145  1.00  0.00    -0.010 A 
ENDROOT
BRANCH   9  10
HETATM   10  C10 UNL     1      26.484   2.624  50.486  1.00  0.00     0.160 C 
BRANCH  10  11
HETATM   11  N3  UNL     1      26.949   2.918  51.847  1.00  0.00    -0.386 N 
HETATM   12  H9  UNL     1      26.865   3.876  52.257  1.00  0.00     0.160 HD
BRANCH  11  13
HETATM   13  C11 UNL     1      27.520   1.839  52.582  1.00  0.00     0.029 A 
HETATM   14  C12 UNL     1      28.469   2.143  53.546  1.00  0.00     0.029 A 
HETATM   15  C13 UNL     1      29.041   1.098  54.280  1.00  0.00     0.004 A 
HETATM   16  C14 UNL     1      28.621  -0.187  53.994  1.00  0.00     0.024 A 
HETATM   17  C15 UNL     1      27.670  -0.466  53.025  1.00  0.00     0.036 A 
HETATM   18 CL1  UNL     1      27.158  -2.110  52.687  1.00  0.00    -0.084 Cl
HETATM   19  C16 UNL     1      27.101   0.560  52.299  1.00  0.00     0.052 A 
ENDBRANCH  11  13
ENDBRANCH  10  11
ENDBRANCH   9  10
BRANCH   3  20
HETATM   20  C4  UNL     1      21.644   3.284  50.646  1.00  0.00     0.059 C 
HETATM   21  C5  UNL     1      20.992   3.878  51.623  1.00  0.00     0.184 C 
BRANCH  21  22
HETATM   22  O1  UNL     1      19.753   3.659  52.204  1.00  0.00    -0.168 OA
HETATM   23  F1  UNL     1      19.405   2.390  52.507  1.00  0.00    -0.043 F 
ENDBRANCH  21  22
ENDBRANCH   3  20
TORSDOF 5
ENDMDL
MODEL 9
REMARK VINA RESULT:      -7.3      4.697      7.566
REMARK  5 active torsions:
REMARK  status: ('A' for Active; 'I' for Inactive)
REMARK    1  A    between atoms: C3_3  and  C4_4 
REMARK    2  A    between atoms: C5_5  and  O1_6 
REMARK    3  A    between atoms: C9_13  and  C10_14 
REMARK    4  A    between atoms: C10_14  and  N3_15 
REMARK    5  A    between atoms: N3_15  and  C11_16 
ROOT
HETATM    1  C1  UNL     1      24.266  -0.509  53.457  1.00  0.00     0.051 C 
HETATM    2  C2  UNL     1      24.915   0.585  52.692  1.00  0.00    -0.024 A 
HETATM    3  C3  UNL     1      26.264   0.522  52.425  1.00  0.00     0.065 A 
HETATM    4  N1  UNL     1      26.949   1.455  51.742  1.00  0.00    -0.259 NA
HETATM    5  C6  UNL     1      26.339   2.561  51.251  1.00  0.00     0.140 A 
HETATM    6  C7  UNL     1      24.980   2.654  51.502  1.00  0.00     0.070 A 
HETATM    7  C8  UNL     1      24.256   3.807  51.012  1.00  0.00     0.101 C 
HETATM    8  N2  UNL     1      23.651   4.731  50.608  1.00  0.00    -0.191 NA
HETATM    9  C9  UNL     1      24.260   1.692  52.210  1.00  0.00    -0.010 A 
ENDROOT
BRANCH   9  10
HETATM   10  C10 UNL     1      22.816   1.850  52.446  1.00  0.00     0.160 C 
BRANCH  10  11
HETATM   11  N3  UNL     1      22.017   1.237  51.378  1.00  0.00    -0.386 N 
HETATM   12  H9  UNL     1      22.330   1.259  50.381  1.00  0.00     0.160 HD
BRANCH  11  13
HETATM   13  C11 UNL     1      20.796   0.612  51.764  1.00  0.00     0.029 A 
HETATM   14  C12 UNL     1      20.730   0.045  53.028  1.00  0.00     0.029 A 
HETATM   15  C13 UNL     1      19.540  -0.573  53.426  1.00  0.00     0.004 A 
HETATM   16  C14 UNL     1      18.492  -0.581  52.525  1.00  0.00     0.024 A 
HETATM   17  C15 UNL     1      18.582  -0.008  51.266  1.00  0.00     0.036 A 
HETATM   18 CL1  UNL     1      17.232  -0.035  50.146  1.00  0.00    -0.084 Cl
HETATM   19  C16 UNL     1      19.752   0.604  50.868  1.00  0.00     0.052 A 
ENDBRANCH  11  13
ENDBRANCH  10  11
ENDBRANCH   9  10
BRANCH   3  20
HETATM   20  C4  UNL     1      26.999  -0.633  52.916  1.00  0.00     0.059 C 
HETATM   21  C5  UNL     1      28.251  -0.559  53.318  1.00  0.00     0.184 C 
BRANCH  21  22
HETATM   22  O1  UNL     1      29.142  -1.497  53.816  1.00  0.00    -0.168 OA
HETATM   23  F1  UNL     1      30.452  -1.172  53.860  1.00  0.00    -0.043 F 
ENDBRANCH  21  22
ENDBRANCH   3  20
TORSDOF 5
ENDMDL
