MODEL 1
REMARK VINA RESULT:      -9.6      0.000      0.000
REMARK  6 active torsions:
REMARK  status: ('A' for Active; 'I' for Inactive)
REMARK    1  A    between atoms: N1_2  and  C2_3 
REMARK    2  A    between atoms: C5_7  and  C6_8 
REMARK    3  A    between atoms: N4_11  and  C8_12 
REMARK    4  A    between atoms: C8_12  and  C9_13 
REMARK    5  A    between atoms: C9_13  and  N5_14 
REMARK    6  A    between atoms: C22_29  and  C23_30 
ROOT
HETATM    1  C6  UNL     1      24.847   1.044  52.959  1.00  0.00     0.013 C 
HETATM    2  C7  UNL     1      24.299   1.935  52.169  1.00  0.00     0.115 C 
HETATM    3  N3  UNL     1      23.577   2.831  51.362  1.00  0.00    -0.329 N 
HETATM    4  N4  UNL     1      23.266   2.741  49.975  1.00  0.00    -0.226 NA
HETATM    5  C14 UNL     1      21.946   3.318  49.700  1.00  0.00     0.147 C 
HETATM    6  C15 UNL     1      21.035   2.645  50.682  1.00  0.00    -0.062 A 
HETATM    7  C16 UNL     1      20.868   1.358  50.280  1.00  0.00     0.040 A 
HETATM    8  C17 UNL     1      20.313   0.292  50.919  1.00  0.00     0.020 A 
HETATM    9  C18 UNL     1      20.233   1.348  51.754  1.00  0.00     0.060 A 
HETATM   10  C19 UNL     1      20.191   2.472  52.542  1.00  0.00     0.111 A 
HETATM   11  C20 UNL     1      20.773   3.447  51.765  1.00  0.00    -0.007 A 
HETATM   12  C21 UNL     1      20.394   0.885  53.189  1.00  0.00     0.167 A 
HETATM   13  O1  UNL     1      20.454   0.524  54.410  1.00  0.00    -0.281 OA
HETATM   14  N6  UNL     1      21.754   0.297  53.272  1.00  0.00    -0.331 N 
HETATM   15  C22 UNL     1      22.929  -0.328  53.891  1.00  0.00     0.073 C 
HETATM   16  C24 UNL     1      24.202   0.014  53.740  1.00  0.00     0.048 C 
HETATM   17  H8  UNL     1      23.188   3.713  51.815  1.00  0.00     0.180 HD
HETATM   18  H27 UNL     1      22.302   0.211  52.371  1.00  0.00     0.168 HD
ENDROOT
BRANCH   1  19
HETATM   19  C5  UNL     1      26.333   1.055  53.051  1.00  0.00     0.088 A 
HETATM   20  C4  UNL     1      27.200   2.088  52.881  1.00  0.00     0.148 A 
HETATM   21  N2  UNL     1      28.534   2.011  52.979  1.00  0.00    -0.267 NA
HETATM   22  C3  UNL     1      29.098   0.822  53.270  1.00  0.00     0.166 A 
HETATM   23  C2  UNL     1      28.257  -0.252  53.451  1.00  0.00     0.141 A 
HETATM   24  N7  UNL     1      26.926  -0.144  53.346  1.00  0.00    -0.228 NA
BRANCH  23  25
HETATM   25  N1  UNL     1      28.803  -1.527  53.759  1.00  0.00    -0.378 N 
HETATM   26  C1  UNL     1      28.450  -2.680  52.953  1.00  0.00     0.147 C 
HETATM   27  H4  UNL     1      29.461  -1.681  54.552  1.00  0.00     0.160 HD
ENDBRANCH  23  25
ENDBRANCH   1  19
BRANCH  15  28
HETATM   28  C23 UNL     1      22.427  -1.393  54.698  1.00  0.00     0.288 C 
HETATM   29  O2  UNL     1      22.963  -1.644  55.826  1.00  0.00    -0.300 OA
ENDBRANCH  15  28
BRANCH   4  30
HETATM   30  C8  UNL     1      24.335   3.404  49.307  1.00  0.00     0.144 C 
BRANCH  30  31
HETATM   31  C9  UNL     1      24.426   4.878  49.462  1.00  0.00     0.288 C 
BRANCH  31  32
HETATM   32  N5  UNL     1      25.733   5.265  49.877  1.00  0.00     0.089 N 
HETATM   33  C10 UNL     1      26.770   4.302  49.654  1.00  0.00     0.272 C 
HETATM   34  C11 UNL     1      27.685   4.838  48.590  1.00  0.00     0.032 C 
HETATM   35  C12 UNL     1      27.362   6.294  48.466  1.00  0.00     0.032 C 
HETATM   36  C13 UNL     1      26.162   6.530  49.323  1.00  0.00     0.272 C 
ENDBRANCH  31  32
ENDBRANCH  30  31
ENDBRANCH   4  30
TORSDOF 6
ENDMDL
MODEL 2
REMARK VINA RESULT:      -8.4      2.274      6.152
REMARK  6 active torsions:
REMARK  status: ('A' for Active; 'I' for Inactive)
REMARK    1  A    between atoms: N1_2  and  C2_3 
REMARK    2  A    between atoms: C5_7  and  C6_8 
REMARK    3  A    between atoms: N4_11  and  C8_12 
REMARK    4  A    between atoms: C8_12  and  C9_13 
REMARK    5  A    between atoms: C9_13  and  N5_14 
REMARK    6  A    between atoms: C22_29  and  C23_30 
ROOT
HETATM    1  C6  UNL     1      22.059   1.253  52.359  1.00  0.00     0.013 C 
HETATM    2  C7  UNL     1      23.075   1.707  51.667  1.00  0.00     0.115 C 
HETATM    3  N3  UNL     1      24.254   2.106  51.015  1.00  0.00    -0.329 N 
HETATM    4  N4  UNL     1      25.051   3.267  51.231  1.00  0.00    -0.226 NA
HETATM    5  C14 UNL     1      26.471   2.968  51.020  1.00  0.00     0.147 C 
HETATM    6  C15 UNL     1      26.726   1.758  51.867  1.00  0.00    -0.062 A 
HETATM    7  C16 UNL     1      26.712   2.149  53.167  1.00  0.00     0.040 A 
HETATM    8  C17 UNL     1      26.687   1.420  54.316  1.00  0.00     0.020 A 
HETATM    9  C18 UNL     1      26.693   0.549  53.286  1.00  0.00     0.060 A 
HETATM   10  C19 UNL     1      26.700  -0.268  52.183  1.00  0.00     0.111 A 
HETATM   11  C20 UNL     1      26.732   0.606  51.120  1.00  0.00    -0.007 A 
HETATM   12  C21 UNL     1      25.872  -0.676  53.641  1.00  0.00     0.167 A 
HETATM   13  O1  UNL     1      25.250  -1.750  53.930  1.00  0.00    -0.281 OA
HETATM   14  N6  UNL     1      24.489  -0.184  53.859  1.00  0.00    -0.331 N 
HETATM   15  C22 UNL     1      23.050  -0.254  54.140  1.00  0.00     0.073 C 
HETATM   16  C24 UNL     1      22.067   0.356  53.491  1.00  0.00     0.048 C 
HETATM   17  H8  UNL     1      24.640   1.479  50.245  1.00  0.00     0.180 HD
HETATM   18  H27 UNL     1      24.336   0.862  53.835  1.00  0.00     0.168 HD
ENDROOT
BRANCH   1  19
HETATM   19  C5  UNL     1      20.709   1.745  51.967  1.00  0.00     0.088 A 
HETATM   20  C4  UNL     1      20.047   2.862  52.370  1.00  0.00     0.148 A 
HETATM   21  N2  UNL     1      18.824   3.233  51.966  1.00  0.00    -0.267 NA
HETATM   22  C3  UNL     1      18.165   2.454  51.086  1.00  0.00     0.166 A 
HETATM   23  C2  UNL     1      18.798   1.312  50.650  1.00  0.00     0.141 A 
HETATM   24  N7  UNL     1      20.022   0.968  51.072  1.00  0.00    -0.228 NA
BRANCH  23  25
HETATM   25  N1  UNL     1      18.145   0.458  49.722  1.00  0.00    -0.378 N 
HETATM   26  C1  UNL     1      16.979  -0.300  50.133  1.00  0.00     0.147 C 
HETATM   27  H4  UNL     1      18.467   0.345  48.738  1.00  0.00     0.160 HD
ENDBRANCH  23  25
ENDBRANCH   1  19
BRANCH  15  28
HETATM   28  C23 UNL     1      22.914  -1.118  55.269  1.00  0.00     0.288 C 
HETATM   29  O2  UNL     1      21.992  -1.998  55.288  1.00  0.00    -0.300 OA
ENDBRANCH  15  28
BRANCH   4  30
HETATM   30  C8  UNL     1      24.531   4.251  50.341  1.00  0.00     0.144 C 
BRANCH  30  31
HETATM   31  C9  UNL     1      24.989   5.651  50.531  1.00  0.00     0.288 C 
BRANCH  31  32
HETATM   32  N5  UNL     1      24.020   6.409  51.247  1.00  0.00     0.089 N 
HETATM   33  C10 UNL     1      23.878   7.778  50.847  1.00  0.00     0.272 C 
HETATM   34  C11 UNL     1      22.532   7.938  50.199  1.00  0.00     0.032 C 
HETATM   35  C12 UNL     1      21.751   6.715  50.566  1.00  0.00     0.032 C 
HETATM   36  C13 UNL     1      22.708   5.803  51.261  1.00  0.00     0.272 C 
ENDBRANCH  31  32
ENDBRANCH  30  31
ENDBRANCH   4  30
TORSDOF 6
ENDMDL
MODEL 3
REMARK VINA RESULT:      -8.4      2.025      5.952
REMARK  6 active torsions:
REMARK  status: ('A' for Active; 'I' for Inactive)
REMARK    1  A    between atoms: N1_2  and  C2_3 
REMARK    2  A    between atoms: C5_7  and  C6_8 
REMARK    3  A    between atoms: N4_11  and  C8_12 
REMARK    4  A    between atoms: C8_12  and  C9_13 
REMARK    5  A    between atoms: C9_13  and  N5_14 
REMARK    6  A    between atoms: C22_29  and  C23_30 
ROOT
HETATM    1  C6  UNL     1      22.421   4.224  51.368  1.00  0.00     0.013 C 
HETATM    2  C7  UNL     1      23.117   3.162  51.698  1.00  0.00     0.115 C 
HETATM    3  N3  UNL     1      23.728   1.953  52.070  1.00  0.00    -0.329 N 
HETATM    4  N4  UNL     1      24.198   1.540  53.349  1.00  0.00    -0.226 NA
HETATM    5  C14 UNL     1      24.002   0.098  53.534  1.00  0.00     0.147 C 
HETATM    6  C15 UNL     1      22.559  -0.126  53.196  1.00  0.00    -0.062 A 
HETATM    7  C16 UNL     1      21.809   0.390  54.204  1.00  0.00     0.040 A 
HETATM    8  C17 UNL     1      20.471   0.625  54.288  1.00  0.00     0.020 A 
HETATM    9  C18 UNL     1      20.712   0.099  53.070  1.00  0.00     0.060 A 
HETATM   10  C19 UNL     1      21.043  -0.441  51.851  1.00  0.00     0.111 A 
HETATM   11  C20 UNL     1      22.405  -0.622  51.925  1.00  0.00    -0.007 A 
HETATM   12  C21 UNL     1      19.767   0.703  52.050  1.00  0.00     0.167 A 
HETATM   13  O1  UNL     1      18.942   1.136  51.180  1.00  0.00    -0.281 OA
HETATM   14  N6  UNL     1      20.075   2.154  52.027  1.00  0.00    -0.331 N 
HETATM   15  C22 UNL     1      19.986   3.556  51.599  1.00  0.00     0.073 C 
HETATM   16  C24 UNL     1      20.987   4.385  51.330  1.00  0.00     0.048 C 
HETATM   17  H8  UNL     1      23.877   1.213  51.318  1.00  0.00     0.180 HD
HETATM   18  H27 UNL     1      20.771   2.515  52.737  1.00  0.00     0.168 HD
ENDROOT
BRANCH   1  19
HETATM   19  C5  UNL     1      23.194   5.448  51.019  1.00  0.00     0.088 A 
HETATM   20  C4  UNL     1      22.817   6.752  51.080  1.00  0.00     0.148 A 
HETATM   21  N2  UNL     1      23.580   7.801  50.741  1.00  0.00    -0.267 NA
HETATM   22  C3  UNL     1      24.832   7.579  50.297  1.00  0.00     0.166 A 
HETATM   23  C2  UNL     1      25.256   6.272  50.219  1.00  0.00     0.141 A 
HETATM   24  N7  UNL     1      24.470   5.244  50.565  1.00  0.00    -0.228 NA
BRANCH  23  25
HETATM   25  N1  UNL     1      26.568   5.986  49.756  1.00  0.00    -0.378 N 
HETATM   26  C1  UNL     1      26.831   4.753  49.040  1.00  0.00     0.147 C 
HETATM   27  H4  UNL     1      27.372   6.632  49.907  1.00  0.00     0.160 HD
ENDBRANCH  23  25
ENDBRANCH   1  19
BRANCH  15  28
HETATM   28  C23 UNL     1      18.593   3.858  51.530  1.00  0.00     0.288 C 
HETATM   29  O2  UNL     1      18.104   4.371  50.471  1.00  0.00    -0.300 OA
ENDBRANCH  15  28
BRANCH   4  30
HETATM   30  C8  UNL     1      25.563   1.946  53.398  1.00  0.00     0.144 C 
BRANCH  30  31
HETATM   31  C9  UNL     1      26.531   1.009  54.022  1.00  0.00     0.288 C 
BRANCH  31  32
HETATM   32  N5  UNL     1      27.554   0.648  53.100  1.00  0.00     0.089 N 
HETATM   33  C10 UNL     1      28.858   1.174  53.375  1.00  0.00     0.272 C 
HETATM   34  C11 UNL     1      29.750   0.031  53.770  1.00  0.00     0.032 C 
HETATM   35  C12 UNL     1      29.028  -1.213  53.359  1.00  0.00     0.032 C 
HETATM   36  C13 UNL     1      27.674  -0.779  52.902  1.00  0.00     0.272 C 
ENDBRANCH  31  32
ENDBRANCH  30  31
ENDBRANCH   4  30
TORSDOF 6
ENDMDL
MODEL 4
REMARK VINA RESULT:      -8.3      2.816      6.762
REMARK  6 active torsions:
REMARK  status: ('A' for Active; 'I' for Inactive)
REMARK    1  A    between atoms: N1_2  and  C2_3 
REMARK    2  A    between atoms: C5_7  and  C6_8 
REMARK    3  A    between atoms: N4_11  and  C8_12 
REMARK    4  A    between atoms: C8_12  and  C9_13 
REMARK    5  A    between atoms: C9_13  and  N5_14 
REMARK    6  A    between atoms: C22_29  and  C23_30 
ROOT
HETATM    1  C6  UNL     1      25.440   5.127  49.188  1.00  0.00     0.013 C 
HETATM    2  C7  UNL     1      25.318   3.943  49.737  1.00  0.00     0.115 C 
HETATM    3  N3  UNL     1      25.038   2.701  50.331  1.00  0.00    -0.329 N 
HETATM    4  N4  UNL     1      25.083   2.332  51.706  1.00  0.00    -0.226 NA
HETATM    5  C14 UNL     1      24.034   1.355  52.016  1.00  0.00     0.147 C 
HETATM    6  C15 UNL     1      22.778   1.977  51.484  1.00  0.00    -0.062 A 
HETATM    7  C16 UNL     1      22.448   3.011  52.299  1.00  0.00     0.040 A 
HETATM    8  C17 UNL     1      21.532   4.007  52.147  1.00  0.00     0.020 A 
HETATM    9  C18 UNL     1      21.468   3.230  51.047  1.00  0.00     0.060 A 
HETATM   10  C19 UNL     1      21.467   2.388  49.962  1.00  0.00     0.111 A 
HETATM   11  C20 UNL     1      22.425   1.448  50.267  1.00  0.00    -0.007 A 
HETATM   12  C21 UNL     1      21.151   4.080  49.831  1.00  0.00     0.167 A 
HETATM   13  O1  UNL     1      20.816   4.750  48.801  1.00  0.00    -0.281 OA
HETATM   14  N6  UNL     1      22.285   5.027  49.697  1.00  0.00    -0.331 N 
HETATM   15  C22 UNL     1      23.099   6.098  49.108  1.00  0.00     0.073 C 
HETATM   16  C24 UNL     1      24.411   6.101  48.909  1.00  0.00     0.048 C 
HETATM   17  H8  UNL     1      24.744   1.896  49.698  1.00  0.00     0.180 HD
HETATM   18  H27 UNL     1      23.015   5.024  50.462  1.00  0.00     0.168 HD
ENDROOT
BRANCH   1  19
HETATM   19  C5  UNL     1      26.819   5.561  48.830  1.00  0.00     0.088 A 
HETATM   20  C4  UNL     1      27.921   4.807  48.576  1.00  0.00     0.148 A 
HETATM   21  N2  UNL     1      29.134   5.280  48.261  1.00  0.00    -0.267 NA
HETATM   22  C3  UNL     1      29.313   6.613  48.182  1.00  0.00     0.166 A 
HETATM   23  C2  UNL     1      28.224   7.416  48.433  1.00  0.00     0.141 A 
HETATM   24  N7  UNL     1      27.022   6.912  48.745  1.00  0.00    -0.228 NA
BRANCH  23  25
HETATM   25  N1  UNL     1      28.361   8.827  48.363  1.00  0.00    -0.378 N 
HETATM   26  C1  UNL     1      29.316   9.505  49.219  1.00  0.00     0.147 C 
HETATM   27  H4  UNL     1      27.798   9.417  47.714  1.00  0.00     0.160 HD
ENDBRANCH  23  25
ENDBRANCH   1  19
BRANCH  15  28
HETATM   28  C23 UNL     1      22.190   7.151  48.790  1.00  0.00     0.288 C 
HETATM   29  O2  UNL     1      21.745   7.908  49.714  1.00  0.00    -0.300 OA
ENDBRANCH  15  28
BRANCH   4  30
HETATM   30  C8  UNL     1      26.405   1.845  51.922  1.00  0.00     0.144 C 
BRANCH  30  31
HETATM   31  C9  UNL     1      26.591   0.373  51.958  1.00  0.00     0.288 C 
BRANCH  31  32
HETATM   32  N5  UNL     1      27.175  -0.035  53.191  1.00  0.00     0.089 N 
HETATM   33  C10 UNL     1      27.979  -1.220  53.140  1.00  0.00     0.272 C 
HETATM   34  C11 UNL     1      29.409  -0.826  53.373  1.00  0.00     0.032 C 
HETATM   35  C12 UNL     1      29.367   0.564  53.927  1.00  0.00     0.032 C 
HETATM   36  C13 UNL     1      27.943   1.005  53.838  1.00  0.00     0.272 C 
ENDBRANCH  31  32
ENDBRANCH  30  31
ENDBRANCH   4  30
TORSDOF 6
ENDMDL
MODEL 5
REMARK VINA RESULT:      -8.3      2.292      5.945
REMARK  6 active torsions:
REMARK  status: ('A' for Active; 'I' for Inactive)
REMARK    1  A    between atoms: N1_2  and  C2_3 
REMARK    2  A    between atoms: C5_7  and  C6_8 
REMARK    3  A    between atoms: N4_11  and  C8_12 
REMARK    4  A    between atoms: C8_12  and  C9_13 
REMARK    5  A    between atoms: C9_13  and  N5_14 
REMARK    6  A    between atoms: C22_29  and  C23_30 
ROOT
HETATM    1  C6  UNL     1      21.833   0.248  52.361  1.00  0.00     0.013 C 
HETATM    2  C7  UNL     1      22.560   1.014  51.584  1.00  0.00     0.115 C 
HETATM    3  N3  UNL     1      23.459   1.796  50.839  1.00  0.00    -0.329 N 
HETATM    4  N4  UNL     1      23.748   3.186  50.953  1.00  0.00    -0.226 NA
HETATM    5  C14 UNL     1      25.162   3.448  50.663  1.00  0.00     0.147 C 
HETATM    6  C15 UNL     1      25.905   2.489  51.543  1.00  0.00    -0.062 A 
HETATM    7  C16 UNL     1      25.797   2.929  52.823  1.00  0.00     0.040 A 
HETATM    8  C17 UNL     1      26.109   2.323  54.001  1.00  0.00     0.020 A 
HETATM    9  C18 UNL     1      26.409   1.458  53.011  1.00  0.00     0.060 A 
HETATM   10  C19 UNL     1      26.687   0.637  51.946  1.00  0.00     0.111 A 
HETATM   11  C20 UNL     1      26.328   1.384  50.847  1.00  0.00    -0.007 A 
HETATM   12  C21 UNL     1      26.148   0.036  53.471  1.00  0.00     0.167 A 
HETATM   13  O1  UNL     1      26.009  -1.174  53.847  1.00  0.00    -0.281 OA
HETATM   14  N6  UNL     1      24.695  -0.033  53.758  1.00  0.00    -0.331 N 
HETATM   15  C22 UNL     1      23.411  -0.637  54.136  1.00  0.00     0.073 C 
HETATM   16  C24 UNL     1      22.240  -0.500  53.527  1.00  0.00     0.048 C 
HETATM   17  H8  UNL     1      24.026   1.319  50.074  1.00  0.00     0.180 HD
HETATM   18  H27 UNL     1      24.144   0.868  53.699  1.00  0.00     0.168 HD
ENDROOT
BRANCH   1  19
HETATM   19  C5  UNL     1      20.382   0.152  52.036  1.00  0.00     0.088 A 
HETATM   20  C4  UNL     1      19.699   0.666  50.980  1.00  0.00     0.148 A 
HETATM   21  N2  UNL     1      18.384   0.534  50.762  1.00  0.00    -0.267 NA
HETATM   22  C3  UNL     1      17.644  -0.162  51.649  1.00  0.00     0.166 A 
HETATM   23  C2  UNL     1      18.295  -0.700  52.735  1.00  0.00     0.141 A 
HETATM   24  N7  UNL     1      19.613  -0.551  52.925  1.00  0.00    -0.228 NA
BRANCH  23  25
HETATM   25  N1  UNL     1      17.559  -1.441  53.698  1.00  0.00    -0.378 N 
HETATM   26  C1  UNL     1      17.543  -2.890  53.639  1.00  0.00     0.147 C 
HETATM   27  H4  UNL     1      17.017  -0.987  54.463  1.00  0.00     0.160 HD
ENDBRANCH  23  25
ENDBRANCH   1  19
BRANCH  15  28
HETATM   28  C23 UNL     1      23.672  -1.411  55.307  1.00  0.00     0.288 C 
HETATM   29  O2  UNL     1      22.766  -2.170  55.783  1.00  0.00    -0.300 OA
ENDBRANCH  15  28
BRANCH   4  30
HETATM   30  C8  UNL     1      22.847   3.832  50.058  1.00  0.00     0.144 C 
BRANCH  30  31
HETATM   31  C9  UNL     1      23.438   4.629  48.953  1.00  0.00     0.288 C 
BRANCH  31  32
HETATM   32  N5  UNL     1      22.989   5.979  49.004  1.00  0.00     0.089 N 
HETATM   33  C10 UNL     1      22.508   6.429  50.277  1.00  0.00     0.272 C 
HETATM   34  C11 UNL     1      23.479   7.444  50.811  1.00  0.00     0.032 C 
HETATM   35  C12 UNL     1      24.337   7.841  49.652  1.00  0.00     0.032 C 
HETATM   36  C13 UNL     1      23.968   6.930  48.528  1.00  0.00     0.272 C 
ENDBRANCH  31  32
ENDBRANCH  30  31
ENDBRANCH   4  30
TORSDOF 6
ENDMDL
MODEL 6
REMARK VINA RESULT:      -8.3      2.285      6.281
REMARK  6 active torsions:
REMARK  status: ('A' for Active; 'I' for Inactive)
REMARK    1  A    between atoms: N1_2  and  C2_3 
REMARK    2  A    between atoms: C5_7  and  C6_8 
REMARK    3  A    between atoms: N4_11  and  C8_12 
REMARK    4  A    between atoms: C8_12  and  C9_13 
REMARK    5  A    between atoms: C9_13  and  N5_14 
REMARK    6  A    between atoms: C22_29  and  C23_30 
ROOT
HETATM    1  C6  UNL     1      24.037   3.795  49.607  1.00  0.00     0.013 C 
HETATM    2  C7  UNL     1      24.050   2.769  50.423  1.00  0.00     0.115 C 
HETATM    3  N3  UNL     1      23.913   1.668  51.285  1.00  0.00    -0.329 N 
HETATM    4  N4  UNL     1      23.858   1.643  52.708  1.00  0.00    -0.226 NA
HETATM    5  C14 UNL     1      22.957   0.585  53.175  1.00  0.00     0.147 C 
HETATM    6  C15 UNL     1      21.686   0.818  52.414  1.00  0.00    -0.062 A 
HETATM    7  C16 UNL     1      21.096   1.931  52.920  1.00  0.00     0.040 A 
HETATM    8  C17 UNL     1      20.052   2.673  52.459  1.00  0.00     0.020 A 
HETATM    9  C18 UNL     1      20.246   1.664  51.586  1.00  0.00     0.060 A 
HETATM   10  C19 UNL     1      20.510   0.609  50.747  1.00  0.00     0.111 A 
HETATM   11  C20 UNL     1      21.569  -0.036  51.346  1.00  0.00    -0.007 A 
HETATM   12  C21 UNL     1      19.936   2.133  50.177  1.00  0.00     0.167 A 
HETATM   13  O1  UNL     1      19.617   2.471  48.990  1.00  0.00    -0.281 OA
HETATM   14  N6  UNL     1      20.905   3.220  49.894  1.00  0.00    -0.331 N 
HETATM   15  C22 UNL     1      21.593   4.260  49.118  1.00  0.00     0.073 C 
HETATM   16  C24 UNL     1      22.900   4.465  49.020  1.00  0.00     0.048 C 
HETATM   17  H8  UNL     1      23.832   0.699  50.853  1.00  0.00     0.180 HD
HETATM   18  H27 UNL     1      21.531   3.533  50.687  1.00  0.00     0.168 HD
ENDROOT
BRANCH   1  19
HETATM   19  C5  UNL     1      25.358   4.386  49.253  1.00  0.00     0.088 A 
HETATM   20  C4  UNL     1      26.595   3.826  49.306  1.00  0.00     0.148 A 
HETATM   21  N2  UNL     1      27.741   4.434  48.969  1.00  0.00    -0.267 NA
HETATM   22  C3  UNL     1      27.700   5.710  48.539  1.00  0.00     0.166 A 
HETATM   23  C2  UNL     1      26.467   6.317  48.470  1.00  0.00     0.141 A 
HETATM   24  N7  UNL     1      25.338   5.683  48.813  1.00  0.00    -0.228 NA
BRANCH  23  25
HETATM   25  N1  UNL     1      26.371   7.662  48.023  1.00  0.00    -0.378 N 
HETATM   26  C1  UNL     1      26.451   8.750  48.979  1.00  0.00     0.147 C 
HETATM   27  H4  UNL     1      26.243   7.914  47.020  1.00  0.00     0.160 HD
ENDBRANCH  23  25
ENDBRANCH   1  19
BRANCH  15  28
HETATM   28  C23 UNL     1      20.565   5.019  48.483  1.00  0.00     0.288 C 
HETATM   29  O2  UNL     1      19.856   5.827  49.167  1.00  0.00    -0.300 OA
ENDBRANCH  15  28
BRANCH   4  30
HETATM   30  C8  UNL     1      25.208   1.479  53.134  1.00  0.00     0.144 C 
BRANCH  30  31
HETATM   31  C9  UNL     1      25.994   0.389  52.502  1.00  0.00     0.288 C 
BRANCH  31  32
HETATM   32  N5  UNL     1      26.635  -0.413  53.488  1.00  0.00     0.089 N 
HETATM   33  C10 UNL     1      27.792  -1.135  53.051  1.00  0.00     0.272 C 
HETATM   34  C11 UNL     1      28.996  -0.541  53.726  1.00  0.00     0.032 C 
HETATM   35  C12 UNL     1      28.467   0.299  54.845  1.00  0.00     0.032 C 
HETATM   36  C13 UNL     1      26.982   0.316  54.687  1.00  0.00     0.272 C 
ENDBRANCH  31  32
ENDBRANCH  30  31
ENDBRANCH   4  30
TORSDOF 6
ENDMDL
MODEL 7
REMARK VINA RESULT:      -7.9      2.134      5.025
REMARK  6 active torsions:
REMARK  status: ('A' for Active; 'I' for Inactive)
REMARK    1  A    between atoms: N1_2  and  C2_3 
REMARK    2  A    between atoms: C5_7  and  C6_8 
REMARK    3  A    between atoms: N4_11  and  C8_12 
REMARK    4  A    between atoms: C8_12  and  C9_13 
REMARK    5  A    between atoms: C9_13  and  N5_14 
REMARK    6  A    between atoms: C22_29  and  C23_30 
ROOT
HETATM    1  C6  UNL     1      24.589   2.016  51.820  1.00  0.00     0.013 C 
HETATM    2  C7  UNL     1      23.300   2.119  52.037  1.00  0.00     0.115 C 
HETATM    3  N3  UNL     1      21.932   2.103  52.356  1.00  0.00    -0.329 N 
HETATM    4  N4  UNL     1      20.843   1.557  51.617  1.00  0.00    -0.226 NA
HETATM    5  C14 UNL     1      19.823   1.013  52.519  1.00  0.00     0.147 C 
HETATM    6  C15 UNL     1      20.587   0.109  53.440  1.00  0.00    -0.062 A 
HETATM    7  C16 UNL     1      20.952  -0.991  52.734  1.00  0.00     0.040 A 
HETATM    8  C17 UNL     1      21.817  -1.998  53.039  1.00  0.00     0.020 A 
HETATM    9  C18 UNL     1      21.809  -1.143  54.082  1.00  0.00     0.060 A 
HETATM   10  C19 UNL     1      21.742  -0.224  55.101  1.00  0.00     0.111 A 
HETATM   11  C20 UNL     1      20.837   0.709  54.649  1.00  0.00    -0.007 A 
HETATM   12  C21 UNL     1      23.188  -1.081  54.710  1.00  0.00     0.167 A 
HETATM   13  O1  UNL     1      24.315  -1.057  55.306  1.00  0.00    -0.281 OA
HETATM   14  N6  UNL     1      24.087  -0.555  53.653  1.00  0.00    -0.331 N 
HETATM   15  C22 UNL     1      25.333  -0.075  53.043  1.00  0.00     0.073 C 
HETATM   16  C24 UNL     1      25.504   1.002  52.289  1.00  0.00     0.048 C 
HETATM   17  H8  UNL     1      21.624   2.550  53.272  1.00  0.00     0.180 HD
HETATM   18  H27 UNL     1      23.675  -0.418  52.688  1.00  0.00     0.168 HD
ENDROOT
BRANCH   1  19
HETATM   19  C5  UNL     1      25.204   3.053  50.946  1.00  0.00     0.088 A 
HETATM   20  C4  UNL     1      26.231   2.938  50.063  1.00  0.00     0.148 A 
HETATM   21  N2  UNL     1      26.730   3.929  49.312  1.00  0.00    -0.267 NA
HETATM   22  C3  UNL     1      26.190   5.160  49.416  1.00  0.00     0.166 A 
HETATM   23  C2  UNL     1      25.147   5.323  50.299  1.00  0.00     0.141 A 
HETATM   24  N7  UNL     1      24.670   4.311  51.037  1.00  0.00    -0.228 NA
BRANCH  23  25
HETATM   25  N1  UNL     1      24.545   6.600  50.445  1.00  0.00    -0.378 N 
HETATM   26  C1  UNL     1      25.276   7.793  50.063  1.00  0.00     0.147 C 
HETATM   27  H4  UNL     1      23.582   6.729  50.823  1.00  0.00     0.160 HD
ENDBRANCH  23  25
ENDBRANCH   1  19
BRANCH  15  28
HETATM   28  C23 UNL     1      26.341  -1.012  53.424  1.00  0.00     0.288 C 
HETATM   29  O2  UNL     1      27.326  -0.632  54.137  1.00  0.00    -0.300 OA
ENDBRANCH  15  28
BRANCH   4  30
HETATM   30  C8  UNL     1      20.375   2.623  50.795  1.00  0.00     0.144 C 
BRANCH  30  31
HETATM   31  C9  UNL     1      19.605   2.259  49.579  1.00  0.00     0.288 C 
BRANCH  31  32
HETATM   32  N5  UNL     1      20.375   2.488  48.403  1.00  0.00     0.089 N 
HETATM   33  C10 UNL     1      20.852   3.827  48.220  1.00  0.00     0.272 C 
HETATM   34  C11 UNL     1      22.346   3.816  48.378  1.00  0.00     0.032 C 
HETATM   35  C12 UNL     1      22.758   2.381  48.289  1.00  0.00     0.032 C 
HETATM   36  C13 UNL     1      21.494   1.585  48.260  1.00  0.00     0.272 C 
ENDBRANCH  31  32
ENDBRANCH  30  31
ENDBRANCH   4  30
TORSDOF 6
ENDMDL
MODEL 8
REMARK VINA RESULT:      -7.8      5.311      9.154
REMARK  6 active torsions:
REMARK  status: ('A' for Active; 'I' for Inactive)
REMARK    1  A    between atoms: N1_2  and  C2_3 
REMARK    2  A    between atoms: C5_7  and  C6_8 
REMARK    3  A    between atoms: N4_11  and  C8_12 
REMARK    4  A    between atoms: C8_12  and  C9_13 
REMARK    5  A    between atoms: C9_13  and  N5_14 
REMARK    6  A    between atoms: C22_29  and  C23_30 
ROOT
HETATM    1  C6  UNL     1      30.308   6.687  48.154  1.00  0.00     0.013 C 
HETATM    2  C7  UNL     1      29.079   6.230  48.130  1.00  0.00     0.115 C 
HETATM    3  N3  UNL     1      27.717   5.885  48.120  1.00  0.00    -0.329 N 
HETATM    4  N4  UNL     1      26.895   5.443  49.196  1.00  0.00    -0.226 NA
HETATM    5  C14 UNL     1      25.526   5.947  49.044  1.00  0.00     0.147 C 
HETATM    6  C15 UNL     1      25.695   7.422  48.834  1.00  0.00    -0.062 A 
HETATM    7  C16 UNL     1      26.067   7.972  50.018  1.00  0.00     0.040 A 
HETATM    8  C17 UNL     1      26.536   9.215  50.314  1.00  0.00     0.020 A 
HETATM    9  C18 UNL     1      26.314   9.174  48.985  1.00  0.00     0.060 A 
HETATM   10  C19 UNL     1      26.060   9.049  47.641  1.00  0.00     0.111 A 
HETATM   11  C20 UNL     1      25.594   7.761  47.507  1.00  0.00    -0.007 A 
HETATM   12  C21 UNL     1      27.345  10.020  48.262  1.00  0.00     0.167 A 
HETATM   13  O1  UNL     1      28.150  10.778  47.628  1.00  0.00    -0.281 OA
HETATM   14  N6  UNL     1      28.657   9.395  48.559  1.00  0.00    -0.331 N 
HETATM   15  C22 UNL     1      30.109   9.191  48.500  1.00  0.00     0.073 C 
HETATM   16  C24 UNL     1      30.760   8.047  48.326  1.00  0.00     0.048 C 
HETATM   17  H8  UNL     1      27.188   5.954  47.198  1.00  0.00     0.180 HD
HETATM   18  H27 UNL     1      28.668   8.593  49.248  1.00  0.00     0.168 HD
ENDROOT
BRANCH   1  19
HETATM   19  C5  UNL     1      31.399   5.681  48.026  1.00  0.00     0.088 A 
HETATM   20  C4  UNL     1      32.655   5.701  48.543  1.00  0.00     0.148 A 
HETATM   21  N2  UNL     1      33.583   4.748  48.377  1.00  0.00    -0.267 NA
HETATM   22  C3  UNL     1      33.277   3.664  47.637  1.00  0.00     0.166 A 
HETATM   23  C2  UNL     1      32.014   3.602  47.093  1.00  0.00     0.141 A 
HETATM   24  N7  UNL     1      31.108   4.571  47.278  1.00  0.00    -0.228 NA
BRANCH  23  25
HETATM   25  N1  UNL     1      31.644   2.480  46.305  1.00  0.00    -0.378 N 
HETATM   26  C1  UNL     1      32.082   1.151  46.686  1.00  0.00     0.147 C 
HETATM   27  H4  UNL     1      31.060   2.563  45.446  1.00  0.00     0.160 HD
ENDBRANCH  23  25
ENDBRANCH   1  19
BRANCH  15  28
HETATM   28  C23 UNL     1      30.693  10.482  48.672  1.00  0.00     0.288 C 
HETATM   29  O2  UNL     1      31.537  10.917  47.821  1.00  0.00    -0.300 OA
ENDBRANCH  15  28
BRANCH   4  30
HETATM   30  C8  UNL     1      26.989   4.021  49.180  1.00  0.00     0.144 C 
BRANCH  30  31
HETATM   31  C9  UNL     1      25.798   3.254  49.626  1.00  0.00     0.288 C 
BRANCH  31  32
HETATM   32  N5  UNL     1      25.835   3.031  51.032  1.00  0.00     0.089 N 
HETATM   33  C10 UNL     1      24.576   2.737  51.651  1.00  0.00     0.272 C 
HETATM   34  C11 UNL     1      24.603   1.306  52.107  1.00  0.00     0.032 C 
HETATM   35  C12 UNL     1      26.039   0.890  52.069  1.00  0.00     0.032 C 
HETATM   36  C13 UNL     1      26.784   2.016  51.430  1.00  0.00     0.272 C 
ENDBRANCH  31  32
ENDBRANCH  30  31
ENDBRANCH   4  30
TORSDOF 6
ENDMDL
MODEL 9
REMARK VINA RESULT:      -7.8      5.662      8.125
REMARK  6 active torsions:
REMARK  status: ('A' for Active; 'I' for Inactive)
REMARK    1  A    between atoms: N1_2  and  C2_3 
REMARK    2  A    between atoms: C5_7  and  C6_8 
REMARK    3  A    between atoms: N4_11  and  C8_12 
REMARK    4  A    between atoms: C8_12  and  C9_13 
REMARK    5  A    between atoms: C9_13  and  N5_14 
REMARK    6  A    between atoms: C22_29  and  C23_30 
ROOT
HETATM    1  C6  UNL     1      28.864   6.334  48.164  1.00  0.00     0.013 C 
HETATM    2  C7  UNL     1      28.329   7.527  48.058  1.00  0.00     0.115 C 
HETATM    3  N3  UNL     1      27.628   8.743  47.998  1.00  0.00    -0.329 N 
HETATM    4  N4  UNL     1      26.956   9.338  46.892  1.00  0.00    -0.226 NA
HETATM    5  C14 UNL     1      25.762  10.063  47.339  1.00  0.00     0.147 C 
HETATM    6  C15 UNL     1      25.016   9.068  48.176  1.00  0.00    -0.062 A 
HETATM    7  C16 UNL     1      24.484   8.137  47.342  1.00  0.00     0.040 A 
HETATM    8  C17 UNL     1      23.903   6.935  47.605  1.00  0.00     0.020 A 
HETATM    9  C18 UNL     1      24.266   7.474  48.787  1.00  0.00     0.060 A 
HETATM   10  C19 UNL     1      24.666   8.093  49.946  1.00  0.00     0.111 A 
HETATM   11  C20 UNL     1      25.218   9.279  49.517  1.00  0.00    -0.007 A 
HETATM   12  C21 UNL     1      24.692   6.379  49.746  1.00  0.00     0.167 A 
HETATM   13  O1  UNL     1      24.990   5.482  50.600  1.00  0.00    -0.281 OA
HETATM   14  N6  UNL     1      25.872   5.734  49.119  1.00  0.00    -0.331 N 
HETATM   15  C22 UNL     1      27.010   4.815  48.989  1.00  0.00     0.073 C 
HETATM   16  C24 UNL     1      28.242   5.103  48.592  1.00  0.00     0.048 C 
HETATM   17  H8  UNL     1      27.563   9.330  48.884  1.00  0.00     0.180 HD
HETATM   18  H27 UNL     1      26.137   6.047  48.144  1.00  0.00     0.168 HD
ENDROOT
BRANCH   1  19
HETATM   19  C5  UNL     1      30.291   6.202  47.760  1.00  0.00     0.088 A 
HETATM   20  C4  UNL     1      31.064   7.054  47.036  1.00  0.00     0.148 A 
HETATM   21  N2  UNL     1      32.350   6.857  46.712  1.00  0.00    -0.267 NA
HETATM   22  C3  UNL     1      32.959   5.727  47.123  1.00  0.00     0.166 A 
HETATM   23  C2  UNL     1      32.213   4.835  47.859  1.00  0.00     0.141 A 
HETATM   24  N7  UNL     1      30.929   5.061  48.168  1.00  0.00    -0.228 NA
BRANCH  23  25
HETATM   25  N1  UNL     1      32.809   3.629  48.315  1.00  0.00    -0.378 N 
HETATM   26  C1  UNL     1      33.789   2.950  47.489  1.00  0.00     0.147 C 
HETATM   27  H4  UNL     1      32.574   3.197  49.233  1.00  0.00     0.160 HD
ENDBRANCH  23  25
ENDBRANCH   1  19
BRANCH  15  28
HETATM   28  C23 UNL     1      26.522   3.531  49.377  1.00  0.00     0.288 C 
HETATM   29  O2  UNL     1      26.955   2.980  50.442  1.00  0.00    -0.300 OA
ENDBRANCH  15  28
BRANCH   4  30
HETATM   30  C8  UNL     1      27.930  10.167  46.263  1.00  0.00     0.144 C 
BRANCH  30  31
HETATM   31  C9  UNL     1      28.085  11.550  46.781  1.00  0.00     0.288 C 
BRANCH  31  32
HETATM   32  N5  UNL     1      29.461  11.889  46.920  1.00  0.00     0.089 N 
HETATM   33  C10 UNL     1      29.787  12.731  48.032  1.00  0.00     0.272 C 
HETATM   34  C11 UNL     1      30.586  11.921  49.014  1.00  0.00     0.032 C 
HETATM   35  C12 UNL     1      31.029  10.699  48.273  1.00  0.00     0.032 C 
HETATM   36  C13 UNL     1      30.338  10.740  46.950  1.00  0.00     0.272 C 
ENDBRANCH  31  32
ENDBRANCH  30  31
ENDBRANCH   4  30
TORSDOF 6
ENDMDL
