MODEL 1
REMARK VINA RESULT:      -7.3      0.000      0.000
REMARK  2 active torsions:
REMARK  status: ('A' for Active; 'I' for Inactive)
REMARK    1  A    between atoms: C4_6  and  C5_7 
REMARK    2  A    between atoms: N2_12  and  C10_13 
ROOT
HETATM    1  C1  UNL     1      27.646   2.098  53.190  1.00  0.00     0.153 C 
HETATM    2  N1  UNL     1      26.351   2.219  52.531  1.00  0.00    -0.341 N 
HETATM    3  C2  UNL     1      25.967   2.293  51.198  1.00  0.00     0.237 C 
HETATM    4  O1  UNL     1      26.546   2.759  50.236  1.00  0.00    -0.272 OA
HETATM    5  C3  UNL     1      24.706   1.571  51.712  1.00  0.00     0.107 A 
HETATM    6  C4  UNL     1      23.337   1.757  51.011  1.00  0.00    -0.019 C 
HETATM    7  C10 UNL     1      24.161   3.572  52.308  1.00  0.00     0.116 A 
HETATM    8  C11 UNL     1      22.700   4.015  52.658  1.00  0.00     0.204 C 
HETATM    9  O2  UNL     1      21.651   3.449  52.030  1.00  0.00    -0.387 OA
HETATM   10  C12 UNL     1      21.176   2.147  52.424  1.00  0.00     0.184 C 
HETATM   11  C13 UNL     1      22.524   1.447  52.409  1.00  0.00     0.032 A 
HETATM   12  C14 UNL     1      23.539   0.766  52.955  1.00  0.00     0.002 A 
HETATM   13  C15 UNL     1      24.610  -0.071  53.549  1.00  0.00     0.016 A 
HETATM   14  C16 UNL     1      24.886   1.216  53.336  1.00  0.00     0.027 A 
HETATM   15  C17 UNL     1      24.910   2.374  52.332  1.00  0.00     0.097 A 
HETATM   16  N3  UNL     1      23.696   2.343  52.675  1.00  0.00     0.000 N 
ENDROOT
BRANCH   7  17
HETATM   17  N2  UNL     1      23.761   3.668  50.697  1.00  0.00    -0.340 N 
HETATM   18  C5  UNL     1      23.024   2.508  49.776  1.00  0.00     0.036 A 
HETATM   19  C6  UNL     1      22.719   2.781  48.611  1.00  0.00     0.007 A 
HETATM   20  C7  UNL     1      23.000   4.133  48.063  1.00  0.00     0.058 A 
HETATM   21  C8  UNL     1      23.658   5.057  48.967  1.00  0.00    -0.006 A 
HETATM   22  C9  UNL     1      24.094   5.052  50.211  1.00  0.00     0.089 A 
ENDBRANCH   7  17
TORSDOF 2
ENDMDL
MODEL 2
REMARK VINA RESULT:      -7.1      1.318      1.553
REMARK  2 active torsions:
REMARK  status: ('A' for Active; 'I' for Inactive)
REMARK    1  A    between atoms: C4_6  and  C5_7 
REMARK    2  A    between atoms: N2_12  and  C10_13 
ROOT
HETATM    1  C1  UNL     1      25.919   2.103  53.831  1.00  0.00     0.153 C 
HETATM    2  N1  UNL     1      24.793   1.988  52.913  1.00  0.00    -0.341 N 
HETATM    3  C2  UNL     1      24.696   1.956  51.528  1.00  0.00     0.237 C 
HETATM    4  O1  UNL     1      25.388   2.481  50.677  1.00  0.00    -0.272 OA
HETATM    5  C3  UNL     1      23.482   1.050  51.817  1.00  0.00     0.107 A 
HETATM    6  C4  UNL     1      22.283   0.984  50.838  1.00  0.00    -0.019 C 
HETATM    7  C10 UNL     1      22.518   2.950  52.155  1.00  0.00     0.116 A 
HETATM    8  C11 UNL     1      20.965   3.155  52.167  1.00  0.00     0.204 C 
HETATM    9  O2  UNL     1      20.176   2.404  51.374  1.00  0.00    -0.387 OA
HETATM   10  C12 UNL     1      19.836   1.054  51.747  1.00  0.00     0.184 C 
HETATM   11  C13 UNL     1      21.249   0.587  52.056  1.00  0.00     0.032 A 
HETATM   12  C14 UNL     1      22.216   0.102  52.842  1.00  0.00     0.002 A 
HETATM   13  C15 UNL     1      23.252  -0.527  53.697  1.00  0.00     0.016 A 
HETATM   14  C16 UNL     1      23.364   0.780  53.463  1.00  0.00     0.027 A 
HETATM   15  C17 UNL     1      23.421   1.894  52.412  1.00  0.00     0.097 A 
HETATM   16  N3  UNL     1      22.182   1.673  52.498  1.00  0.00     0.000 N 
ENDROOT
BRANCH   7  17
HETATM   17  N2  UNL     1      22.462   2.929  50.493  1.00  0.00    -0.340 N 
HETATM   18  C5  UNL     1      22.005   1.670  49.522  1.00  0.00     0.036 A 
HETATM   19  C6  UNL     1      21.938   1.856  48.303  1.00  0.00     0.007 A 
HETATM   20  C7  UNL     1      22.248   3.192  47.733  1.00  0.00     0.058 A 
HETATM   21  C8  UNL     1      22.645   4.209  48.689  1.00  0.00    -0.006 A 
HETATM   22  C9  UNL     1      22.809   4.304  49.993  1.00  0.00     0.089 A 
ENDBRANCH   7  17
TORSDOF 2
ENDMDL
MODEL 3
REMARK VINA RESULT:      -7.0      8.247     10.422
REMARK  2 active torsions:
REMARK  status: ('A' for Active; 'I' for Inactive)
REMARK    1  A    between atoms: C4_6  and  C5_7 
REMARK    2  A    between atoms: N2_12  and  C10_13 
ROOT
HETATM    1  C1  UNL     1      29.061   9.081  48.708  1.00  0.00     0.153 C 
HETATM    2  N1  UNL     1      30.142   8.127  48.495  1.00  0.00    -0.341 N 
HETATM    3  C2  UNL     1      31.328   7.869  49.170  1.00  0.00     0.237 C 
HETATM    4  O1  UNL     1      32.055   8.613  49.799  1.00  0.00    -0.272 OA
HETATM    5  C3  UNL     1      31.076   6.427  48.687  1.00  0.00     0.107 A 
HETATM    6  C4  UNL     1      32.252   5.452  48.431  1.00  0.00    -0.019 C 
HETATM    7  C10 UNL     1      31.917   7.205  46.859  1.00  0.00     0.116 A 
HETATM    8  C11 UNL     1      32.487   6.311  45.706  1.00  0.00     0.204 C 
HETATM    9  O2  UNL     1      33.080   5.135  45.990  1.00  0.00    -0.387 OA
HETATM   10  C12 UNL     1      32.288   3.968  46.283  1.00  0.00     0.184 C 
HETATM   11  C13 UNL     1      31.379   4.615  47.313  1.00  0.00     0.032 A 
HETATM   12  C14 UNL     1      30.199   5.008  47.807  1.00  0.00     0.002 A 
HETATM   13  C15 UNL     1      28.878   5.351  48.386  1.00  0.00     0.016 A 
HETATM   14  C16 UNL     1      29.607   6.352  47.892  1.00  0.00     0.027 A 
HETATM   15  C17 UNL     1      30.958   7.074  47.889  1.00  0.00     0.097 A 
HETATM   16  N3  UNL     1      31.181   6.090  47.132  1.00  0.00     0.000 N 
ENDROOT
BRANCH   7  17
HETATM   17  N2  UNL     1      33.328   6.949  47.701  1.00  0.00    -0.340 N 
HETATM   18  C5  UNL     1      33.801   5.560  48.465  1.00  0.00     0.036 A 
HETATM   19  C6  UNL     1      34.927   5.515  48.970  1.00  0.00     0.007 A 
HETATM   20  C7  UNL     1      35.836   6.686  48.873  1.00  0.00     0.058 A 
HETATM   21  C8  UNL     1      35.300   7.846  48.186  1.00  0.00    -0.006 A 
HETATM   22  C9  UNL     1      34.182   8.181  47.575  1.00  0.00     0.089 A 
ENDBRANCH   7  17
TORSDOF 2
ENDMDL
MODEL 4
REMARK VINA RESULT:      -7.0      1.741      4.032
REMARK  2 active torsions:
REMARK  status: ('A' for Active; 'I' for Inactive)
REMARK    1  A    between atoms: C4_6  and  C5_7 
REMARK    2  A    between atoms: N2_12  and  C10_13 
ROOT
HETATM    1  C1  UNL     1      23.855   6.128  48.167  1.00  0.00     0.153 C 
HETATM    2  N1  UNL     1      23.769   5.033  49.125  1.00  0.00    -0.341 N 
HETATM    3  C2  UNL     1      22.957   3.909  49.211  1.00  0.00     0.237 C 
HETATM    4  O1  UNL     1      21.809   3.736  48.848  1.00  0.00    -0.272 OA
HETATM    5  C3  UNL     1      24.203   3.285  49.870  1.00  0.00     0.107 A 
HETATM    6  C4  UNL     1      24.071   2.149  50.915  1.00  0.00    -0.019 C 
HETATM    7  C10 UNL     1      23.459   4.345  51.596  1.00  0.00     0.116 A 
HETATM    8  C11 UNL     1      23.892   4.033  53.069  1.00  0.00     0.204 C 
HETATM    9  O2  UNL     1      24.198   2.772  53.433  1.00  0.00    -0.387 OA
HETATM   10  C12 UNL     1      25.485   2.209  53.110  1.00  0.00     0.184 C 
HETATM   11  C13 UNL     1      25.485   2.584  51.637  1.00  0.00     0.032 A 
HETATM   12  C14 UNL     1      25.960   3.195  50.546  1.00  0.00     0.002 A 
HETATM   13  C15 UNL     1      26.552   3.799  49.327  1.00  0.00     0.016 A 
HETATM   14  C16 UNL     1      25.465   4.381  49.832  1.00  0.00     0.027 A 
HETATM   15  C17 UNL     1      24.018   4.205  50.305  1.00  0.00     0.097 A 
HETATM   16  N3  UNL     1      24.675   3.800  51.303  1.00  0.00     0.000 N 
ENDROOT
BRANCH   7  17
HETATM   17  N2  UNL     1      22.452   3.023  51.654  1.00  0.00    -0.340 N 
HETATM   18  C5  UNL     1      22.845   1.448  51.338  1.00  0.00     0.036 A 
HETATM   19  C6  UNL     1      21.989   0.576  51.516  1.00  0.00     0.007 A 
HETATM   20  C7  UNL     1      20.641   0.945  52.021  1.00  0.00     0.058 A 
HETATM   21  C8  UNL     1      20.418   2.360  52.250  1.00  0.00    -0.006 A 
HETATM   22  C9  UNL     1      21.106   3.479  52.149  1.00  0.00     0.089 A 
ENDBRANCH   7  17
TORSDOF 2
ENDMDL
MODEL 5
REMARK VINA RESULT:      -7.0      2.717      5.407
REMARK  2 active torsions:
REMARK  status: ('A' for Active; 'I' for Inactive)
REMARK    1  A    between atoms: C4_6  and  C5_7 
REMARK    2  A    between atoms: N2_12  and  C10_13 
ROOT
HETATM    1  C1  UNL     1      22.213  -0.379  54.967  1.00  0.00     0.153 C 
HETATM    2  N1  UNL     1      23.491  -0.164  54.299  1.00  0.00    -0.341 N 
HETATM    3  C2  UNL     1      24.571  -0.993  54.027  1.00  0.00     0.237 C 
HETATM    4  O1  UNL     1      25.008  -1.946  54.643  1.00  0.00    -0.272 OA
HETATM    5  C3  UNL     1      24.714  -0.094  52.783  1.00  0.00     0.107 A 
HETATM    6  C4  UNL     1      26.096   0.145  52.124  1.00  0.00    -0.019 C 
HETATM    7  C10 UNL     1      25.672   1.217  54.204  1.00  0.00     0.116 A 
HETATM    8  C11 UNL     1      26.605   2.411  53.805  1.00  0.00     0.204 C 
HETATM    9  O2  UNL     1      27.375   2.330  52.702  1.00  0.00    -0.387 OA
HETATM   10  C12 UNL     1      26.809   2.549  51.396  1.00  0.00     0.184 C 
HETATM   11  C13 UNL     1      25.621   1.614  51.550  1.00  0.00     0.032 A 
HETATM   12  C14 UNL     1      24.319   1.310  51.589  1.00  0.00     0.002 A 
HETATM   13  C15 UNL     1      22.876   0.973  51.534  1.00  0.00     0.016 A 
HETATM   14  C16 UNL     1      23.451   1.001  52.736  1.00  0.00     0.027 A 
HETATM   15  C17 UNL     1      24.601   0.504  53.619  1.00  0.00     0.097 A 
HETATM   16  N3  UNL     1      25.152   1.429  52.961  1.00  0.00     0.000 N 
ENDROOT
BRANCH   7  17
HETATM   17  N2  UNL     1      26.941   0.182  53.917  1.00  0.00    -0.340 N 
HETATM   18  C5  UNL     1      27.036  -0.988  52.751  1.00  0.00     0.036 A 
HETATM   19  C6  UNL     1      28.095  -1.612  52.622  1.00  0.00     0.007 A 
HETATM   20  C7  UNL     1      29.258  -1.297  53.490  1.00  0.00     0.058 A 
HETATM   21  C8  UNL     1      29.044  -0.257  54.479  1.00  0.00    -0.006 A 
HETATM   22  C9  UNL     1      28.066   0.547  54.846  1.00  0.00     0.089 A 
ENDBRANCH   7  17
TORSDOF 2
ENDMDL
MODEL 6
REMARK VINA RESULT:      -7.0      1.764      4.000
REMARK  2 active torsions:
REMARK  status: ('A' for Active; 'I' for Inactive)
REMARK    1  A    between atoms: C4_6  and  C5_7 
REMARK    2  A    between atoms: N2_12  and  C10_13 
ROOT
HETATM    1  C1  UNL     1      20.962  -0.298  54.186  1.00  0.00     0.153 C 
HETATM    2  N1  UNL     1      21.928   0.448  53.390  1.00  0.00    -0.341 N 
HETATM    3  C2  UNL     1      23.266   0.239  53.081  1.00  0.00     0.237 C 
HETATM    4  O1  UNL     1      24.148  -0.300  53.720  1.00  0.00    -0.272 OA
HETATM    5  C3  UNL     1      22.884   0.951  51.768  1.00  0.00     0.107 A 
HETATM    6  C4  UNL     1      23.929   1.771  50.969  1.00  0.00    -0.019 C 
HETATM    7  C10 UNL     1      23.116   2.709  52.998  1.00  0.00     0.116 A 
HETATM    8  C11 UNL     1      23.305   4.157  52.431  1.00  0.00     0.204 C 
HETATM    9  O2  UNL     1      23.963   4.350  51.271  1.00  0.00    -0.387 OA
HETATM   10  C12 UNL     1      23.307   4.118  50.010  1.00  0.00     0.184 C 
HETATM   11  C13 UNL     1      22.757   2.741  50.338  1.00  0.00     0.032 A 
HETATM   12  C14 UNL     1      21.786   1.838  50.518  1.00  0.00     0.002 A 
HETATM   13  C15 UNL     1      20.706   0.826  50.620  1.00  0.00     0.016 A 
HETATM   14  C16 UNL     1      21.241   1.265  51.758  1.00  0.00     0.027 A 
HETATM   15  C17 UNL     1      22.522   1.501  52.566  1.00  0.00     0.097 A 
HETATM   16  N3  UNL     1      22.506   2.500  51.796  1.00  0.00     0.000 N 
ENDROOT
BRANCH   7  17
HETATM   17  N2  UNL     1      24.719   2.414  52.670  1.00  0.00    -0.340 N 
HETATM   18  C5  UNL     1      25.439   2.328  51.184  1.00  0.00     0.036 A 
HETATM   19  C6  UNL     1      26.665   2.187  51.125  1.00  0.00     0.007 A 
HETATM   20  C7  UNL     1      27.468   2.114  52.373  1.00  0.00     0.058 A 
HETATM   21  C8  UNL     1      26.718   2.193  53.612  1.00  0.00    -0.006 A 
HETATM   22  C9  UNL     1      25.459   2.331  53.978  1.00  0.00     0.089 A 
ENDBRANCH   7  17
TORSDOF 2
ENDMDL
MODEL 7
REMARK VINA RESULT:      -6.9      9.019     10.855
REMARK  2 active torsions:
REMARK  status: ('A' for Active; 'I' for Inactive)
REMARK    1  A    between atoms: C4_6  and  C5_7 
REMARK    2  A    between atoms: N2_12  and  C10_13 
ROOT
HETATM    1  C1  UNL     1      31.991   2.792  46.447  1.00  0.00     0.153 C 
HETATM    2  N1  UNL     1      32.228   4.129  46.975  1.00  0.00    -0.341 N 
HETATM    3  C2  UNL     1      31.506   4.955  47.828  1.00  0.00     0.237 C 
HETATM    4  O1  UNL     1      30.307   5.055  47.999  1.00  0.00    -0.272 OA
HETATM    5  C3  UNL     1      32.908   5.446  48.241  1.00  0.00     0.107 A 
HETATM    6  C4  UNL     1      33.129   6.889  48.759  1.00  0.00    -0.019 C 
HETATM    7  C10 UNL     1      32.710   6.609  46.435  1.00  0.00     0.116 A 
HETATM    8  C11 UNL     1      33.582   7.868  46.103  1.00  0.00     0.204 C 
HETATM    9  O2  UNL     1      34.013   8.674  47.093  1.00  0.00    -0.387 OA
HETATM   10  C12 UNL     1      35.149   8.302  47.898  1.00  0.00     0.184 C 
HETATM   11  C13 UNL     1      34.688   6.893  48.228  1.00  0.00     0.032 A 
HETATM   12  C14 UNL     1      34.790   5.559  48.238  1.00  0.00     0.002 A 
HETATM   13  C15 UNL     1      34.964   4.089  48.325  1.00  0.00     0.016 A 
HETATM   14  C16 UNL     1      34.073   4.547  47.447  1.00  0.00     0.027 A 
HETATM   15  C17 UNL     1      32.847   5.435  47.208  1.00  0.00     0.097 A 
HETATM   16  N3  UNL     1      33.788   6.274  47.201  1.00  0.00     0.000 N 
ENDROOT
BRANCH   7  17
HETATM   17  N2  UNL     1      31.798   7.559  47.450  1.00  0.00    -0.340 N 
HETATM   18  C5  UNL     1      32.140   7.966  49.017  1.00  0.00     0.036 A 
HETATM   19  C6  UNL     1      31.392   8.757  49.600  1.00  0.00     0.007 A 
HETATM   20  C7  UNL     1      30.221   9.338  48.893  1.00  0.00     0.058 A 
HETATM   21  C8  UNL     1      30.026   8.894  47.526  1.00  0.00    -0.006 A 
HETATM   22  C9  UNL     1      30.625   8.088  46.672  1.00  0.00     0.089 A 
ENDBRANCH   7  17
TORSDOF 2
ENDMDL
MODEL 8
REMARK VINA RESULT:      -6.8      2.241      4.721
REMARK  2 active torsions:
REMARK  status: ('A' for Active; 'I' for Inactive)
REMARK    1  A    between atoms: C4_6  and  C5_7 
REMARK    2  A    between atoms: N2_12  and  C10_13 
ROOT
HETATM    1  C1  UNL     1      24.609   4.579  50.754  1.00  0.00     0.153 C 
HETATM    2  N1  UNL     1      23.579   3.688  51.272  1.00  0.00    -0.341 N 
HETATM    3  C2  UNL     1      23.373   3.094  52.511  1.00  0.00     0.237 C 
HETATM    4  O1  UNL     1      24.171   2.726  53.351  1.00  0.00    -0.272 OA
HETATM    5  C3  UNL     1      21.887   3.234  52.127  1.00  0.00     0.107 A 
HETATM    6  C4  UNL     1      20.825   2.242  52.664  1.00  0.00    -0.019 C 
HETATM    7  C10 UNL     1      22.317   1.451  50.990  1.00  0.00     0.116 A 
HETATM    8  C11 UNL     1      21.220   0.475  50.442  1.00  0.00     0.204 C 
HETATM    9  O2  UNL     1      20.076   0.286  51.129  1.00  0.00    -0.387 OA
HETATM   10  C12 UNL     1      19.013   1.256  51.063  1.00  0.00     0.184 C 
HETATM   11  C13 UNL     1      19.864   2.482  51.348  1.00  0.00     0.032 A 
HETATM   12  C14 UNL     1      20.391   3.679  51.068  1.00  0.00     0.002 A 
HETATM   13  C15 UNL     1      20.890   5.047  50.786  1.00  0.00     0.016 A 
HETATM   14  C16 UNL     1      21.759   4.044  50.669  1.00  0.00     0.027 A 
HETATM   15  C17 UNL     1      22.402   2.820  51.331  1.00  0.00     0.097 A 
HETATM   16  N3  UNL     1      21.299   2.357  50.931  1.00  0.00     0.000 N 
ENDROOT
BRANCH   7  17
HETATM   17  N2  UNL     1      22.127   0.758  52.489  1.00  0.00    -0.340 N 
HETATM   18  C5  UNL     1      20.821   0.886  53.495  1.00  0.00     0.036 A 
HETATM   19  C6  UNL     1      20.811   0.229  54.541  1.00  0.00     0.007 A 
HETATM   20  C7  UNL     1      21.949  -0.667  54.871  1.00  0.00     0.058 A 
HETATM   21  C8  UNL     1      23.037  -0.683  53.912  1.00  0.00    -0.006 A 
HETATM   22  C9  UNL     1      23.325  -0.112  52.760  1.00  0.00     0.089 A 
ENDBRANCH   7  17
TORSDOF 2
ENDMDL
MODEL 9
REMARK VINA RESULT:      -6.7      2.949      4.249
REMARK  2 active torsions:
REMARK  status: ('A' for Active; 'I' for Inactive)
REMARK    1  A    between atoms: C4_6  and  C5_7 
REMARK    2  A    between atoms: N2_12  and  C10_13 
ROOT
HETATM    1  C1  UNL     1      21.526  -0.398  54.938  1.00  0.00     0.153 C 
HETATM    2  N1  UNL     1      21.188   0.140  53.627  1.00  0.00    -0.341 N 
HETATM    3  C2  UNL     1      21.854   0.159  52.408  1.00  0.00     0.237 C 
HETATM    4  O1  UNL     1      23.044   0.194  52.160  1.00  0.00    -0.272 OA
HETATM    5  C3  UNL     1      20.424   0.104  51.834  1.00  0.00     0.107 A 
HETATM    6  C4  UNL     1      20.093   0.724  50.453  1.00  0.00    -0.019 C 
HETATM    7  C10 UNL     1      20.488   2.218  52.261  1.00  0.00     0.116 A 
HETATM    8  C11 UNL     1      19.507   3.269  51.637  1.00  0.00     0.204 C 
HETATM    9  O2  UNL     1      19.029   3.093  50.390  1.00  0.00    -0.387 OA
HETATM   10  C12 UNL     1      17.945   2.176  50.143  1.00  0.00     0.184 C 
HETATM   11  C13 UNL     1      18.529   0.992  50.895  1.00  0.00     0.032 A 
HETATM   12  C14 UNL     1      18.540   0.048  51.843  1.00  0.00     0.002 A 
HETATM   13  C15 UNL     1      18.492  -1.051  52.837  1.00  0.00     0.016 A 
HETATM   14  C16 UNL     1      19.324  -0.040  53.084  1.00  0.00     0.027 A 
HETATM   15  C17 UNL     1      20.466   0.838  52.562  1.00  0.00     0.097 A 
HETATM   16  N3  UNL     1      19.458   1.360  52.013  1.00  0.00     0.000 N 
ENDROOT
BRANCH   7  17
HETATM   17  N2  UNL     1      21.337   2.222  50.831  1.00  0.00    -0.340 N 
HETATM   18  C5  UNL     1      21.018   1.331  49.474  1.00  0.00     0.036 A 
HETATM   19  C6  UNL     1      21.702   1.523  48.464  1.00  0.00     0.007 A 
HETATM   20  C7  UNL     1      22.777   2.548  48.474  1.00  0.00     0.058 A 
HETATM   21  C8  UNL     1      22.963   3.255  49.727  1.00  0.00    -0.006 A 
HETATM   22  C9  UNL     1      22.417   3.264  50.927  1.00  0.00     0.089 A 
ENDBRANCH   7  17
TORSDOF 2
ENDMDL
