MODEL 1
REMARK VINA RESULT:      -6.6      0.000      0.000
REMARK  7 active torsions:
REMARK  status: ('A' for Active; 'I' for Inactive)
REMARK    1  A    between atoms: C2_2  and  C3_3 
REMARK    2  A    between atoms: C4_5  and  C5_6 
REMARK    3  A    between atoms: C5_6  and  C13_17 
REMARK    4  A    between atoms: C6_7  and  C7_8 
REMARK    5  A    between atoms: C10_13  and  C11_14 
REMARK    6  A    between atoms: C11_14  and  O1_15 
REMARK    7  A    between atoms: C13_17  and  O2_19 
ROOT
HETATM    1  C5  UNL     1      25.773   0.705  52.332  1.00  0.00    -0.003 C 
HETATM    2  C6  UNL     1      24.551   0.644  52.835  1.00  0.00     0.046 C 
ENDROOT
BRANCH   1   3
HETATM    3  C4  UNL     1      26.213   1.769  51.461  1.00  0.00     0.032 C 
HETATM    4  C3  UNL     1      25.663   2.646  50.646  1.00  0.00     0.008 C 
HETATM    5 BR1  UNL     1      23.801   2.889  50.261  1.00  0.00    -0.051 Br
BRANCH   4   6
HETATM    6  C2  UNL     1      26.688   3.525  49.992  1.00  0.00     0.010 C 
HETATM    7  C1  UNL     1      26.090   4.589  49.391  1.00  0.00     0.015 C 
ENDBRANCH   4   6
ENDBRANCH   1   3
BRANCH   1   8
HETATM    8  C13 UNL     1      26.487  -0.413  52.882  1.00  0.00     0.056 C 
HETATM    9  C14 UNL     1      26.665  -1.604  52.357  1.00  0.00     0.072 C 
BRANCH   8  10
HETATM   10  O2  UNL     1      27.221  -0.869  53.944  1.00  0.00    -0.359 OA
HETATM   11  C15 UNL     1      27.996   0.082  54.679  1.00  0.00     0.209 C 
ENDBRANCH   8  10
ENDBRANCH   1   8
BRANCH   2  12
HETATM   12  C7  UNL     1      23.799  -0.228  53.695  1.00  0.00     0.069 A 
HETATM   13  N1  UNL     1      24.301  -0.678  54.856  1.00  0.00    -0.242 NA
HETATM   14  C8  UNL     1      23.654  -1.473  55.717  1.00  0.00     0.233 A 
HETATM   15  N2  UNL     1      22.423  -1.824  55.363  1.00  0.00    -0.253 NA
HETATM   16  C9  UNL     1      21.840  -1.426  54.232  1.00  0.00     0.129 A 
HETATM   17  C10 UNL     1      22.497  -0.608  53.338  1.00  0.00     0.012 A 
BRANCH  17  18
HETATM   18  C11 UNL     1      21.853  -0.166  52.093  1.00  0.00     0.209 C 
BRANCH  18  19
HETATM   19  O1  UNL     1      20.948   0.864  52.243  1.00  0.00    -0.391 OA
HETATM   20  C12 UNL     1      19.808   0.500  51.513  1.00  0.00     0.201 C 
ENDBRANCH  18  19
ENDBRANCH  17  18
ENDBRANCH   2  12
TORSDOF 7
ENDMDL
MODEL 2
REMARK VINA RESULT:      -6.5      3.020      4.890
REMARK  7 active torsions:
REMARK  status: ('A' for Active; 'I' for Inactive)
REMARK    1  A    between atoms: C2_2  and  C3_3 
REMARK    2  A    between atoms: C4_5  and  C5_6 
REMARK    3  A    between atoms: C5_6  and  C13_17 
REMARK    4  A    between atoms: C6_7  and  C7_8 
REMARK    5  A    between atoms: C10_13  and  C11_14 
REMARK    6  A    between atoms: C11_14  and  O1_15 
REMARK    7  A    between atoms: C13_17  and  O2_19 
ROOT
HETATM    1  C5  UNL     1      25.028   2.759  52.406  1.00  0.00    -0.003 C 
HETATM    2  C6  UNL     1      25.596   2.338  53.524  1.00  0.00     0.046 C 
ENDROOT
BRANCH   1   3
HETATM    3  C4  UNL     1      23.694   3.307  52.359  1.00  0.00     0.032 C 
HETATM    4  C3  UNL     1      22.507   2.938  51.920  1.00  0.00     0.008 C 
HETATM    5 BR1  UNL     1      22.029   1.290  51.067  1.00  0.00    -0.051 Br
BRANCH   4   6
HETATM    6  C2  UNL     1      21.465   3.989  52.167  1.00  0.00     0.010 C 
HETATM    7  C1  UNL     1      21.890   5.198  51.710  1.00  0.00     0.015 C 
ENDBRANCH   4   6
ENDBRANCH   1   3
BRANCH   1   8
HETATM    8  C13 UNL     1      26.016   2.605  51.374  1.00  0.00     0.056 C 
HETATM    9  C14 UNL     1      26.331   1.520  50.705  1.00  0.00     0.072 C 
BRANCH   8  10
HETATM   10  O2  UNL     1      26.973   3.238  50.628  1.00  0.00    -0.359 OA
HETATM   11  C15 UNL     1      26.540   4.039  49.525  1.00  0.00     0.209 C 
ENDBRANCH   8  10
ENDBRANCH   1   8
BRANCH   2  12
HETATM   12  C7  UNL     1      26.849   1.761  53.927  1.00  0.00     0.069 A 
HETATM   13  N1  UNL     1      27.976   2.488  53.977  1.00  0.00    -0.242 NA
HETATM   14  C8  UNL     1      29.172   2.027  54.362  1.00  0.00     0.233 A 
HETATM   15  N2  UNL     1      29.210   0.746  54.714  1.00  0.00    -0.253 NA
HETATM   16  C9  UNL     1      28.144  -0.053  54.697  1.00  0.00     0.129 A 
HETATM   17  C10 UNL     1      26.907   0.411  54.303  1.00  0.00     0.012 A 
BRANCH  17  18
HETATM   18  C11 UNL     1      25.731  -0.469  54.289  1.00  0.00     0.209 C 
BRANCH  18  19
HETATM   19  O1  UNL     1      25.409  -1.027  55.509  1.00  0.00    -0.391 OA
HETATM   20  C12 UNL     1      24.032  -1.281  55.480  1.00  0.00     0.201 C 
ENDBRANCH  18  19
ENDBRANCH  17  18
ENDBRANCH   2  12
TORSDOF 7
ENDMDL
MODEL 3
REMARK VINA RESULT:      -6.4      2.621      4.915
REMARK  7 active torsions:
REMARK  status: ('A' for Active; 'I' for Inactive)
REMARK    1  A    between atoms: C2_2  and  C3_3 
REMARK    2  A    between atoms: C4_5  and  C5_6 
REMARK    3  A    between atoms: C5_6  and  C13_17 
REMARK    4  A    between atoms: C6_7  and  C7_8 
REMARK    5  A    between atoms: C10_13  and  C11_14 
REMARK    6  A    between atoms: C11_14  and  O1_15 
REMARK    7  A    between atoms: C13_17  and  O2_19 
ROOT
HETATM    1  C5  UNL     1      24.274   1.036  52.959  1.00  0.00    -0.003 C 
HETATM    2  C6  UNL     1      25.539   0.777  52.671  1.00  0.00     0.046 C 
ENDROOT
BRANCH   1   3
HETATM    3  C4  UNL     1      23.615   2.263  52.580  1.00  0.00     0.032 C 
HETATM    4  C3  UNL     1      22.849   2.689  51.596  1.00  0.00     0.008 C 
HETATM    5 BR1  UNL     1      22.213   1.696  50.085  1.00  0.00    -0.051 Br
BRANCH   4   6
HETATM    6  C2  UNL     1      22.469   4.131  51.764  1.00  0.00     0.010 C 
HETATM    7  C1  UNL     1      23.334   4.756  52.608  1.00  0.00     0.015 C 
ENDBRANCH   4   6
ENDBRANCH   1   3
BRANCH   1   8
HETATM    8  C13 UNL     1      23.767  -0.136  53.617  1.00  0.00     0.056 C 
HETATM    9  C14 UNL     1      22.790  -0.927  53.235  1.00  0.00     0.072 C 
BRANCH   8  10
HETATM   10  O2  UNL     1      23.892  -0.961  54.703  1.00  0.00    -0.359 OA
HETATM   11  C15 UNL     1      22.695  -1.442  55.320  1.00  0.00     0.209 C 
ENDBRANCH   8  10
ENDBRANCH   1   8
BRANCH   2  12
HETATM   12  C7  UNL     1      26.480  -0.289  52.881  1.00  0.00     0.069 A 
HETATM   13  N1  UNL     1      26.431  -1.423  52.165  1.00  0.00    -0.242 NA
HETATM   14  C8  UNL     1      27.283  -2.447  52.289  1.00  0.00     0.233 A 
HETATM   15  N2  UNL     1      28.238  -2.296  53.200  1.00  0.00    -0.253 NA
HETATM   16  C9  UNL     1      28.365  -1.207  53.958  1.00  0.00     0.129 A 
HETATM   17  C10 UNL     1      27.494  -0.146  53.840  1.00  0.00     0.012 A 
BRANCH  17  18
HETATM   18  C11 UNL     1      27.638   1.057  54.671  1.00  0.00     0.209 C 
BRANCH  18  19
HETATM   19  O1  UNL     1      28.867   1.677  54.586  1.00  0.00    -0.391 OA
HETATM   20  C12 UNL     1      28.783   2.581  53.519  1.00  0.00     0.201 C 
ENDBRANCH  18  19
ENDBRANCH  17  18
ENDBRANCH   2  12
TORSDOF 7
ENDMDL
MODEL 4
REMARK VINA RESULT:      -6.4      3.071      4.848
REMARK  7 active torsions:
REMARK  status: ('A' for Active; 'I' for Inactive)
REMARK    1  A    between atoms: C2_2  and  C3_3 
REMARK    2  A    between atoms: C4_5  and  C5_6 
REMARK    3  A    between atoms: C5_6  and  C13_17 
REMARK    4  A    between atoms: C6_7  and  C7_8 
REMARK    5  A    between atoms: C10_13  and  C11_14 
REMARK    6  A    between atoms: C11_14  and  O1_15 
REMARK    7  A    between atoms: C13_17  and  O2_19 
ROOT
HETATM    1  C5  UNL     1      26.139   2.224  52.211  1.00  0.00    -0.003 C 
HETATM    2  C6  UNL     1      25.013   2.363  52.892  1.00  0.00     0.046 C 
ENDROOT
BRANCH   1   3
HETATM    3  C4  UNL     1      27.320   1.604  52.761  1.00  0.00     0.032 C 
HETATM    4  C3  UNL     1      27.737   0.384  53.038  1.00  0.00     0.008 C 
HETATM    5 BR1  UNL     1      26.806  -1.268  52.762  1.00  0.00    -0.051 Br
BRANCH   4   6
HETATM    6  C2  UNL     1      29.117   0.382  53.627  1.00  0.00     0.010 C 
HETATM    7  C1  UNL     1      29.696  -0.840  53.480  1.00  0.00     0.015 C 
ENDBRANCH   4   6
ENDBRANCH   1   3
BRANCH   1   8
HETATM    8  C13 UNL     1      25.874   2.737  50.895  1.00  0.00     0.056 C 
HETATM    9  C14 UNL     1      26.675   3.425  50.114  1.00  0.00     0.072 C 
BRANCH   8  10
HETATM   10  O2  UNL     1      24.950   2.836  49.890  1.00  0.00    -0.359 OA
HETATM   11  C15 UNL     1      24.721   4.126  49.317  1.00  0.00     0.209 C 
ENDBRANCH   8  10
ENDBRANCH   1   8
BRANCH   2  12
HETATM   12  C7  UNL     1      23.700   2.905  52.675  1.00  0.00     0.069 A 
HETATM   13  N1  UNL     1      23.475   4.228  52.676  1.00  0.00    -0.242 NA
HETATM   14  C8  UNL     1      22.287   4.806  52.461  1.00  0.00     0.233 A 
HETATM   15  N2  UNL     1      21.275   3.976  52.232  1.00  0.00    -0.253 NA
HETATM   16  C9  UNL     1      21.402   2.649  52.211  1.00  0.00     0.129 A 
HETATM   17  C10 UNL     1      22.620   2.043  52.432  1.00  0.00     0.012 A 
BRANCH  17  18
HETATM   18  C11 UNL     1      22.761   0.581  52.403  1.00  0.00     0.209 C 
BRANCH  18  19
HETATM   19  O1  UNL     1      22.079  -0.087  53.399  1.00  0.00    -0.391 OA
HETATM   20  C12 UNL     1      23.045  -0.766  54.155  1.00  0.00     0.201 C 
ENDBRANCH  18  19
ENDBRANCH  17  18
ENDBRANCH   2  12
TORSDOF 7
ENDMDL
MODEL 5
REMARK VINA RESULT:      -6.4      2.711      4.454
REMARK  7 active torsions:
REMARK  status: ('A' for Active; 'I' for Inactive)
REMARK    1  A    between atoms: C2_2  and  C3_3 
REMARK    2  A    between atoms: C4_5  and  C5_6 
REMARK    3  A    between atoms: C5_6  and  C13_17 
REMARK    4  A    between atoms: C6_7  and  C7_8 
REMARK    5  A    between atoms: C10_13  and  C11_14 
REMARK    6  A    between atoms: C11_14  and  O1_15 
REMARK    7  A    between atoms: C13_17  and  O2_19 
ROOT
HETATM    1  C5  UNL     1      24.795   0.560  52.748  1.00  0.00    -0.003 C 
HETATM    2  C6  UNL     1      23.671  -0.130  52.653  1.00  0.00     0.046 C 
ENDROOT
BRANCH   1   3
HETATM    3  C4  UNL     1      26.078  -0.055  52.993  1.00  0.00     0.032 C 
HETATM    4  C3  UNL     1      27.316   0.338  53.216  1.00  0.00     0.008 C 
HETATM    5 BR1  UNL     1      27.977   2.133  53.333  1.00  0.00    -0.051 Br
BRANCH   4   6
HETATM    6  C2  UNL     1      28.250  -0.823  53.398  1.00  0.00     0.010 C 
HETATM    7  C1  UNL     1      29.527  -0.385  53.562  1.00  0.00     0.015 C 
ENDBRANCH   4   6
ENDBRANCH   1   3
BRANCH   1   8
HETATM    8  C13 UNL     1      24.444   1.931  52.497  1.00  0.00     0.056 C 
HETATM    9  C14 UNL     1      24.663   2.643  51.416  1.00  0.00     0.072 C 
BRANCH   8  10
HETATM   10  O2  UNL     1      23.851   3.053  53.010  1.00  0.00    -0.359 OA
HETATM   11  C15 UNL     1      22.982   3.800  52.157  1.00  0.00     0.209 C 
ENDBRANCH   8  10
ENDBRANCH   1   8
BRANCH   2  12
HETATM   12  C7  UNL     1      22.277   0.136  52.427  1.00  0.00     0.069 A 
HETATM   13  N1  UNL     1      21.801   0.405  51.201  1.00  0.00    -0.242 NA
HETATM   14  C8  UNL     1      20.516   0.641  50.910  1.00  0.00     0.233 A 
HETATM   15  N2  UNL     1      19.675   0.598  51.938  1.00  0.00    -0.253 NA
HETATM   16  C9  UNL     1      20.055   0.339  53.189  1.00  0.00     0.129 A 
HETATM   17  C10 UNL     1      21.375   0.094  53.500  1.00  0.00     0.012 A 
BRANCH  17  18
HETATM   18  C11 UNL     1      21.793  -0.196  54.878  1.00  0.00     0.209 C 
BRANCH  18  19
HETATM   19  O1  UNL     1      21.999  -1.533  55.152  1.00  0.00    -0.391 OA
HETATM   20  C12 UNL     1      23.280  -1.631  55.713  1.00  0.00     0.201 C 
ENDBRANCH  18  19
ENDBRANCH  17  18
ENDBRANCH   2  12
TORSDOF 7
ENDMDL
MODEL 6
REMARK VINA RESULT:      -6.3      2.590      4.786
REMARK  7 active torsions:
REMARK  status: ('A' for Active; 'I' for Inactive)
REMARK    1  A    between atoms: C2_2  and  C3_3 
REMARK    2  A    between atoms: C4_5  and  C5_6 
REMARK    3  A    between atoms: C5_6  and  C13_17 
REMARK    4  A    between atoms: C6_7  and  C7_8 
REMARK    5  A    between atoms: C10_13  and  C11_14 
REMARK    6  A    between atoms: C11_14  and  O1_15 
REMARK    7  A    between atoms: C13_17  and  O2_19 
ROOT
HETATM    1  C5  UNL     1      24.341   3.746  50.848  1.00  0.00    -0.003 C 
HETATM    2  C6  UNL     1      24.173   2.434  50.811  1.00  0.00     0.046 C 
ENDROOT
BRANCH   1   3
HETATM    3  C4  UNL     1      25.283   4.443  50.005  1.00  0.00     0.032 C 
HETATM    4  C3  UNL     1      25.605   5.692  49.735  1.00  0.00     0.008 C 
HETATM    5 BR1  UNL     1      24.849   7.289  50.479  1.00  0.00    -0.051 Br
BRANCH   4   6
HETATM    6  C2  UNL     1      26.711   5.782  48.724  1.00  0.00     0.010 C 
HETATM    7  C1  UNL     1      27.485   4.663  48.764  1.00  0.00     0.015 C 
ENDBRANCH   4   6
ENDBRANCH   1   3
BRANCH   1   8
HETATM    8  C13 UNL     1      23.387   4.244  51.800  1.00  0.00     0.056 C 
HETATM    9  C14 UNL     1      23.599   4.636  53.036  1.00  0.00     0.072 C 
BRANCH   8  10
HETATM   10  O2  UNL     1      22.072   4.553  52.020  1.00  0.00    -0.359 OA
HETATM   11  C15 UNL     1      21.262   4.875  50.887  1.00  0.00     0.209 C 
ENDBRANCH   8  10
ENDBRANCH   1   8
BRANCH   2  12
HETATM   12  C7  UNL     1      23.365   1.448  51.474  1.00  0.00     0.069 A 
HETATM   13  N1  UNL     1      22.135   1.135  51.037  1.00  0.00    -0.242 NA
HETATM   14  C8  UNL     1      21.335   0.214  51.588  1.00  0.00     0.233 A 
HETATM   15  N2  UNL     1      21.828  -0.418  52.647  1.00  0.00    -0.253 NA
HETATM   16  C9  UNL     1      23.037  -0.176  53.152  1.00  0.00     0.129 A 
HETATM   17  C10 UNL     1      23.870   0.770  52.593  1.00  0.00     0.012 A 
BRANCH  17  18
HETATM   18  C11 UNL     1      25.205   1.034  53.147  1.00  0.00     0.209 C 
BRANCH  18  19
HETATM   19  O1  UNL     1      25.974  -0.090  53.366  1.00  0.00    -0.391 OA
HETATM   20  C12 UNL     1      26.707  -0.306  52.191  1.00  0.00     0.201 C 
ENDBRANCH  18  19
ENDBRANCH  17  18
ENDBRANCH   2  12
TORSDOF 7
ENDMDL
MODEL 7
REMARK VINA RESULT:      -6.2      1.862      4.324
REMARK  7 active torsions:
REMARK  status: ('A' for Active; 'I' for Inactive)
REMARK    1  A    between atoms: C2_2  and  C3_3 
REMARK    2  A    between atoms: C4_5  and  C5_6 
REMARK    3  A    between atoms: C5_6  and  C13_17 
REMARK    4  A    between atoms: C6_7  and  C7_8 
REMARK    5  A    between atoms: C10_13  and  C11_14 
REMARK    6  A    between atoms: C11_14  and  O1_15 
REMARK    7  A    between atoms: C13_17  and  O2_19 
ROOT
HETATM    1  C5  UNL     1      23.108   2.200  51.256  1.00  0.00    -0.003 C 
HETATM    2  C6  UNL     1      23.390   1.615  52.409  1.00  0.00     0.046 C 
ENDROOT
BRANCH   1   3
HETATM    3  C4  UNL     1      24.020   3.094  50.583  1.00  0.00     0.032 C 
HETATM    4  C3  UNL     1      25.322   3.283  50.517  1.00  0.00     0.008 C 
HETATM    5 BR1  UNL     1      26.702   2.290  51.402  1.00  0.00    -0.051 Br
BRANCH   4   6
HETATM    6  C2  UNL     1      25.679   4.425  49.610  1.00  0.00     0.010 C 
HETATM    7  C1  UNL     1      26.950   4.284  49.144  1.00  0.00     0.015 C 
ENDBRANCH   4   6
ENDBRANCH   1   3
BRANCH   1   8
HETATM    8  C13 UNL     1      21.819   1.702  50.861  1.00  0.00     0.056 C 
HETATM    9  C14 UNL     1      21.544   0.663  50.107  1.00  0.00     0.072 C 
BRANCH   8  10
HETATM   10  O2  UNL     1      20.465   1.883  50.956  1.00  0.00    -0.359 OA
HETATM   11  C15 UNL     1      19.989   3.166  51.368  1.00  0.00     0.209 C 
ENDBRANCH   8  10
ENDBRANCH   1   8
BRANCH   2  12
HETATM   12  C7  UNL     1      22.753   0.709  53.324  1.00  0.00     0.069 A 
HETATM   13  N1  UNL     1      21.480   0.879  53.713  1.00  0.00    -0.242 NA
HETATM   14  C8  UNL     1      20.814   0.068  54.544  1.00  0.00     0.233 A 
HETATM   15  N2  UNL     1      21.498  -0.977  54.999  1.00  0.00    -0.253 NA
HETATM   16  C9  UNL     1      22.764  -1.228  54.669  1.00  0.00     0.129 A 
HETATM   17  C10 UNL     1      23.460  -0.399  53.815  1.00  0.00     0.012 A 
BRANCH  17  18
HETATM   18  C11 UNL     1      24.854  -0.679  53.447  1.00  0.00     0.209 C 
BRANCH  18  19
HETATM   19  O1  UNL     1      25.686  -0.972  54.507  1.00  0.00    -0.391 OA
HETATM   20  C12 UNL     1      26.494   0.156  54.702  1.00  0.00     0.201 C 
ENDBRANCH  18  19
ENDBRANCH  17  18
ENDBRANCH   2  12
TORSDOF 7
ENDMDL
MODEL 8
REMARK VINA RESULT:      -6.2      3.293      6.645
REMARK  7 active torsions:
REMARK  status: ('A' for Active; 'I' for Inactive)
REMARK    1  A    between atoms: C2_2  and  C3_3 
REMARK    2  A    between atoms: C4_5  and  C5_6 
REMARK    3  A    between atoms: C5_6  and  C13_17 
REMARK    4  A    between atoms: C6_7  and  C7_8 
REMARK    5  A    between atoms: C10_13  and  C11_14 
REMARK    6  A    between atoms: C11_14  and  O1_15 
REMARK    7  A    between atoms: C13_17  and  O2_19 
ROOT
HETATM    1  C5  UNL     1      22.740   1.334  52.286  1.00  0.00    -0.003 C 
HETATM    2  C6  UNL     1      23.454   2.431  52.478  1.00  0.00     0.046 C 
ENDROOT
BRANCH   1   3
HETATM    3  C4  UNL     1      22.575   0.316  53.296  1.00  0.00     0.032 C 
HETATM    4  C3  UNL     1      23.347  -0.487  54.000  1.00  0.00     0.008 C 
HETATM    5 BR1  UNL     1      25.259  -0.617  53.957  1.00  0.00    -0.051 Br
BRANCH   4   6
HETATM    6  C2  UNL     1      22.553  -1.361  54.927  1.00  0.00     0.010 C 
HETATM    7  C1  UNL     1      21.253  -1.419  54.529  1.00  0.00     0.015 C 
ENDBRANCH   4   6
ENDBRANCH   1   3
BRANCH   1   8
HETATM    8  C13 UNL     1      22.177   1.449  50.970  1.00  0.00     0.056 C 
HETATM    9  C14 UNL     1      20.920   1.630  50.635  1.00  0.00     0.072 C 
BRANCH   8  10
HETATM   10  O2  UNL     1      22.444   1.455  49.627  1.00  0.00    -0.359 OA
HETATM   11  C15 UNL     1      21.877   2.503  48.836  1.00  0.00     0.209 C 
ENDBRANCH   8  10
ENDBRANCH   1   8
BRANCH   2  12
HETATM   12  C7  UNL     1      23.820   3.604  51.732  1.00  0.00     0.069 A 
HETATM   13  N1  UNL     1      23.050   4.703  51.725  1.00  0.00    -0.242 NA
HETATM   14  C8  UNL     1      23.335   5.837  51.074  1.00  0.00     0.233 A 
HETATM   15  N2  UNL     1      24.475   5.839  50.393  1.00  0.00    -0.253 NA
HETATM   16  C9  UNL     1      25.304   4.797  50.342  1.00  0.00     0.129 A 
HETATM   17  C10 UNL     1      25.021   3.624  51.008  1.00  0.00     0.012 A 
BRANCH  17  18
HETATM   18  C11 UNL     1      25.937   2.476  50.956  1.00  0.00     0.209 C 
BRANCH  18  19
HETATM   19  O1  UNL     1      27.237   2.755  51.322  1.00  0.00    -0.391 OA
HETATM   20  C12 UNL     1      27.428   2.174  52.583  1.00  0.00     0.201 C 
ENDBRANCH  18  19
ENDBRANCH  17  18
ENDBRANCH   2  12
TORSDOF 7
ENDMDL
MODEL 9
REMARK VINA RESULT:      -6.2      3.222      5.602
REMARK  7 active torsions:
REMARK  status: ('A' for Active; 'I' for Inactive)
REMARK    1  A    between atoms: C2_2  and  C3_3 
REMARK    2  A    between atoms: C4_5  and  C5_6 
REMARK    3  A    between atoms: C5_6  and  C13_17 
REMARK    4  A    between atoms: C6_7  and  C7_8 
REMARK    5  A    between atoms: C10_13  and  C11_14 
REMARK    6  A    between atoms: C11_14  and  O1_15 
REMARK    7  A    between atoms: C13_17  and  O2_19 
ROOT
HETATM    1  C5  UNL     1      24.256   1.208  52.956  1.00  0.00    -0.003 C 
HETATM    2  C6  UNL     1      23.992   2.009  51.936  1.00  0.00     0.046 C 
ENDROOT
BRANCH   1   3
HETATM    3  C4  UNL     1      23.301   0.262  53.481  1.00  0.00     0.032 C 
HETATM    4  C3  UNL     1      21.991   0.154  53.571  1.00  0.00     0.008 C 
HETATM    5 BR1  UNL     1      20.663   1.380  52.934  1.00  0.00    -0.051 Br
BRANCH   4   6
HETATM    6  C2  UNL     1      21.578  -1.114  54.259  1.00  0.00     0.010 C 
HETATM    7  C1  UNL     1      22.539  -1.517  55.134  1.00  0.00     0.015 C 
ENDBRANCH   4   6
ENDBRANCH   1   3
BRANCH   1   8
HETATM    8  C13 UNL     1      25.625   1.457  53.314  1.00  0.00     0.056 C 
HETATM    9  C14 UNL     1      26.672   0.689  53.113  1.00  0.00     0.072 C 
BRANCH   8  10
HETATM   10  O2  UNL     1      26.494   2.340  53.898  1.00  0.00    -0.359 OA
HETATM   11  C15 UNL     1      27.870   2.276  53.517  1.00  0.00     0.209 C 
ENDBRANCH   8  10
ENDBRANCH   1   8
BRANCH   2  12
HETATM   12  C7  UNL     1      24.670   3.028  51.183  1.00  0.00     0.069 A 
HETATM   13  N1  UNL     1      25.671   2.733  50.339  1.00  0.00    -0.242 NA
HETATM   14  C8  UNL     1      26.333   3.623  49.590  1.00  0.00     0.233 A 
HETATM   15  N2  UNL     1      25.943   4.887  49.717  1.00  0.00    -0.253 NA
HETATM   16  C9  UNL     1      24.959   5.275  50.528  1.00  0.00     0.129 A 
HETATM   17  C10 UNL     1      24.270   4.367  51.304  1.00  0.00     0.012 A 
BRANCH  17  18
HETATM   18  C11 UNL     1      23.182   4.794  52.194  1.00  0.00     0.209 C 
BRANCH  18  19
HETATM   19  O1  UNL     1      22.242   5.616  51.608  1.00  0.00    -0.391 OA
HETATM   20  C12 UNL     1      21.189   4.786  51.200  1.00  0.00     0.201 C 
ENDBRANCH  18  19
ENDBRANCH  17  18
ENDBRANCH   2  12
TORSDOF 7
ENDMDL
