MODEL 1
REMARK VINA RESULT:      -9.2      0.000      0.000
REMARK  7 active torsions:
REMARK  status: ('A' for Active; 'I' for Inactive)
REMARK    1  A    between atoms: C1_2  and  C2_3 
REMARK       I    between atoms: C1_2  and  N2_10 
REMARK    2  A    between atoms: N2_10  and  C8_11 
REMARK    3  A    between atoms: N2_10  and  C15_19 
REMARK    4  A    between atoms: C8_11  and  C9_12 
REMARK    5  A    between atoms: C12_15  and  O2_16 
REMARK    6  A    between atoms: C15_19  and  C16_20 
REMARK    7  A    between atoms: C21_26  and  O3_27 
ROOT
HETATM    1  O1  UNL     1      23.390   1.520  50.996  1.00  0.00    -0.268 OA
HETATM    2  C1  UNL     1      24.149   1.355  52.015  1.00  0.00     0.252 C 
HETATM    3  N2  UNL     1      25.387   1.765  51.539  1.00  0.00    -0.340 N 
ENDROOT
BRANCH   3   4
HETATM    4  C8  UNL     1      26.558   1.812  52.410  1.00  0.00     0.165 C 
BRANCH   4   5
HETATM    5  C9  UNL     1      27.155   0.492  52.671  1.00  0.00    -0.040 A 
HETATM    6  C10 UNL     1      26.565  -0.670  52.220  1.00  0.00     0.011 A 
HETATM    7  C11 UNL     1      27.042  -1.948  52.408  1.00  0.00     0.037 A 
HETATM    8  C12 UNL     1      28.230  -2.116  53.118  1.00  0.00     0.065 A 
HETATM    9  C13 UNL     1      28.849  -0.980  53.586  1.00  0.00     0.037 A 
HETATM   10  C14 UNL     1      28.326   0.275  53.367  1.00  0.00     0.011 A 
BRANCH   8  11
HETATM   11  O2  UNL     1      28.773  -3.348  53.351  1.00  0.00    -0.361 OA
HETATM   12  H11 UNL     1      29.367  -3.848  52.709  1.00  0.00     0.217 HD
ENDBRANCH   8  11
ENDBRANCH   4   5
ENDBRANCH   3   4
BRANCH   3  13
HETATM   13  C15 UNL     1      25.748   2.153  50.183  1.00  0.00     0.167 C 
BRANCH  13  14
HETATM   14  C16 UNL     1      25.844   3.603  49.954  1.00  0.00    -0.005 A 
HETATM   15  C17 UNL     1      26.948   3.962  49.161  1.00  0.00     0.012 A 
HETATM   16  C18 UNL     1      27.265   5.250  48.796  1.00  0.00     0.002 A 
HETATM   17  C19 UNL     1      26.477   6.301  49.208  1.00  0.00     0.026 A 
HETATM   18  C20 UNL     1      25.385   5.994  49.988  1.00  0.00     0.067 A 
HETATM   19 CL1  UNL     1      24.334   7.260  50.556  1.00  0.00    -0.081 Cl
HETATM   20  C21 UNL     1      25.118   4.702  50.321  1.00  0.00     0.095 A 
BRANCH  20  21
HETATM   21  O3  UNL     1      24.016   4.448  51.104  1.00  0.00    -0.358 OA
HETATM   22  H19 UNL     1      23.130   4.875  50.867  1.00  0.00     0.217 HD
ENDBRANCH  20  21
ENDBRANCH  13  14
ENDBRANCH   3  13
BRANCH   2  23
HETATM   23  C2  UNL     1      23.123   0.860  52.893  1.00  0.00     0.029 C 
HETATM   24  C3  UNL     1      23.542  -0.180  53.640  1.00  0.00     0.014 C 
HETATM   25  C4  UNL     1      22.824  -0.986  54.659  1.00  0.00     0.002 C 
HETATM   26  C5  UNL     1      21.490  -1.194  54.602  1.00  0.00     0.019 C 
HETATM   27  C6  UNL     1      20.494  -0.726  53.612  1.00  0.00     0.110 C 
HETATM   28  N1  UNL     1      20.719   0.393  53.007  1.00  0.00    -0.297 NA
HETATM   29  C7  UNL     1      21.739   1.383  53.025  1.00  0.00     0.192 C 
ENDBRANCH   2  23
TORSDOF 7
ENDMDL
MODEL 2
REMARK VINA RESULT:      -8.9      2.315      5.361
REMARK  7 active torsions:
REMARK  status: ('A' for Active; 'I' for Inactive)
REMARK    1  A    between atoms: C1_2  and  C2_3 
REMARK       I    between atoms: C1_2  and  N2_10 
REMARK    2  A    between atoms: N2_10  and  C8_11 
REMARK    3  A    between atoms: N2_10  and  C15_19 
REMARK    4  A    between atoms: C8_11  and  C9_12 
REMARK    5  A    between atoms: C12_15  and  O2_16 
REMARK    6  A    between atoms: C15_19  and  C16_20 
REMARK    7  A    between atoms: C21_26  and  O3_27 
ROOT
HETATM    1  O1  UNL     1      26.359   2.444  54.115  1.00  0.00    -0.268 OA
HETATM    2  C1  UNL     1      25.891   1.496  53.391  1.00  0.00     0.252 C 
HETATM    3  N2  UNL     1      24.737   2.061  52.864  1.00  0.00    -0.340 N 
ENDROOT
BRANCH   3   4
HETATM    4  C8  UNL     1      23.908   1.339  51.902  1.00  0.00     0.165 C 
BRANCH   4   5
HETATM    5  C9  UNL     1      22.835   0.546  52.523  1.00  0.00    -0.040 A 
HETATM    6  C10 UNL     1      21.504   0.853  52.330  1.00  0.00     0.011 A 
HETATM    7  C11 UNL     1      20.430   0.176  52.861  1.00  0.00     0.037 A 
HETATM    8  C12 UNL     1      20.677  -0.928  53.676  1.00  0.00     0.065 A 
HETATM    9  C13 UNL     1      21.992  -1.267  53.894  1.00  0.00     0.037 A 
HETATM   10  C14 UNL     1      23.029  -0.552  53.335  1.00  0.00     0.011 A 
BRANCH   8  11
HETATM   11  O2  UNL     1      19.670  -1.656  54.244  1.00  0.00    -0.361 OA
HETATM   12  H11 UNL     1      19.771  -2.248  55.053  1.00  0.00     0.217 HD
ENDBRANCH   8  11
ENDBRANCH   4   5
ENDBRANCH   3   4
BRANCH   3  13
HETATM   13  C15 UNL     1      24.144   3.356  53.172  1.00  0.00     0.167 C 
BRANCH  13  14
HETATM   14  C16 UNL     1      23.772   4.164  52.001  1.00  0.00    -0.005 A 
HETATM   15  C17 UNL     1      22.409   4.508  51.984  1.00  0.00     0.012 A 
HETATM   16  C18 UNL     1      21.803   5.260  51.004  1.00  0.00     0.002 A 
HETATM   17  C19 UNL     1      22.539   5.737  49.942  1.00  0.00     0.026 A 
HETATM   18  C20 UNL     1      23.879   5.423  49.920  1.00  0.00     0.067 A 
HETATM   19 CL1  UNL     1      24.886   5.983  48.616  1.00  0.00    -0.081 Cl
HETATM   20  C21 UNL     1      24.427   4.674  50.915  1.00  0.00     0.095 A 
BRANCH  20  21
HETATM   21  O3  UNL     1      25.770   4.386  50.846  1.00  0.00    -0.358 OA
HETATM   22  H19 UNL     1      26.358   4.912  50.212  1.00  0.00     0.217 HD
ENDBRANCH  20  21
ENDBRANCH  13  14
ENDBRANCH   3  13
BRANCH   2  23
HETATM   23  C2  UNL     1      26.935   0.551  53.680  1.00  0.00     0.029 C 
HETATM   24  C3  UNL     1      28.159   1.114  53.664  1.00  0.00     0.014 C 
HETATM   25  C4  UNL     1      29.497   0.518  53.901  1.00  0.00     0.002 C 
HETATM   26  C5  UNL     1      29.773  -0.772  53.605  1.00  0.00     0.019 C 
HETATM   27  C6  UNL     1      28.905  -1.823  53.026  1.00  0.00     0.110 C 
HETATM   28  N1  UNL     1      27.636  -1.761  53.260  1.00  0.00    -0.297 NA
HETATM   29  C7  UNL     1      26.766  -0.895  53.977  1.00  0.00     0.192 C 
ENDBRANCH   2  23
TORSDOF 7
ENDMDL
MODEL 3
REMARK VINA RESULT:      -8.8      2.897      6.715
REMARK  7 active torsions:
REMARK  status: ('A' for Active; 'I' for Inactive)
REMARK    1  A    between atoms: C1_2  and  C2_3 
REMARK       I    between atoms: C1_2  and  N2_10 
REMARK    2  A    between atoms: N2_10  and  C8_11 
REMARK    3  A    between atoms: N2_10  and  C15_19 
REMARK    4  A    between atoms: C8_11  and  C9_12 
REMARK    5  A    between atoms: C12_15  and  O2_16 
REMARK    6  A    between atoms: C15_19  and  C16_20 
REMARK    7  A    between atoms: C21_26  and  O3_27 
ROOT
HETATM    1  O1  UNL     1      24.927   2.236  53.632  1.00  0.00    -0.268 OA
HETATM    2  C1  UNL     1      25.295   2.064  52.416  1.00  0.00     0.252 C 
HETATM    3  N2  UNL     1      24.202   2.538  51.702  1.00  0.00    -0.340 N 
ENDROOT
BRANCH   3   4
HETATM    4  C8  UNL     1      24.219   2.599  50.242  1.00  0.00     0.165 C 
BRANCH   4   5
HETATM    5  C9  UNL     1      25.128   3.623  49.703  1.00  0.00    -0.040 A 
HETATM    6  C10 UNL     1      24.681   4.885  49.371  1.00  0.00     0.011 A 
HETATM    7  C11 UNL     1      25.447   5.910  48.865  1.00  0.00     0.037 A 
HETATM    8  C12 UNL     1      26.806   5.682  48.655  1.00  0.00     0.065 A 
HETATM    9  C13 UNL     1      27.292   4.435  48.972  1.00  0.00     0.037 A 
HETATM   10  C14 UNL     1      26.477   3.446  49.477  1.00  0.00     0.011 A 
BRANCH   8  11
HETATM   11  O2  UNL     1      27.639   6.643  48.155  1.00  0.00    -0.361 OA
HETATM   12  H11 UNL     1      27.992   7.430  48.676  1.00  0.00     0.217 HD
ENDBRANCH   8  11
ENDBRANCH   4   5
ENDBRANCH   3   4
BRANCH   3  13
HETATM   13  C15 UNL     1      22.915   2.985  52.213  1.00  0.00     0.167 C 
BRANCH  13  14
HETATM   14  C16 UNL     1      21.872   1.949  52.268  1.00  0.00    -0.005 A 
HETATM   15  C17 UNL     1      20.836   2.163  51.342  1.00  0.00     0.012 A 
HETATM   16  C18 UNL     1      19.743   1.343  51.185  1.00  0.00     0.002 A 
HETATM   17  C19 UNL     1      19.605   0.216  51.965  1.00  0.00     0.026 A 
HETATM   18  C20 UNL     1      20.597  -0.031  52.886  1.00  0.00     0.067 A 
HETATM   19 CL1  UNL     1      20.504  -1.431  53.916  1.00  0.00    -0.081 Cl
HETATM   20  C21 UNL     1      21.657   0.815  53.001  1.00  0.00     0.095 A 
BRANCH  20  21
HETATM   21  O3  UNL     1      22.621   0.525  53.938  1.00  0.00    -0.358 OA
HETATM   22  H19 UNL     1      23.498   0.117  53.638  1.00  0.00     0.217 HD
ENDBRANCH  20  21
ENDBRANCH  13  14
ENDBRANCH   3  13
BRANCH   2  23
HETATM   23  C2  UNL     1      26.582   1.502  52.722  1.00  0.00     0.029 C 
HETATM   24  C3  UNL     1      26.584   0.155  52.659  1.00  0.00     0.014 C 
HETATM   25  C4  UNL     1      27.678  -0.819  52.897  1.00  0.00     0.002 C 
HETATM   26  C5  UNL     1      28.683  -0.573  53.766  1.00  0.00     0.019 C 
HETATM   27  C6  UNL     1      28.935   0.608  54.622  1.00  0.00     0.110 C 
HETATM   28  N1  UNL     1      28.514   1.758  54.210  1.00  0.00    -0.297 NA
HETATM   29  C7  UNL     1      27.818   2.248  53.072  1.00  0.00     0.192 C 
ENDBRANCH   2  23
TORSDOF 7
ENDMDL
MODEL 4
REMARK VINA RESULT:      -8.7      1.769      4.992
REMARK  7 active torsions:
REMARK  status: ('A' for Active; 'I' for Inactive)
REMARK    1  A    between atoms: C1_2  and  C2_3 
REMARK       I    between atoms: C1_2  and  N2_10 
REMARK    2  A    between atoms: N2_10  and  C8_11 
REMARK    3  A    between atoms: N2_10  and  C15_19 
REMARK    4  A    between atoms: C8_11  and  C9_12 
REMARK    5  A    between atoms: C12_15  and  O2_16 
REMARK    6  A    between atoms: C15_19  and  C16_20 
REMARK    7  A    between atoms: C21_26  and  O3_27 
ROOT
HETATM    1  O1  UNL     1      26.382   0.675  51.028  1.00  0.00    -0.268 OA
HETATM    2  C1  UNL     1      25.902   0.887  52.196  1.00  0.00     0.252 C 
HETATM    3  N2  UNL     1      24.776   1.652  51.924  1.00  0.00    -0.340 N 
ENDROOT
BRANCH   3   4
HETATM    4  C8  UNL     1      23.865   2.069  52.988  1.00  0.00     0.165 C 
BRANCH   4   5
HETATM    5  C9  UNL     1      22.790   1.101  53.259  1.00  0.00    -0.040 A 
HETATM    6  C10 UNL     1      23.050  -0.133  53.819  1.00  0.00     0.011 A 
HETATM    7  C11 UNL     1      22.119  -1.103  54.113  1.00  0.00     0.037 A 
HETATM    8  C12 UNL     1      20.779  -0.846  53.829  1.00  0.00     0.065 A 
HETATM    9  C13 UNL     1      20.477   0.374  53.269  1.00  0.00     0.037 A 
HETATM   10  C14 UNL     1      21.452   1.308  52.996  1.00  0.00     0.011 A 
BRANCH   8  11
HETATM   11  O2  UNL     1      19.791  -1.753  54.087  1.00  0.00    -0.361 OA
HETATM   12  H11 UNL     1      19.009  -1.944  53.481  1.00  0.00     0.217 HD
ENDBRANCH   8  11
ENDBRANCH   4   5
ENDBRANCH   3   4
BRANCH   3  13
HETATM   13  C15 UNL     1      24.337   2.189  50.643  1.00  0.00     0.167 C 
BRANCH  13  14
HETATM   14  C16 UNL     1      24.818   3.545  50.338  1.00  0.00    -0.005 A 
HETATM   15  C17 UNL     1      25.980   3.548  49.546  1.00  0.00     0.012 A 
HETATM   16  C18 UNL     1      26.632   4.682  49.117  1.00  0.00     0.002 A 
HETATM   17  C19 UNL     1      26.154   5.927  49.457  1.00  0.00     0.026 A 
HETATM   18  C20 UNL     1      25.017   5.969  50.233  1.00  0.00     0.067 A 
HETATM   19 CL1  UNL     1      24.342   7.500  50.712  1.00  0.00    -0.081 Cl
HETATM   20  C21 UNL     1      24.412   4.817  50.631  1.00  0.00     0.095 A 
BRANCH  20  21
HETATM   21  O3  UNL     1      23.281   4.912  51.407  1.00  0.00    -0.358 OA
HETATM   22  H19 UNL     1      22.735   5.764  51.385  1.00  0.00     0.217 HD
ENDBRANCH  20  21
ENDBRANCH  13  14
ENDBRANCH   3  13
BRANCH   2  23
HETATM   23  C2  UNL     1      26.912   0.159  52.914  1.00  0.00     0.029 C 
HETATM   24  C3  UNL     1      28.028   0.888  53.115  1.00  0.00     0.014 C 
HETATM   25  C4  UNL     1      29.299   0.537  53.797  1.00  0.00     0.002 C 
HETATM   26  C5  UNL     1      29.776  -0.727  53.823  1.00  0.00     0.019 C 
HETATM   27  C6  UNL     1      29.218  -1.968  53.239  1.00  0.00     0.110 C 
HETATM   28  N1  UNL     1      27.935  -2.060  53.120  1.00  0.00    -0.297 NA
HETATM   29  C7  UNL     1      26.815  -1.236  53.415  1.00  0.00     0.192 C 
ENDBRANCH   2  23
TORSDOF 7
ENDMDL
MODEL 5
REMARK VINA RESULT:      -8.6      2.733      5.707
REMARK  7 active torsions:
REMARK  status: ('A' for Active; 'I' for Inactive)
REMARK    1  A    between atoms: C1_2  and  C2_3 
REMARK       I    between atoms: C1_2  and  N2_10 
REMARK    2  A    between atoms: N2_10  and  C8_11 
REMARK    3  A    between atoms: N2_10  and  C15_19 
REMARK    4  A    between atoms: C8_11  and  C9_12 
REMARK    5  A    between atoms: C12_15  and  O2_16 
REMARK    6  A    between atoms: C15_19  and  C16_20 
REMARK    7  A    between atoms: C21_26  and  O3_27 
ROOT
HETATM    1  O1  UNL     1      24.927   2.953  53.460  1.00  0.00    -0.268 OA
HETATM    2  C1  UNL     1      24.694   1.909  52.756  1.00  0.00     0.252 C 
HETATM    3  N2  UNL     1      23.371   2.089  52.378  1.00  0.00    -0.340 N 
ENDROOT
BRANCH   3   4
HETATM    4  C8  UNL     1      22.701   1.147  51.484  1.00  0.00     0.165 C 
BRANCH   4   5
HETATM    5  C9  UNL     1      21.539   0.479  52.091  1.00  0.00    -0.040 A 
HETATM    6  C10 UNL     1      21.660  -0.291  53.230  1.00  0.00     0.011 A 
HETATM    7  C11 UNL     1      20.640  -0.953  53.875  1.00  0.00     0.037 A 
HETATM    8  C12 UNL     1      19.351  -0.855  53.353  1.00  0.00     0.065 A 
HETATM    9  C13 UNL     1      19.188  -0.097  52.217  1.00  0.00     0.037 A 
HETATM   10  C14 UNL     1      20.247   0.544  51.613  1.00  0.00     0.011 A 
BRANCH   8  11
HETATM   11  O2  UNL     1      18.281  -1.480  53.929  1.00  0.00    -0.361 OA
HETATM   12  H11 UNL     1      18.123  -2.475  53.927  1.00  0.00     0.217 HD
ENDBRANCH   8  11
ENDBRANCH   4   5
ENDBRANCH   3   4
BRANCH   3  13
HETATM   13  C15 UNL     1      22.447   3.135  52.795  1.00  0.00     0.167 C 
BRANCH  13  14
HETATM   14  C16 UNL     1      22.391   4.307  51.907  1.00  0.00    -0.005 A 
HETATM   15  C17 UNL     1      21.355   4.228  50.960  1.00  0.00     0.012 A 
HETATM   16  C18 UNL     1      21.082   5.191  50.016  1.00  0.00     0.002 A 
HETATM   17  C19 UNL     1      21.846   6.334  49.951  1.00  0.00     0.026 A 
HETATM   18  C20 UNL     1      22.872   6.452  50.861  1.00  0.00     0.067 A 
HETATM   19 CL1  UNL     1      23.891   7.863  50.852  1.00  0.00    -0.081 Cl
HETATM   20  C21 UNL     1      23.100   5.468  51.773  1.00  0.00     0.095 A 
BRANCH  20  21
HETATM   21  O3  UNL     1      24.139   5.632  52.659  1.00  0.00    -0.358 OA
HETATM   22  H19 UNL     1      24.060   5.249  53.593  1.00  0.00     0.217 HD
ENDBRANCH  20  21
ENDBRANCH  13  14
ENDBRANCH   3  13
BRANCH   2  23
HETATM   23  C2  UNL     1      26.004   1.333  52.895  1.00  0.00     0.029 C 
HETATM   24  C3  UNL     1      26.016   0.011  52.634  1.00  0.00     0.014 C 
HETATM   25  C4  UNL     1      27.134  -0.966  52.658  1.00  0.00     0.002 C 
HETATM   26  C5  UNL     1      28.190  -0.830  53.491  1.00  0.00     0.019 C 
HETATM   27  C6  UNL     1      28.483   0.217  54.495  1.00  0.00     0.110 C 
HETATM   28  N1  UNL     1      28.023   1.407  54.284  1.00  0.00    -0.297 NA
HETATM   29  C7  UNL     1      27.251   2.044  53.276  1.00  0.00     0.192 C 
ENDBRANCH   2  23
TORSDOF 7
ENDMDL
MODEL 6
REMARK VINA RESULT:      -8.5      2.649      6.845
REMARK  7 active torsions:
REMARK  status: ('A' for Active; 'I' for Inactive)
REMARK    1  A    between atoms: C1_2  and  C2_3 
REMARK       I    between atoms: C1_2  and  N2_10 
REMARK    2  A    between atoms: N2_10  and  C8_11 
REMARK    3  A    between atoms: N2_10  and  C15_19 
REMARK    4  A    between atoms: C8_11  and  C9_12 
REMARK    5  A    between atoms: C12_15  and  O2_16 
REMARK    6  A    between atoms: C15_19  and  C16_20 
REMARK    7  A    between atoms: C21_26  and  O3_27 
ROOT
HETATM    1  O1  UNL     1      26.608   2.153  50.506  1.00  0.00    -0.268 OA
HETATM    2  C1  UNL     1      25.623   2.773  51.041  1.00  0.00     0.252 C 
HETATM    3  N2  UNL     1      25.199   1.879  52.016  1.00  0.00    -0.340 N 
ENDROOT
BRANCH   3   4
HETATM    4  C8  UNL     1      24.116   2.217  52.936  1.00  0.00     0.165 C 
BRANCH   4   5
HETATM    5  C9  UNL     1      22.833   1.578  52.601  1.00  0.00    -0.040 A 
HETATM    6  C10 UNL     1      22.270   1.700  51.348  1.00  0.00     0.011 A 
HETATM    7  C11 UNL     1      21.081   1.143  50.934  1.00  0.00     0.037 A 
HETATM    8  C12 UNL     1      20.355   0.377  51.845  1.00  0.00     0.065 A 
HETATM    9  C13 UNL     1      20.883   0.231  53.107  1.00  0.00     0.037 A 
HETATM   10  C14 UNL     1      22.079   0.813  53.465  1.00  0.00     0.011 A 
BRANCH   8  11
HETATM   11  O2  UNL     1      19.166  -0.212  51.518  1.00  0.00    -0.361 OA
HETATM   12  H11 UNL     1      18.785  -0.267  50.588  1.00  0.00     0.217 HD
ENDBRANCH   8  11
ENDBRANCH   4   5
ENDBRANCH   3   4
BRANCH   3  13
HETATM   13  C15 UNL     1      25.673   0.525  52.267  1.00  0.00     0.167 C 
BRANCH  13  14
HETATM   14  C16 UNL     1      26.995   0.437  52.906  1.00  0.00    -0.005 A 
HETATM   15  C17 UNL     1      27.581  -0.835  52.781  1.00  0.00     0.012 A 
HETATM   16  C18 UNL     1      28.813  -1.183  53.285  1.00  0.00     0.002 A 
HETATM   17  C19 UNL     1      29.569  -0.257  53.968  1.00  0.00     0.026 A 
HETATM   18  C20 UNL     1      29.033   1.002  54.113  1.00  0.00     0.067 A 
HETATM   19 CL1  UNL     1      29.918   2.236  54.963  1.00  0.00    -0.081 Cl
HETATM   20  C21 UNL     1      27.808   1.293  53.596  1.00  0.00     0.095 A 
BRANCH  20  21
HETATM   21  O3  UNL     1      27.315   2.565  53.770  1.00  0.00    -0.358 OA
HETATM   22  H19 UNL     1      26.409   2.690  54.203  1.00  0.00     0.217 HD
ENDBRANCH  20  21
ENDBRANCH  13  14
ENDBRANCH   3  13
BRANCH   2  23
HETATM   23  C2  UNL     1      25.706   3.943  50.210  1.00  0.00     0.029 C 
HETATM   24  C3  UNL     1      26.879   4.026  49.553  1.00  0.00     0.014 C 
HETATM   25  C4  UNL     1      27.383   5.052  48.606  1.00  0.00     0.002 C 
HETATM   26  C5  UNL     1      27.006   6.348  48.683  1.00  0.00     0.019 C 
HETATM   27  C6  UNL     1      26.090   7.019  49.632  1.00  0.00     0.110 C 
HETATM   28  N1  UNL     1      25.126   6.324  50.140  1.00  0.00    -0.297 NA
HETATM   29  C7  UNL     1      24.662   4.985  50.037  1.00  0.00     0.192 C 
ENDBRANCH   2  23
TORSDOF 7
ENDMDL
MODEL 7
REMARK VINA RESULT:      -8.5      2.345      5.146
REMARK  7 active torsions:
REMARK  status: ('A' for Active; 'I' for Inactive)
REMARK    1  A    between atoms: C1_2  and  C2_3 
REMARK       I    between atoms: C1_2  and  N2_10 
REMARK    2  A    between atoms: N2_10  and  C8_11 
REMARK    3  A    between atoms: N2_10  and  C15_19 
REMARK    4  A    between atoms: C8_11  and  C9_12 
REMARK    5  A    between atoms: C12_15  and  O2_16 
REMARK    6  A    between atoms: C15_19  and  C16_20 
REMARK    7  A    between atoms: C21_26  and  O3_27 
ROOT
HETATM    1  O1  UNL     1      26.772   1.869  50.423  1.00  0.00    -0.268 OA
HETATM    2  C1  UNL     1      26.263   2.184  51.555  1.00  0.00     0.252 C 
HETATM    3  N2  UNL     1      25.114   2.872  51.188  1.00  0.00    -0.340 N 
ENDROOT
BRANCH   3   4
HETATM    4  C8  UNL     1      24.169   3.362  52.189  1.00  0.00     0.165 C 
BRANCH   4   5
HETATM    5  C9  UNL     1      23.106   2.400  52.519  1.00  0.00    -0.040 A 
HETATM    6  C10 UNL     1      23.389   1.172  53.082  1.00  0.00     0.011 A 
HETATM    7  C11 UNL     1      22.471   0.207  53.428  1.00  0.00     0.037 A 
HETATM    8  C12 UNL     1      21.119   0.464  53.202  1.00  0.00     0.065 A 
HETATM    9  C13 UNL     1      20.795   1.677  52.641  1.00  0.00     0.037 A 
HETATM   10  C14 UNL     1      21.758   2.607  52.314  1.00  0.00     0.011 A 
BRANCH   8  11
HETATM   11  O2  UNL     1      20.142  -0.438  53.515  1.00  0.00    -0.361 OA
HETATM   12  H11 UNL     1      20.243  -1.193  54.175  1.00  0.00     0.217 HD
ENDBRANCH   8  11
ENDBRANCH   4   5
ENDBRANCH   3   4
BRANCH   3  13
HETATM   13  C15 UNL     1      24.679   3.255  49.852  1.00  0.00     0.167 C 
BRANCH  13  14
HETATM   14  C16 UNL     1      25.161   4.566  49.391  1.00  0.00    -0.005 A 
HETATM   15  C17 UNL     1      24.118   5.473  49.132  1.00  0.00     0.012 A 
HETATM   16  C18 UNL     1      24.295   6.765  48.695  1.00  0.00     0.002 A 
HETATM   17  C19 UNL     1      25.563   7.257  48.481  1.00  0.00     0.026 A 
HETATM   18  C20 UNL     1      26.614   6.402  48.722  1.00  0.00     0.067 A 
HETATM   19 CL1  UNL     1      28.252   6.937  48.477  1.00  0.00    -0.081 Cl
HETATM   20  C21 UNL     1      26.383   5.131  49.153  1.00  0.00     0.095 A 
BRANCH  20  21
HETATM   21  O3  UNL     1      27.466   4.315  49.378  1.00  0.00    -0.358 OA
HETATM   22  H19 UNL     1      27.426   3.346  49.087  1.00  0.00     0.217 HD
ENDBRANCH  20  21
ENDBRANCH  13  14
ENDBRANCH   3  13
BRANCH   2  23
HETATM   23  C2  UNL     1      27.286   1.575  52.360  1.00  0.00     0.029 C 
HETATM   24  C3  UNL     1      27.194   0.230  52.380  1.00  0.00     0.014 C 
HETATM   25  C4  UNL     1      28.029  -0.783  53.073  1.00  0.00     0.002 C 
HETATM   26  C5  UNL     1      28.652  -0.522  54.244  1.00  0.00     0.019 C 
HETATM   27  C6  UNL     1      28.666   0.712  55.062  1.00  0.00     0.110 C 
HETATM   28  N1  UNL     1      28.533   1.845  54.454  1.00  0.00    -0.297 NA
HETATM   29  C7  UNL     1      28.360   2.275  53.111  1.00  0.00     0.192 C 
ENDBRANCH   2  23
TORSDOF 7
ENDMDL
MODEL 8
REMARK VINA RESULT:      -8.3      2.871      6.436
REMARK  7 active torsions:
REMARK  status: ('A' for Active; 'I' for Inactive)
REMARK    1  A    between atoms: C1_2  and  C2_3 
REMARK       I    between atoms: C1_2  and  N2_10 
REMARK    2  A    between atoms: N2_10  and  C8_11 
REMARK    3  A    between atoms: N2_10  and  C15_19 
REMARK    4  A    between atoms: C8_11  and  C9_12 
REMARK    5  A    between atoms: C12_15  and  O2_16 
REMARK    6  A    between atoms: C15_19  and  C16_20 
REMARK    7  A    between atoms: C21_26  and  O3_27 
ROOT
HETATM    1  O1  UNL     1      25.180   2.520  53.185  1.00  0.00    -0.268 OA
HETATM    2  C1  UNL     1      25.751   2.350  52.051  1.00  0.00     0.252 C 
HETATM    3  N2  UNL     1      24.846   2.925  51.169  1.00  0.00    -0.340 N 
ENDROOT
BRANCH   3   4
HETATM    4  C8  UNL     1      25.134   3.019  49.740  1.00  0.00     0.165 C 
BRANCH   4   5
HETATM    5  C9  UNL     1      25.858   4.244  49.362  1.00  0.00    -0.040 A 
HETATM    6  C10 UNL     1      27.182   4.213  48.978  1.00  0.00     0.011 A 
HETATM    7  C11 UNL     1      27.945   5.297  48.605  1.00  0.00     0.037 A 
HETATM    8  C12 UNL     1      27.352   6.558  48.606  1.00  0.00     0.065 A 
HETATM    9  C13 UNL     1      26.031   6.632  48.984  1.00  0.00     0.037 A 
HETATM   10  C14 UNL     1      25.316   5.512  49.347  1.00  0.00     0.011 A 
BRANCH   8  11
HETATM   11  O2  UNL     1      28.035   7.687  48.250  1.00  0.00    -0.361 OA
HETATM   12  H11 UNL     1      28.262   8.445  48.874  1.00  0.00     0.217 HD
ENDBRANCH   8  11
ENDBRANCH   4   5
ENDBRANCH   3   4
BRANCH   3  13
HETATM   13  C15 UNL     1      23.522   3.460  51.455  1.00  0.00     0.167 C 
BRANCH  13  14
HETATM   14  C16 UNL     1      22.412   2.770  50.781  1.00  0.00    -0.005 A 
HETATM   15  C17 UNL     1      22.209   1.463  51.257  1.00  0.00     0.012 A 
HETATM   16  C18 UNL     1      21.235   0.605  50.800  1.00  0.00     0.002 A 
HETATM   17  C19 UNL     1      20.370   1.005  49.806  1.00  0.00     0.026 A 
HETATM   18  C20 UNL     1      20.534   2.279  49.311  1.00  0.00     0.067 A 
HETATM   19 CL1  UNL     1      19.487   2.869  48.052  1.00  0.00    -0.081 Cl
HETATM   20  C21 UNL     1      21.515   3.087  49.799  1.00  0.00     0.095 A 
BRANCH  20  21
HETATM   21  O3  UNL     1      21.640   4.350  49.269  1.00  0.00    -0.358 OA
HETATM   22  H19 UNL     1      22.205   5.037  49.752  1.00  0.00     0.217 HD
ENDBRANCH  20  21
ENDBRANCH  13  14
ENDBRANCH   3  13
BRANCH   2  23
HETATM   23  C2  UNL     1      26.915   1.680  52.563  1.00  0.00     0.029 C 
HETATM   24  C3  UNL     1      26.848   0.342  52.413  1.00  0.00     0.014 C 
HETATM   25  C4  UNL     1      27.812  -0.720  52.794  1.00  0.00     0.002 C 
HETATM   26  C5  UNL     1      28.638  -0.594  53.856  1.00  0.00     0.019 C 
HETATM   27  C6  UNL     1      28.786   0.519  54.821  1.00  0.00     0.110 C 
HETATM   28  N1  UNL     1      28.526   1.717  54.412  1.00  0.00    -0.297 NA
HETATM   29  C7  UNL     1      28.100   2.315  53.195  1.00  0.00     0.192 C 
ENDBRANCH   2  23
TORSDOF 7
ENDMDL
MODEL 9
REMARK VINA RESULT:      -8.2      6.471     10.022
REMARK  7 active torsions:
REMARK  status: ('A' for Active; 'I' for Inactive)
REMARK    1  A    between atoms: C1_2  and  C2_3 
REMARK       I    between atoms: C1_2  and  N2_10 
REMARK    2  A    between atoms: N2_10  and  C8_11 
REMARK    3  A    between atoms: N2_10  and  C15_19 
REMARK    4  A    between atoms: C8_11  and  C9_12 
REMARK    5  A    between atoms: C12_15  and  O2_16 
REMARK    6  A    between atoms: C15_19  and  C16_20 
REMARK    7  A    between atoms: C21_26  and  O3_27 
ROOT
HETATM    1  O1  UNL     1      32.488   7.147  48.887  1.00  0.00    -0.268 OA
HETATM    2  C1  UNL     1      31.633   6.710  48.038  1.00  0.00     0.252 C 
HETATM    3  N2  UNL     1      30.535   7.528  48.269  1.00  0.00    -0.340 N 
ENDROOT
BRANCH   3   4
HETATM    4  C8  UNL     1      29.327   7.425  47.453  1.00  0.00     0.165 C 
BRANCH   4   5
HETATM    5  C9  UNL     1      28.266   6.611  48.067  1.00  0.00    -0.040 A 
HETATM    6  C10 UNL     1      27.057   7.161  48.440  1.00  0.00     0.011 A 
HETATM    7  C11 UNL     1      26.003   6.488  49.017  1.00  0.00     0.037 A 
HETATM    8  C12 UNL     1      26.140   5.123  49.261  1.00  0.00     0.065 A 
HETATM    9  C13 UNL     1      27.333   4.537  48.904  1.00  0.00     0.037 A 
HETATM   10  C14 UNL     1      28.354   5.260  48.329  1.00  0.00     0.011 A 
BRANCH   8  11
HETATM   11  O2  UNL     1      25.146   4.379  49.830  1.00  0.00    -0.361 OA
HETATM   12  H11 UNL     1      24.868   4.430  50.797  1.00  0.00     0.217 HD
ENDBRANCH   8  11
ENDBRANCH   4   5
ENDBRANCH   3   4
BRANCH   3  13
HETATM   13  C15 UNL     1      30.361   8.533  49.308  1.00  0.00     0.167 C 
BRANCH  13  14
HETATM   14  C16 UNL     1      30.157   9.906  48.819  1.00  0.00    -0.005 A 
HETATM   15  C17 UNL     1      31.219  10.367  48.021  1.00  0.00     0.012 A 
HETATM   16  C18 UNL     1      31.277  11.611  47.438  1.00  0.00     0.002 A 
HETATM   17  C19 UNL     1      30.248  12.509  47.614  1.00  0.00     0.026 A 
HETATM   18  C20 UNL     1      29.187  12.097  48.389  1.00  0.00     0.067 A 
HETATM   19 CL1  UNL     1      27.842  13.166  48.667  1.00  0.00    -0.081 Cl
HETATM   20  C21 UNL     1      29.181  10.855  48.944  1.00  0.00     0.095 A 
BRANCH  20  21
HETATM   21  O3  UNL     1      28.099  10.492  49.712  1.00  0.00    -0.358 OA
HETATM   22  H19 UNL     1      28.251   9.983  50.574  1.00  0.00     0.217 HD
ENDBRANCH  20  21
ENDBRANCH  13  14
ENDBRANCH   3  13
BRANCH   2  23
HETATM   23  C2  UNL     1      32.476   5.687  47.483  1.00  0.00     0.029 C 
HETATM   24  C3  UNL     1      31.805   4.544  47.238  1.00  0.00     0.014 C 
HETATM   25  C4  UNL     1      32.274   3.252  46.677  1.00  0.00     0.002 C 
HETATM   26  C5  UNL     1      33.539   2.808  46.855  1.00  0.00     0.019 C 
HETATM   27  C6  UNL     1      34.672   3.425  47.579  1.00  0.00     0.110 C 
HETATM   28  N1  UNL     1      34.721   4.715  47.645  1.00  0.00    -0.297 NA
HETATM   29  C7  UNL     1      33.926   5.797  47.180  1.00  0.00     0.192 C 
ENDBRANCH   2  23
TORSDOF 7
ENDMDL
