MODEL 1
REMARK VINA RESULT:      -7.2      0.000      0.000
REMARK  2 active torsions:
REMARK  status: ('A' for Active; 'I' for Inactive)
REMARK    1  A    between atoms: C2_2  and  N1_3 
REMARK    2  A    between atoms: C6_8  and  N3_9 
ROOT
HETATM    1  N1  UNL     1      22.109   0.214  53.402  1.00  0.00    -0.372 N 
HETATM    2  C3  UNL     1      23.324  -0.467  53.683  1.00  0.00     0.202 C 
HETATM    3  N2  UNL     1      24.451   0.031  53.342  1.00  0.00    -0.239 NA
HETATM    4  C4  UNL     1      24.611   1.278  52.666  1.00  0.00     0.299 C 
HETATM    5  C5  UNL     1      25.506   2.194  53.477  1.00  0.00     0.106 C 
HETATM    6  C6  UNL     1      26.821   1.602  53.848  1.00  0.00     0.224 C 
HETATM    7  C7  UNL     1      27.424   0.700  52.820  1.00  0.00     0.065 C 
HETATM    8  C8  UNL     1      26.425   0.010  51.931  1.00  0.00     0.275 C 
HETATM    9  N4  UNL     1      25.414   0.950  51.464  1.00  0.00     0.119 N 
HETATM   10  C9  UNL     1      23.372   2.026  52.316  1.00  0.00     0.199 C 
HETATM   11  C10 UNL     1      22.276   1.653  53.326  1.00  0.00     0.184 C 
HETATM   12  N5  UNL     1      22.862   1.678  51.053  1.00  0.00    -0.243 NA
HETATM   13  C11 UNL     1      23.009   2.313  49.953  1.00  0.00     0.104 C 
HETATM   14 CL1  UNL     1      22.161   1.443  48.657  1.00  0.00    -0.067 Cl
HETATM   15  C12 UNL     1      23.666   3.529  49.477  1.00  0.00     0.100 C 
HETATM   16  C13 UNL     1      23.850   4.598  50.453  1.00  0.00    -0.003 C 
HETATM   17  C14 UNL     1      23.817   4.587  51.762  1.00  0.00     0.082 C 
HETATM   18  N6  UNL     1      23.573   3.444  52.544  1.00  0.00    -0.367 N 
HETATM   19  H16 UNL     1      25.942   1.772  51.120  1.00  0.00     0.319 HD
HETATM   20  H23 UNL     1      23.531   3.724  53.572  1.00  0.00     0.161 HD
ENDROOT
BRANCH   6  21
HETATM   21  N3  UNL     1      27.749   2.729  54.024  1.00  0.00     0.083 N 
HETATM   22  H10 UNL     1      27.873   3.004  55.001  1.00  0.00     0.313 HD
HETATM   23  H11 UNL     1      28.618   2.624  53.469  1.00  0.00     0.313 HD
ENDBRANCH   6  21
BRANCH   1  24
HETATM   24  C2  UNL     1      20.853  -0.441  53.217  1.00  0.00     0.119 C 
HETATM   25  C1  UNL     1      20.692  -1.610  54.154  1.00  0.00     0.026 C 
ENDBRANCH   1  24
TORSDOF 2
ENDMDL
MODEL 2
REMARK VINA RESULT:      -7.1      2.165      5.028
REMARK  2 active torsions:
REMARK  status: ('A' for Active; 'I' for Inactive)
REMARK    1  A    between atoms: C2_2  and  N1_3 
REMARK    2  A    between atoms: C6_8  and  N3_9 
ROOT
HETATM    1  N1  UNL     1      22.602   5.464  51.430  1.00  0.00    -0.372 N 
HETATM    2  C3  UNL     1      21.541   4.601  51.047  1.00  0.00     0.202 C 
HETATM    3  N2  UNL     1      21.651   3.332  51.164  1.00  0.00    -0.239 NA
HETATM    4  C4  UNL     1      22.807   2.665  51.670  1.00  0.00     0.299 C 
HETATM    5  C5  UNL     1      22.428   1.804  52.859  1.00  0.00     0.106 C 
HETATM    6  C6  UNL     1      21.317   0.848  52.598  1.00  0.00     0.224 C 
HETATM    7  C7  UNL     1      21.292   0.262  51.224  1.00  0.00     0.065 C 
HETATM    8  C8  UNL     1      21.900   1.136  50.161  1.00  0.00     0.275 C 
HETATM    9  N4  UNL     1      23.170   1.691  50.613  1.00  0.00     0.119 N 
HETATM   10  C9  UNL     1      23.966   3.515  52.060  1.00  0.00     0.199 C 
HETATM   11  C10 UNL     1      23.440   4.898  52.470  1.00  0.00     0.184 C 
HETATM   12  N5  UNL     1      24.858   3.745  50.997  1.00  0.00    -0.243 NA
HETATM   13  C11 UNL     1      25.961   3.144  50.764  1.00  0.00     0.104 C 
HETATM   14 CL1  UNL     1      26.696   3.819  49.295  1.00  0.00    -0.067 Cl
HETATM   15  C12 UNL     1      26.769   2.079  51.358  1.00  0.00     0.100 C 
HETATM   16  C13 UNL     1      26.630   1.878  52.796  1.00  0.00    -0.003 C 
HETATM   17  C14 UNL     1      25.700   2.260  53.636  1.00  0.00     0.082 C 
HETATM   18  N6  UNL     1      24.561   3.004  53.279  1.00  0.00    -0.367 N 
HETATM   19  H16 UNL     1      23.699   0.888  50.997  1.00  0.00     0.319 HD
HETATM   20  H23 UNL     1      24.007   3.241  54.160  1.00  0.00     0.161 HD
ENDROOT
BRANCH   6  21
HETATM   21  N3  UNL     1      21.503  -0.270  53.536  1.00  0.00     0.083 N 
HETATM   22  H10 UNL     1      20.728  -0.381  54.194  1.00  0.00     0.313 HD
HETATM   23  H11 UNL     1      21.829  -1.135  53.069  1.00  0.00     0.313 HD
ENDBRANCH   6  21
BRANCH   1  24
HETATM   24  C2  UNL     1      22.825   6.754  50.858  1.00  0.00     0.119 C 
HETATM   25  C1  UNL     1      24.221   7.251  51.132  1.00  0.00     0.026 C 
ENDBRANCH   1  24
TORSDOF 2
ENDMDL
MODEL 3
REMARK VINA RESULT:      -6.4      2.901      5.401
REMARK  2 active torsions:
REMARK  status: ('A' for Active; 'I' for Inactive)
REMARK    1  A    between atoms: C2_2  and  N1_3 
REMARK    2  A    between atoms: C6_8  and  N3_9 
ROOT
HETATM    1  N1  UNL     1      22.341   3.589  48.467  1.00  0.00    -0.372 N 
HETATM    2  C3  UNL     1      22.336   5.008  48.540  1.00  0.00     0.202 C 
HETATM    3  N2  UNL     1      23.223   5.635  49.214  1.00  0.00    -0.239 NA
HETATM    4  C4  UNL     1      24.278   5.005  49.942  1.00  0.00     0.299 C 
HETATM    5  C5  UNL     1      25.619   5.523  49.459  1.00  0.00     0.106 C 
HETATM    6  C6  UNL     1      25.751   7.006  49.479  1.00  0.00     0.224 C 
HETATM    7  C7  UNL     1      25.060   7.690  50.613  1.00  0.00     0.065 C 
HETATM    8  C8  UNL     1      23.858   6.958  51.146  1.00  0.00     0.275 C 
HETATM    9  N4  UNL     1      24.152   5.540  51.319  1.00  0.00     0.119 N 
HETATM   10  C9  UNL     1      24.319   3.517  49.929  1.00  0.00     0.199 C 
HETATM   11  C10 UNL     1      23.666   3.023  48.629  1.00  0.00     0.184 C 
HETATM   12  N5  UNL     1      23.576   2.940  50.973  1.00  0.00    -0.243 NA
HETATM   13  C11 UNL     1      24.017   2.487  52.084  1.00  0.00     0.104 C 
HETATM   14 CL1  UNL     1      22.658   1.868  53.045  1.00  0.00    -0.067 Cl
HETATM   15  C12 UNL     1      25.301   2.341  52.768  1.00  0.00     0.100 C 
HETATM   16  C13 UNL     1      26.484   2.228  51.921  1.00  0.00    -0.003 C 
HETATM   17  C14 UNL     1      26.676   2.530  50.661  1.00  0.00     0.082 C 
HETATM   18  N6  UNL     1      25.692   3.065  49.811  1.00  0.00    -0.367 N 
HETATM   19  H16 UNL     1      25.054   5.507  51.827  1.00  0.00     0.319 HD
HETATM   20  H23 UNL     1      26.089   3.151  48.825  1.00  0.00     0.161 HD
ENDROOT
BRANCH   6  21
HETATM   21  N3  UNL     1      27.187   7.292  49.618  1.00  0.00     0.083 N 
HETATM   22  H10 UNL     1      27.775   6.459  49.552  1.00  0.00     0.313 HD
HETATM   23  H11 UNL     1      27.490   8.107  49.055  1.00  0.00     0.313 HD
ENDBRANCH   6  21
BRANCH   1  24
HETATM   24  C2  UNL     1      21.171   2.799  48.252  1.00  0.00     0.119 C 
HETATM   25  C1  UNL     1      21.418   1.343  48.558  1.00  0.00     0.026 C 
ENDBRANCH   1  24
TORSDOF 2
ENDMDL
MODEL 4
REMARK VINA RESULT:      -6.3     10.191     12.632
REMARK  2 active torsions:
REMARK  status: ('A' for Active; 'I' for Inactive)
REMARK    1  A    between atoms: C2_2  and  N1_3 
REMARK    2  A    between atoms: C6_8  and  N3_9 
ROOT
HETATM    1  N1  UNL     1      33.018   7.200  44.171  1.00  0.00    -0.372 N 
HETATM    2  C3  UNL     1      31.675   7.404  44.587  1.00  0.00     0.202 C 
HETATM    3  N2  UNL     1      31.354   7.345  45.823  1.00  0.00    -0.239 NA
HETATM    4  C4  UNL     1      32.271   7.077  46.884  1.00  0.00     0.299 C 
HETATM    5  C5  UNL     1      32.240   8.208  47.893  1.00  0.00     0.106 C 
HETATM    6  C6  UNL     1      30.884   8.534  48.413  1.00  0.00     0.224 C 
HETATM    7  C7  UNL     1      29.974   7.362  48.590  1.00  0.00     0.065 C 
HETATM    8  C8  UNL     1      30.251   6.209  47.663  1.00  0.00     0.275 C 
HETATM    9  N4  UNL     1      31.680   5.925  47.607  1.00  0.00     0.119 N 
HETATM   10  C9  UNL     1      33.690   6.824  46.509  1.00  0.00     0.199 C 
HETATM   11  C10 UNL     1      33.983   7.559  45.193  1.00  0.00     0.184 C 
HETATM   12  N5  UNL     1      33.955   5.467  46.256  1.00  0.00    -0.243 NA
HETATM   13  C11 UNL     1      34.492   4.619  47.048  1.00  0.00     0.104 C 
HETATM   14 CL1  UNL     1      34.597   3.044  46.233  1.00  0.00    -0.067 Cl
HETATM   15  C12 UNL     1      35.030   4.586  48.407  1.00  0.00     0.100 C 
HETATM   16  C13 UNL     1      35.554   5.842  48.933  1.00  0.00    -0.003 C 
HETATM   17  C14 UNL     1      35.373   7.081  48.549  1.00  0.00     0.082 C 
HETATM   18  N6  UNL     1      34.572   7.470  47.461  1.00  0.00    -0.367 N 
HETATM   19  H16 UNL     1      31.992   5.891  48.594  1.00  0.00     0.319 HD
HETATM   20  H23 UNL     1      34.654   8.524  47.324  1.00  0.00     0.161 HD
ENDROOT
BRANCH   6  21
HETATM   21  N3  UNL     1      31.081   9.125  49.745  1.00  0.00     0.083 N 
HETATM   22  H10 UNL     1      30.847   8.489  50.510  1.00  0.00     0.313 HD
HETATM   23  H11 UNL     1      31.984   9.626  49.832  1.00  0.00     0.313 HD
ENDBRANCH   6  21
BRANCH   1  24
HETATM   24  C2  UNL     1      33.386   6.700  42.885  1.00  0.00     0.119 C 
HETATM   25  C1  UNL     1      33.278   5.198  42.820  1.00  0.00     0.026 C 
ENDBRANCH   1  24
TORSDOF 2
ENDMDL
MODEL 5
REMARK VINA RESULT:      -6.2      9.278     11.037
REMARK  2 active torsions:
REMARK  status: ('A' for Active; 'I' for Inactive)
REMARK    1  A    between atoms: C2_2  and  N1_3 
REMARK    2  A    between atoms: C6_8  and  N3_9 
ROOT
HETATM    1  N1  UNL     1      29.835   6.823  48.416  1.00  0.00    -0.372 N 
HETATM    2  C3  UNL     1      29.937   5.450  48.067  1.00  0.00     0.202 C 
HETATM    3  N2  UNL     1      31.044   4.955  47.662  1.00  0.00    -0.239 NA
HETATM    4  C4  UNL     1      32.255   5.697  47.518  1.00  0.00     0.299 C 
HETATM    5  C5  UNL     1      33.352   5.064  48.352  1.00  0.00     0.106 C 
HETATM    6  C6  UNL     1      33.566   3.614  48.090  1.00  0.00     0.224 C 
HETATM    7  C7  UNL     1      33.381   3.191  46.669  1.00  0.00     0.065 C 
HETATM    8  C8  UNL     1      32.420   4.041  45.884  1.00  0.00     0.275 C 
HETATM    9  N4  UNL     1      32.675   5.458  46.116  1.00  0.00     0.119 N 
HETATM   10  C9  UNL     1      32.204   7.150  47.839  1.00  0.00     0.199 C 
HETATM   11  C10 UNL     1      31.092   7.382  48.873  1.00  0.00     0.184 C 
HETATM   12  N5  UNL     1      31.866   7.944  46.729  1.00  0.00    -0.243 NA
HETATM   13  C11 UNL     1      32.658   8.605  45.975  1.00  0.00     0.104 C 
HETATM   14 CL1  UNL     1      31.715   9.436  44.720  1.00  0.00    -0.067 Cl
HETATM   15  C12 UNL     1      34.093   8.861  45.860  1.00  0.00     0.100 C 
HETATM   16  C13 UNL     1      34.873   8.774  47.090  1.00  0.00    -0.003 C 
HETATM   17  C14 UNL     1      34.605   8.217  48.245  1.00  0.00     0.082 C 
HETATM   18  N6  UNL     1      33.409   7.540  48.545  1.00  0.00    -0.367 N 
HETATM   19  H16 UNL     1      33.697   5.575  45.997  1.00  0.00     0.319 HD
HETATM   20  H23 UNL     1      33.420   7.246  49.570  1.00  0.00     0.161 HD
ENDROOT
BRANCH   6  21
HETATM   21  N3  UNL     1      34.966   3.332  48.441  1.00  0.00     0.083 N 
HETATM   22  H10 UNL     1      35.391   4.054  49.027  1.00  0.00     0.313 HD
HETATM   23  H11 UNL     1      35.113   2.353  48.748  1.00  0.00     0.313 HD
ENDBRANCH   6  21
BRANCH   1  24
HETATM   24  C2  UNL     1      28.625   7.578  48.331  1.00  0.00     0.119 C 
HETATM   25  C1  UNL     1      27.419   6.683  48.189  1.00  0.00     0.026 C 
ENDBRANCH   1  24
TORSDOF 2
ENDMDL
MODEL 6
REMARK VINA RESULT:      -6.2      2.243      4.285
REMARK  2 active torsions:
REMARK  status: ('A' for Active; 'I' for Inactive)
REMARK    1  A    between atoms: C2_2  and  N1_3 
REMARK    2  A    between atoms: C6_8  and  N3_9 
ROOT
HETATM    1  N1  UNL     1      24.975   1.731  52.158  1.00  0.00    -0.372 N 
HETATM    2  C3  UNL     1      25.840   2.688  51.561  1.00  0.00     0.202 C 
HETATM    3  N2  UNL     1      25.372   3.748  51.019  1.00  0.00    -0.239 NA
HETATM    4  C4  UNL     1      23.985   4.077  50.955  1.00  0.00     0.299 C 
HETATM    5  C5  UNL     1      23.743   5.425  51.606  1.00  0.00     0.106 C 
HETATM    6  C6  UNL     1      24.591   6.527  51.075  1.00  0.00     0.224 C 
HETATM    7  C7  UNL     1      24.882   6.456  49.611  1.00  0.00     0.065 C 
HETATM    8  C8  UNL     1      24.880   5.064  49.041  1.00  0.00     0.275 C 
HETATM    9  N4  UNL     1      23.723   4.314  49.515  1.00  0.00     0.119 N 
HETATM   10  C9  UNL     1      23.026   3.098  51.537  1.00  0.00     0.199 C 
HETATM   11  C10 UNL     1      23.743   2.316  52.648  1.00  0.00     0.184 C 
HETATM   12  N5  UNL     1      22.596   2.135  50.608  1.00  0.00    -0.243 NA
HETATM   13  C11 UNL     1      21.500   2.124  49.950  1.00  0.00     0.104 C 
HETATM   14 CL1  UNL     1      21.454   0.682  48.914  1.00  0.00    -0.067 Cl
HETATM   15  C12 UNL     1      20.302   2.951  49.815  1.00  0.00     0.100 C 
HETATM   16  C13 UNL     1      19.935   3.763  50.970  1.00  0.00    -0.003 C 
HETATM   17  C14 UNL     1      20.628   4.140  52.016  1.00  0.00     0.082 C 
HETATM   18  N6  UNL     1      21.974   3.802  52.244  1.00  0.00    -0.367 N 
HETATM   19  H16 UNL     1      22.912   4.941  49.371  1.00  0.00     0.319 HD
HETATM   20  H23 UNL     1      22.273   4.177  53.197  1.00  0.00     0.161 HD
ENDROOT
BRANCH   6  21
HETATM   21  N3  UNL     1      23.842   7.773  51.301  1.00  0.00     0.083 N 
HETATM   22  H10 UNL     1      23.075   7.911  50.638  1.00  0.00     0.313 HD
HETATM   23  H11 UNL     1      23.612   7.927  52.299  1.00  0.00     0.313 HD
ENDBRANCH   6  21
BRANCH   1  24
HETATM   24  C2  UNL     1      25.284   0.341  52.270  1.00  0.00     0.119 C 
HETATM   25  C1  UNL     1      26.757   0.081  52.087  1.00  0.00     0.026 C 
ENDBRANCH   1  24
TORSDOF 2
ENDMDL
MODEL 7
REMARK VINA RESULT:      -5.8      8.963     11.832
REMARK  2 active torsions:
REMARK  status: ('A' for Active; 'I' for Inactive)
REMARK    1  A    between atoms: C2_2  and  N1_3 
REMARK    2  A    between atoms: C6_8  and  N3_9 
ROOT
HETATM    1  N1  UNL     1      27.468  13.272  48.181  1.00  0.00    -0.372 N 
HETATM    2  C3  UNL     1      26.235  12.565  48.190  1.00  0.00     0.202 C 
HETATM    3  N2  UNL     1      26.206  11.296  48.338  1.00  0.00    -0.239 NA
HETATM    4  C4  UNL     1      27.363  10.475  48.503  1.00  0.00     0.299 C 
HETATM    5  C5  UNL     1      27.260   9.692  49.797  1.00  0.00     0.106 C 
HETATM    6  C6  UNL     1      26.007   8.903  49.942  1.00  0.00     0.224 C 
HETATM    7  C7  UNL     1      25.479   8.310  48.676  1.00  0.00     0.065 C 
HETATM    8  C8  UNL     1      25.837   9.075  47.431  1.00  0.00     0.275 C 
HETATM    9  N4  UNL     1      27.247   9.447  47.441  1.00  0.00     0.119 N 
HETATM   10  C9  UNL     1      28.688  11.154  48.472  1.00  0.00     0.199 C 
HETATM   11  C10 UNL     1      28.503  12.604  48.945  1.00  0.00     0.184 C 
HETATM   12  N5  UNL     1      29.228  11.241  47.177  1.00  0.00    -0.243 NA
HETATM   13  C11 UNL     1      30.114  10.485  46.652  1.00  0.00     0.104 C 
HETATM   14 CL1  UNL     1      30.440  11.030  44.992  1.00  0.00    -0.067 Cl
HETATM   15  C12 UNL     1      30.917   9.322  47.028  1.00  0.00     0.100 C 
HETATM   16  C13 UNL     1      31.206   9.160  48.449  1.00  0.00    -0.003 C 
HETATM   17  C14 UNL     1      30.643   9.683  49.510  1.00  0.00     0.082 C 
HETATM   18  N6  UNL     1      29.559  10.578  49.478  1.00  0.00    -0.367 N 
HETATM   19  H16 UNL     1      27.757   8.581  47.689  1.00  0.00     0.319 HD
HETATM   20  H23 UNL     1      29.342  10.902  50.471  1.00  0.00     0.161 HD
ENDROOT
BRANCH   6  21
HETATM   21  N3  UNL     1      26.324   7.780  50.839  1.00  0.00     0.083 N 
HETATM   22  H10 UNL     1      27.203   7.312  50.607  1.00  0.00     0.313 HD
HETATM   23  H11 UNL     1      26.185   8.014  51.838  1.00  0.00     0.313 HD
ENDBRANCH   6  21
BRANCH   1  24
HETATM   24  C2  UNL     1      27.671  14.509  47.498  1.00  0.00     0.119 C 
HETATM   25  C1  UNL     1      29.115  14.700  47.109  1.00  0.00     0.026 C 
ENDBRANCH   1  24
TORSDOF 2
ENDMDL
MODEL 8
REMARK VINA RESULT:      -5.8      3.049      5.403
REMARK  2 active torsions:
REMARK  status: ('A' for Active; 'I' for Inactive)
REMARK    1  A    between atoms: C2_2  and  N1_3 
REMARK    2  A    between atoms: C6_8  and  N3_9 
ROOT
HETATM    1  N1  UNL     1      21.502   0.355  52.955  1.00  0.00    -0.372 N 
HETATM    2  C3  UNL     1      20.104   0.583  52.855  1.00  0.00     0.202 C 
HETATM    3  N2  UNL     1      19.632   1.412  52.004  1.00  0.00    -0.239 NA
HETATM    4  C4  UNL     1      20.426   2.175  51.094  1.00  0.00     0.299 C 
HETATM    5  C5  UNL     1      19.988   1.898  49.670  1.00  0.00     0.106 C 
HETATM    6  C6  UNL     1      18.533   2.095  49.422  1.00  0.00     0.224 C 
HETATM    7  C7  UNL     1      17.906   3.218  50.183  1.00  0.00     0.065 C 
HETATM    8  C8  UNL     1      18.574   3.536  51.493  1.00  0.00     0.275 C 
HETATM    9  N4  UNL     1      20.023   3.581  51.336  1.00  0.00     0.119 N 
HETATM   10  C9  UNL     1      21.903   2.002  51.172  1.00  0.00     0.199 C 
HETATM   11  C10 UNL     1      22.201   0.594  51.707  1.00  0.00     0.184 C 
HETATM   12  N5  UNL     1      22.511   2.892  52.075  1.00  0.00    -0.243 NA
HETATM   13  C11 UNL     1      23.112   3.986  51.802  1.00  0.00     0.104 C 
HETATM   14 CL1  UNL     1      23.697   4.723  53.309  1.00  0.00    -0.067 Cl
HETATM   15  C12 UNL     1      23.444   4.783  50.622  1.00  0.00     0.100 C 
HETATM   16  C13 UNL     1      23.579   4.060  49.362  1.00  0.00    -0.003 C 
HETATM   17  C14 UNL     1      23.171   2.868  49.002  1.00  0.00     0.082 C 
HETATM   18  N6  UNL     1      22.465   1.982  49.835  1.00  0.00    -0.367 N 
HETATM   19  H16 UNL     1      20.190   4.175  50.504  1.00  0.00     0.319 HD
HETATM   20  H23 UNL     1      22.317   1.060  49.321  1.00  0.00     0.161 HD
ENDROOT
BRANCH   6  21
HETATM   21  N3  UNL     1      18.395   2.417  47.994  1.00  0.00     0.083 N 
HETATM   22  H10 UNL     1      19.180   2.089  47.426  1.00  0.00     0.313 HD
HETATM   23  H11 UNL     1      17.450   2.209  47.625  1.00  0.00     0.313 HD
ENDBRANCH   6  21
BRANCH   1  24
HETATM   24  C2  UNL     1      22.156  -0.069  54.152  1.00  0.00     0.119 C 
HETATM   25  C1  UNL     1      21.714  -1.448  54.570  1.00  0.00     0.026 C 
ENDBRANCH   1  24
TORSDOF 2
ENDMDL
MODEL 9
REMARK VINA RESULT:      -5.7      2.444      5.120
REMARK  2 active torsions:
REMARK  status: ('A' for Active; 'I' for Inactive)
REMARK    1  A    between atoms: C2_2  and  N1_3 
REMARK    2  A    between atoms: C6_8  and  N3_9 
ROOT
HETATM    1  N1  UNL     1      24.620   1.867  52.464  1.00  0.00    -0.372 N 
HETATM    2  C3  UNL     1      23.404   1.457  53.072  1.00  0.00     0.202 C 
HETATM    3  N2  UNL     1      22.276   1.736  52.539  1.00  0.00    -0.239 NA
HETATM    4  C4  UNL     1      22.116   2.464  51.321  1.00  0.00     0.299 C 
HETATM    5  C5  UNL     1      21.329   1.636  50.324  1.00  0.00     0.106 C 
HETATM    6  C6  UNL     1      20.024   1.134  50.835  1.00  0.00     0.224 C 
HETATM    7  C7  UNL     1      19.303   2.062  51.757  1.00  0.00     0.065 C 
HETATM    8  C8  UNL     1      20.196   2.987  52.537  1.00  0.00     0.275 C 
HETATM    9  N4  UNL     1      21.207   3.581  51.670  1.00  0.00     0.119 N 
HETATM   10  C9  UNL     1      23.355   2.948  50.651  1.00  0.00     0.199 C 
HETATM   11  C10 UNL     1      24.510   2.007  51.025  1.00  0.00     0.184 C 
HETATM   12  N5  UNL     1      23.748   4.226  51.085  1.00  0.00    -0.243 NA
HETATM   13  C11 UNL     1      23.541   5.343  50.499  1.00  0.00     0.104 C 
HETATM   14 CL1  UNL     1      24.245   6.652  51.472  1.00  0.00    -0.067 Cl
HETATM   15  C12 UNL     1      22.902   5.832  49.279  1.00  0.00     0.100 C 
HETATM   16  C13 UNL     1      22.842   4.903  48.155  1.00  0.00    -0.003 C 
HETATM   17  C14 UNL     1      22.979   3.601  48.103  1.00  0.00     0.082 C 
HETATM   18  N6  UNL     1      23.234   2.781  49.216  1.00  0.00    -0.367 N 
HETATM   19  H16 UNL     1      20.689   3.927  50.842  1.00  0.00     0.319 HD
HETATM   20  H23 UNL     1      23.370   1.775  48.887  1.00  0.00     0.161 HD
ENDROOT
BRANCH   6  21
HETATM   21  N3  UNL     1      19.162   0.947  49.657  1.00  0.00     0.083 N 
HETATM   22  H10 UNL     1      19.647   1.101  48.771  1.00  0.00     0.313 HD
HETATM   23  H11 UNL     1      18.584   0.089  49.715  1.00  0.00     0.313 HD
ENDBRANCH   6  21
BRANCH   1  24
HETATM   24  C2  UNL     1      25.828   2.113  53.187  1.00  0.00     0.119 C 
HETATM   25  C1  UNL     1      27.036   2.064  52.286  1.00  0.00     0.026 C 
ENDBRANCH   1  24
TORSDOF 2
ENDMDL
