MODEL 1
REMARK VINA RESULT:      -7.9      0.000      0.000
REMARK  3 active torsions:
REMARK  status: ('A' for Active; 'I' for Inactive)
REMARK    1  A    between atoms: C2_2  and  N1_3 
REMARK    2  A    between atoms: C9_12  and  N4_13 
REMARK    3  A    between atoms: N4_13  and  C10_14 
ROOT
HETATM    1  N1  UNL     1      21.783   1.089  52.924  1.00  0.00    -0.366 N 
HETATM    2  C3  UNL     1      21.797  -0.223  53.471  1.00  0.00     0.091 A 
HETATM    3  C4  UNL     1      22.957  -0.777  53.779  1.00  0.00     0.030 A 
HETATM    4  C5  UNL     1      24.195  -0.079  53.570  1.00  0.00    -0.006 A 
HETATM    5  C6  UNL     1      25.249  -0.815  53.953  1.00  0.00     0.129 C 
HETATM    6  N2  UNL     1      26.674  -0.592  53.956  1.00  0.00    -0.255 NA
HETATM    7  C7  UNL     1      27.365   0.088  53.147  1.00  0.00     0.118 C 
HETATM    8  C8  UNL     1      27.372   1.366  53.076  1.00  0.00     0.116 C 
HETATM    9  N3  UNL     1      26.380   2.116  53.312  1.00  0.00    -0.254 NA
HETATM   10  C9  UNL     1      25.123   2.321  52.633  1.00  0.00     0.243 C 
HETATM   11  C16 UNL     1      24.154   1.278  53.002  1.00  0.00     0.013 A 
HETATM   12  C17 UNL     1      22.990   1.808  52.705  1.00  0.00     0.102 A 
ENDROOT
BRANCH  10  13
HETATM   13  N4  UNL     1      25.384   2.349  51.214  1.00  0.00    -0.363 N 
HETATM   14  H10 UNL     1      25.375   1.440  50.691  1.00  0.00     0.162 HD
BRANCH  13  15
HETATM   15  C10 UNL     1      25.649   3.545  50.499  1.00  0.00     0.031 A 
HETATM   16  C11 UNL     1      26.707   3.597  49.587  1.00  0.00     0.029 A 
HETATM   17  C12 UNL     1      26.966   4.775  48.885  1.00  0.00     0.004 A 
HETATM   18  C13 UNL     1      26.182   5.889  49.089  1.00  0.00     0.019 A 
HETATM   19  C14 UNL     1      25.140   5.812  50.001  1.00  0.00     0.013 A 
HETATM   20 BR1  UNL     1      24.135   7.405  50.196  1.00  0.00    -0.051 Br
HETATM   21  C15 UNL     1      24.857   4.668  50.709  1.00  0.00     0.048 A 
ENDBRANCH  13  15
ENDBRANCH  10  13
BRANCH   1  22
HETATM   22  C2  UNL     1      20.530   1.738  52.571  1.00  0.00     0.123 C 
HETATM   23  C1  UNL     1      20.764   3.222  52.323  1.00  0.00     0.027 C 
ENDBRANCH   1  22
TORSDOF 3
ENDMDL
MODEL 2
REMARK VINA RESULT:      -7.5      1.231      3.908
REMARK  3 active torsions:
REMARK  status: ('A' for Active; 'I' for Inactive)
REMARK    1  A    between atoms: C2_2  and  N1_3 
REMARK    2  A    between atoms: C9_12  and  N4_13 
REMARK    3  A    between atoms: N4_13  and  C10_14 
ROOT
HETATM    1  N1  UNL     1      26.383  -0.004  53.125  1.00  0.00    -0.366 N 
HETATM    2  C3  UNL     1      25.507  -0.578  54.085  1.00  0.00     0.091 A 
HETATM    3  C4  UNL     1      24.223  -0.267  54.048  1.00  0.00     0.030 A 
HETATM    4  C5  UNL     1      23.703   0.636  53.058  1.00  0.00    -0.006 A 
HETATM    5  C6  UNL     1      22.380   0.809  53.193  1.00  0.00     0.129 C 
HETATM    6  N2  UNL     1      21.398   1.590  52.481  1.00  0.00    -0.255 NA
HETATM    7  C7  UNL     1      21.547   2.702  51.902  1.00  0.00     0.118 C 
HETATM    8  C8  UNL     1      22.185   2.884  50.808  1.00  0.00     0.116 C 
HETATM    9  N3  UNL     1      23.200   2.225  50.436  1.00  0.00    -0.254 NA
HETATM   10  C9  UNL     1      24.552   2.142  50.935  1.00  0.00     0.243 C 
HETATM   11  C16 UNL     1      24.631   1.217  52.075  1.00  0.00     0.013 A 
HETATM   12  C17 UNL     1      25.902   0.892  52.132  1.00  0.00     0.102 A 
ENDROOT
BRANCH  10  13
HETATM   13  N4  UNL     1      24.981   3.476  51.281  1.00  0.00    -0.363 N 
HETATM   14  H10 UNL     1      24.778   3.826  52.248  1.00  0.00     0.162 HD
BRANCH  13  15
HETATM   15  C10 UNL     1      25.662   4.328  50.376  1.00  0.00     0.031 A 
HETATM   16  C11 UNL     1      26.730   3.839  49.618  1.00  0.00     0.029 A 
HETATM   17  C12 UNL     1      27.399   4.680  48.729  1.00  0.00     0.004 A 
HETATM   18  C13 UNL     1      27.010   5.995  48.594  1.00  0.00     0.019 A 
HETATM   19  C14 UNL     1      25.949   6.457  49.358  1.00  0.00     0.013 A 
HETATM   20 BR1  UNL     1      25.509   8.278  49.087  1.00  0.00    -0.051 Br
HETATM   21  C15 UNL     1      25.269   5.655  50.244  1.00  0.00     0.048 A 
ENDBRANCH  13  15
ENDBRANCH  10  13
BRANCH   1  22
HETATM   22  C2  UNL     1      27.804  -0.317  53.128  1.00  0.00     0.123 C 
HETATM   23  C1  UNL     1      28.392  -0.054  54.507  1.00  0.00     0.027 C 
ENDBRANCH   1  22
TORSDOF 3
ENDMDL
MODEL 3
REMARK VINA RESULT:      -7.4      2.010      4.516
REMARK  3 active torsions:
REMARK  status: ('A' for Active; 'I' for Inactive)
REMARK    1  A    between atoms: C2_2  and  N1_3 
REMARK    2  A    between atoms: C9_12  and  N4_13 
REMARK    3  A    between atoms: N4_13  and  C10_14 
ROOT
HETATM    1  N1  UNL     1      25.171  -0.399  54.270  1.00  0.00    -0.366 N 
HETATM    2  C3  UNL     1      24.558  -1.095  55.347  1.00  0.00     0.091 A 
HETATM    3  C4  UNL     1      23.250  -1.283  55.326  1.00  0.00     0.030 A 
HETATM    4  C5  UNL     1      22.444  -0.798  54.240  1.00  0.00    -0.006 A 
HETATM    5  C6  UNL     1      21.149  -1.099  54.412  1.00  0.00     0.129 C 
HETATM    6  N2  UNL     1      19.955  -0.851  53.641  1.00  0.00    -0.255 NA
HETATM    7  C7  UNL     1      19.691   0.135  52.898  1.00  0.00     0.118 C 
HETATM    8  C8  UNL     1      20.227   0.365  51.759  1.00  0.00     0.116 C 
HETATM    9  N3  UNL     1      21.416   0.071  51.440  1.00  0.00    -0.254 NA
HETATM   10  C9  UNL     1      22.700   0.565  51.879  1.00  0.00     0.243 C 
HETATM   11  C16 UNL     1      23.102  -0.079  53.138  1.00  0.00     0.013 A 
HETATM   12  C17 UNL     1      24.404   0.095  53.180  1.00  0.00     0.102 A 
ENDROOT
BRANCH  10  13
HETATM   13  N4  UNL     1      22.606   1.999  52.002  1.00  0.00    -0.363 N 
HETATM   14  H10 UNL     1      22.161   2.394  52.866  1.00  0.00     0.162 HD
BRANCH  13  15
HETATM   15  C10 UNL     1      23.086   2.894  51.012  1.00  0.00     0.031 A 
HETATM   16  C11 UNL     1      22.190   3.687  50.288  1.00  0.00     0.029 A 
HETATM   17  C12 UNL     1      22.665   4.566  49.315  1.00  0.00     0.004 A 
HETATM   18  C13 UNL     1      24.016   4.656  49.063  1.00  0.00     0.019 A 
HETATM   19  C14 UNL     1      24.884   3.858  49.794  1.00  0.00     0.013 A 
HETATM   20 BR1  UNL     1      26.715   4.068  49.358  1.00  0.00    -0.051 Br
HETATM   21  C15 UNL     1      24.450   2.981  50.760  1.00  0.00     0.048 A 
ENDBRANCH  13  15
ENDBRANCH  10  13
BRANCH   1  22
HETATM   22  C2  UNL     1      26.607  -0.168  54.251  1.00  0.00     0.123 C 
HETATM   23  C1  UNL     1      27.228  -0.850  53.039  1.00  0.00     0.027 C 
ENDBRANCH   1  22
TORSDOF 3
ENDMDL
MODEL 4
REMARK VINA RESULT:      -7.1      2.626      5.682
REMARK  3 active torsions:
REMARK  status: ('A' for Active; 'I' for Inactive)
REMARK    1  A    between atoms: C2_2  and  N1_3 
REMARK    2  A    between atoms: C9_12  and  N4_13 
REMARK    3  A    between atoms: N4_13  and  C10_14 
ROOT
HETATM    1  N1  UNL     1      25.288   2.176  51.334  1.00  0.00    -0.366 N 
HETATM    2  C3  UNL     1      26.488   2.033  52.081  1.00  0.00     0.091 A 
HETATM    3  C4  UNL     1      26.504   1.210  53.116  1.00  0.00     0.030 A 
HETATM    4  C5  UNL     1      25.336   0.464  53.494  1.00  0.00    -0.006 A 
HETATM    5  C6  UNL     1      25.569  -0.313  54.562  1.00  0.00     0.129 C 
HETATM    6  N2  UNL     1      24.759  -1.232  55.323  1.00  0.00    -0.255 NA
HETATM    7  C7  UNL     1      23.518  -1.182  55.552  1.00  0.00     0.118 C 
HETATM    8  C8  UNL     1      22.599  -1.408  54.691  1.00  0.00     0.116 C 
HETATM    9  N3  UNL     1      22.677  -1.144  53.455  1.00  0.00    -0.254 NA
HETATM   10  C9  UNL     1      22.735   0.096  52.719  1.00  0.00     0.243 C 
HETATM   11  C16 UNL     1      24.106   0.630  52.704  1.00  0.00     0.013 A 
HETATM   12  C17 UNL     1      24.114   1.452  51.680  1.00  0.00     0.102 A 
ENDROOT
BRANCH  10  13
HETATM   13  N4  UNL     1      21.797   1.014  53.319  1.00  0.00    -0.363 N 
HETATM   14  H10 UNL     1      22.003   1.374  54.282  1.00  0.00     0.162 HD
BRANCH  13  15
HETATM   15  C10 UNL     1      20.615   1.447  52.668  1.00  0.00     0.031 A 
HETATM   16  C11 UNL     1      20.403   2.809  52.428  1.00  0.00     0.029 A 
HETATM   17  C12 UNL     1      19.239   3.233  51.788  1.00  0.00     0.004 A 
HETATM   18  C13 UNL     1      18.293   2.313  51.389  1.00  0.00     0.019 A 
HETATM   19  C14 UNL     1      18.526   0.969  51.640  1.00  0.00     0.013 A 
HETATM   20 BR1  UNL     1      17.156  -0.198  51.049  1.00  0.00    -0.051 Br
HETATM   21  C15 UNL     1      19.662   0.517  52.269  1.00  0.00     0.048 A 
ENDBRANCH  13  15
ENDBRANCH  10  13
BRANCH   1  22
HETATM   22  C2  UNL     1      25.223   3.070  50.188  1.00  0.00     0.123 C 
HETATM   23  C1  UNL     1      26.624   3.516  49.795  1.00  0.00     0.027 C 
ENDBRANCH   1  22
TORSDOF 3
ENDMDL
MODEL 5
REMARK VINA RESULT:      -7.1      2.166      4.401
REMARK  3 active torsions:
REMARK  status: ('A' for Active; 'I' for Inactive)
REMARK    1  A    between atoms: C2_2  and  N1_3 
REMARK    2  A    between atoms: C9_12  and  N4_13 
REMARK    3  A    between atoms: N4_13  and  C10_14 
ROOT
HETATM    1  N1  UNL     1      26.348   0.549  53.448  1.00  0.00    -0.366 N 
HETATM    2  C3  UNL     1      26.402  -0.181  54.666  1.00  0.00     0.091 A 
HETATM    3  C4  UNL     1      25.290  -0.708  55.147  1.00  0.00     0.030 A 
HETATM    4  C5  UNL     1      24.035  -0.555  54.463  1.00  0.00    -0.006 A 
HETATM    5  C6  UNL     1      23.038  -1.170  55.116  1.00  0.00     0.129 C 
HETATM    6  N2  UNL     1      21.624  -1.317  54.868  1.00  0.00    -0.255 NA
HETATM    7  C7  UNL     1      20.838  -0.509  54.299  1.00  0.00     0.118 C 
HETATM    8  C8  UNL     1      20.822  -0.254  53.045  1.00  0.00     0.116 C 
HETATM    9  N3  UNL     1      21.837  -0.252  52.288  1.00  0.00    -0.254 NA
HETATM   10  C9  UNL     1      22.998   0.601  52.207  1.00  0.00     0.243 C 
HETATM   11  C16 UNL     1      24.005   0.206  53.204  1.00  0.00     0.013 A 
HETATM   12  C17 UNL     1      25.124   0.720  52.745  1.00  0.00     0.102 A 
ENDROOT
BRANCH  10  13
HETATM   13  N4  UNL     1      22.561   1.965  52.380  1.00  0.00    -0.363 N 
HETATM   14  H10 UNL     1      22.182   2.248  53.316  1.00  0.00     0.162 HD
BRANCH  13  15
HETATM   15  C10 UNL     1      22.623   2.934  51.347  1.00  0.00     0.031 A 
HETATM   16  C11 UNL     1      23.127   2.589  50.090  1.00  0.00     0.029 A 
HETATM   17  C12 UNL     1      23.186   3.544  49.075  1.00  0.00     0.004 A 
HETATM   18  C13 UNL     1      22.749   4.830  49.308  1.00  0.00     0.019 A 
HETATM   19  C14 UNL     1      22.255   5.147  50.564  1.00  0.00     0.013 A 
HETATM   20 BR1  UNL     1      21.687   6.943  50.764  1.00  0.00    -0.051 Br
HETATM   21  C15 UNL     1      22.183   4.231  51.587  1.00  0.00     0.048 A 
ENDBRANCH  13  15
ENDBRANCH  10  13
BRANCH   1  22
HETATM   22  C2  UNL     1      27.546   1.147  52.880  1.00  0.00     0.123 C 
HETATM   23  C1  UNL     1      28.783   0.604  53.583  1.00  0.00     0.027 C 
ENDBRANCH   1  22
TORSDOF 3
ENDMDL
MODEL 6
REMARK VINA RESULT:      -7.0      2.938      6.939
REMARK  3 active torsions:
REMARK  status: ('A' for Active; 'I' for Inactive)
REMARK    1  A    between atoms: C2_2  and  N1_3 
REMARK    2  A    between atoms: C9_12  and  N4_13 
REMARK    3  A    between atoms: N4_13  and  C10_14 
ROOT
HETATM    1  N1  UNL     1      26.266   5.382  48.946  1.00  0.00    -0.366 N 
HETATM    2  C3  UNL     1      25.549   6.360  48.205  1.00  0.00     0.091 A 
HETATM    3  C4  UNL     1      24.302   6.636  48.546  1.00  0.00     0.030 A 
HETATM    4  C5  UNL     1      23.665   5.967  49.647  1.00  0.00    -0.006 A 
HETATM    5  C6  UNL     1      22.408   6.398  49.827  1.00  0.00     0.129 C 
HETATM    6  N2  UNL     1      21.362   6.064  50.763  1.00  0.00    -0.255 NA
HETATM    7  C7  UNL     1      21.125   4.952  51.312  1.00  0.00     0.118 C 
HETATM    8  C8  UNL     1      21.837   4.417  52.231  1.00  0.00     0.116 C 
HETATM    9  N3  UNL     1      23.092   4.534  52.344  1.00  0.00    -0.254 NA
HETATM   10  C9  UNL     1      24.197   4.064  51.543  1.00  0.00     0.243 C 
HETATM   11  C16 UNL     1      24.428   4.958  50.398  1.00  0.00     0.013 A 
HETATM   12  C17 UNL     1      25.666   4.701  50.041  1.00  0.00     0.102 A 
ENDROOT
BRANCH  10  13
HETATM   13  N4  UNL     1      23.905   2.712  51.132  1.00  0.00    -0.363 N 
HETATM   14  H10 UNL     1      23.427   2.567  50.211  1.00  0.00     0.162 HD
BRANCH  13  15
HETATM   15  C10 UNL     1      24.234   1.578  51.916  1.00  0.00     0.031 A 
HETATM   16  C11 UNL     1      25.545   1.090  51.931  1.00  0.00     0.029 A 
HETATM   17  C12 UNL     1      25.866  -0.027  52.702  1.00  0.00     0.004 A 
HETATM   18  C13 UNL     1      24.894  -0.653  53.451  1.00  0.00     0.019 A 
HETATM   19  C14 UNL     1      23.602  -0.152  53.419  1.00  0.00     0.013 A 
HETATM   20 BR1  UNL     1      22.356  -1.096  54.486  1.00  0.00    -0.051 Br
HETATM   21  C15 UNL     1      23.251   0.946  52.669  1.00  0.00     0.048 A 
ENDBRANCH  13  15
ENDBRANCH  10  13
BRANCH   1  22
HETATM   22  C2  UNL     1      27.640   5.045  48.607  1.00  0.00     0.123 C 
HETATM   23  C1  UNL     1      28.393   6.297  48.181  1.00  0.00     0.027 C 
ENDBRANCH   1  22
TORSDOF 3
ENDMDL
MODEL 7
REMARK VINA RESULT:      -7.0      2.946      5.635
REMARK  3 active torsions:
REMARK  status: ('A' for Active; 'I' for Inactive)
REMARK    1  A    between atoms: C2_2  and  N1_3 
REMARK    2  A    between atoms: C9_12  and  N4_13 
REMARK    3  A    between atoms: N4_13  and  C10_14 
ROOT
HETATM    1  N1  UNL     1      24.552   4.186  49.429  1.00  0.00    -0.366 N 
HETATM    2  C3  UNL     1      23.350   4.028  48.689  1.00  0.00     0.091 A 
HETATM    3  C4  UNL     1      22.439   3.174  49.121  1.00  0.00     0.030 A 
HETATM    4  C5  UNL     1      22.644   2.407  50.319  1.00  0.00    -0.006 A 
HETATM    5  C6  UNL     1      21.599   1.609  50.581  1.00  0.00     0.129 C 
HETATM    6  N2  UNL     1      21.304   0.662  51.629  1.00  0.00    -0.255 NA
HETATM    7  C7  UNL     1      22.105  -0.070  52.274  1.00  0.00     0.118 C 
HETATM    8  C8  UNL     1      22.931   0.342  53.161  1.00  0.00     0.116 C 
HETATM    9  N3  UNL     1      23.511   1.467  53.151  1.00  0.00    -0.254 NA
HETATM   10  C9  UNL     1      24.513   2.047  52.289  1.00  0.00     0.243 C 
HETATM   11  C16 UNL     1      23.898   2.589  51.068  1.00  0.00     0.013 A 
HETATM   12  C17 UNL     1      24.788   3.445  50.619  1.00  0.00     0.102 A 
ENDROOT
BRANCH  10  13
HETATM   13  N4  UNL     1      25.495   1.029  52.002  1.00  0.00    -0.363 N 
HETATM   14  H10 UNL     1      25.246   0.281  51.312  1.00  0.00     0.162 HD
BRANCH  13  15
HETATM   15  C10 UNL     1      26.776   0.998  52.609  1.00  0.00     0.031 A 
HETATM   16  C11 UNL     1      27.360   2.179  53.077  1.00  0.00     0.029 A 
HETATM   17  C12 UNL     1      28.621   2.146  53.674  1.00  0.00     0.004 A 
HETATM   18  C13 UNL     1      29.294   0.951  53.804  1.00  0.00     0.019 A 
HETATM   19  C14 UNL     1      28.694  -0.206  53.331  1.00  0.00     0.013 A 
HETATM   20 BR1  UNL     1      29.715  -1.784  53.564  1.00  0.00    -0.051 Br
HETATM   21  C15 UNL     1      27.453  -0.209  52.737  1.00  0.00     0.048 A 
ENDBRANCH  13  15
ENDBRANCH  10  13
BRANCH   1  22
HETATM   22  C2  UNL     1      25.583   5.115  48.991  1.00  0.00     0.123 C 
HETATM   23  C1  UNL     1      25.629   6.319  49.921  1.00  0.00     0.027 C 
ENDBRANCH   1  22
TORSDOF 3
ENDMDL
MODEL 8
REMARK VINA RESULT:      -7.0      3.025      6.958
REMARK  3 active torsions:
REMARK  status: ('A' for Active; 'I' for Inactive)
REMARK    1  A    between atoms: C2_2  and  N1_3 
REMARK    2  A    between atoms: C9_12  and  N4_13 
REMARK    3  A    between atoms: N4_13  and  C10_14 
ROOT
HETATM    1  N1  UNL     1      26.232   2.437  51.450  1.00  0.00    -0.366 N 
HETATM    2  C3  UNL     1      26.662   3.174  50.314  1.00  0.00     0.091 A 
HETATM    3  C4  UNL     1      25.757   3.770  49.557  1.00  0.00     0.030 A 
HETATM    4  C5  UNL     1      24.355   3.685  49.863  1.00  0.00    -0.006 A 
HETATM    5  C6  UNL     1      23.613   4.364  48.976  1.00  0.00     0.129 C 
HETATM    6  N2  UNL     1      22.196   4.592  48.828  1.00  0.00    -0.255 NA
HETATM    7  C7  UNL     1      21.241   3.827  49.136  1.00  0.00     0.118 C 
HETATM    8  C8  UNL     1      20.864   3.561  50.329  1.00  0.00     0.116 C 
HETATM    9  N3  UNL     1      21.627   3.492  51.337  1.00  0.00    -0.254 NA
HETATM   10  C9  UNL     1      22.672   2.572  51.714  1.00  0.00     0.243 C 
HETATM   11  C16 UNL     1      23.936   2.916  51.045  1.00  0.00     0.013 A 
HETATM   12  C17 UNL     1      24.854   2.332  51.782  1.00  0.00     0.102 A 
ENDROOT
BRANCH  10  13
HETATM   13  N4  UNL     1      22.227   1.237  51.393  1.00  0.00    -0.363 N 
HETATM   14  H10 UNL     1      22.303   0.917  50.397  1.00  0.00     0.162 HD
BRANCH  13  15
HETATM   15  C10 UNL     1      21.696   0.345  52.358  1.00  0.00     0.031 A 
HETATM   16  C11 UNL     1      22.528  -0.208  53.336  1.00  0.00     0.029 A 
HETATM   17  C12 UNL     1      22.003  -1.086  54.285  1.00  0.00     0.004 A 
HETATM   18  C13 UNL     1      20.664  -1.412  54.260  1.00  0.00     0.019 A 
HETATM   19  C14 UNL     1      19.861  -0.851  53.279  1.00  0.00     0.013 A 
HETATM   20 BR1  UNL     1      18.042  -1.375  53.346  1.00  0.00    -0.051 Br
HETATM   21  C15 UNL     1      20.346   0.017  52.329  1.00  0.00     0.048 A 
ENDBRANCH  13  15
ENDBRANCH  10  13
BRANCH   1  22
HETATM   22  C2  UNL     1      27.192   1.764  52.312  1.00  0.00     0.123 C 
HETATM   23  C1  UNL     1      26.760   0.323  52.548  1.00  0.00     0.027 C 
ENDBRANCH   1  22
TORSDOF 3
ENDMDL
MODEL 9
REMARK VINA RESULT:      -6.9      6.310     10.082
REMARK  3 active torsions:
REMARK  status: ('A' for Active; 'I' for Inactive)
REMARK    1  A    between atoms: C2_2  and  N1_3 
REMARK    2  A    between atoms: C9_12  and  N4_13 
REMARK    3  A    between atoms: N4_13  and  C10_14 
ROOT
HETATM    1  N1  UNL     1      33.057   4.344  47.495  1.00  0.00    -0.366 N 
HETATM    2  C3  UNL     1      34.197   4.985  46.938  1.00  0.00     0.091 A 
HETATM    3  C4  UNL     1      34.236   6.306  46.901  1.00  0.00     0.030 A 
HETATM    4  C5  UNL     1      33.151   7.098  47.412  1.00  0.00    -0.006 A 
HETATM    5  C6  UNL     1      33.395   8.410  47.284  1.00  0.00     0.129 C 
HETATM    6  N2  UNL     1      32.654   9.601  47.626  1.00  0.00    -0.255 NA
HETATM    7  C7  UNL     1      31.403   9.771  47.641  1.00  0.00     0.118 C 
HETATM    8  C8  UNL     1      30.601   9.272  48.505  1.00  0.00     0.116 C 
HETATM    9  N3  UNL     1      30.748   8.153  49.076  1.00  0.00    -0.254 NA
HETATM   10  C9  UNL     1      30.701   6.792  48.596  1.00  0.00     0.243 C 
HETATM   11  C16 UNL     1      31.982   6.411  47.984  1.00  0.00     0.013 A 
HETATM   12  C17 UNL     1      31.967   5.097  48.010  1.00  0.00     0.102 A 
ENDROOT
BRANCH  10  13
HETATM   13  N4  UNL     1      29.598   6.686  47.671  1.00  0.00    -0.363 N 
HETATM   14  H10 UNL     1      29.783   6.880  46.657  1.00  0.00     0.162 HD
BRANCH  13  15
HETATM   15  C10 UNL     1      28.285   6.333  48.070  1.00  0.00     0.031 A 
HETATM   16  C11 UNL     1      27.232   7.236  47.898  1.00  0.00     0.029 A 
HETATM   17  C12 UNL     1      25.940   6.887  48.293  1.00  0.00     0.004 A 
HETATM   18  C13 UNL     1      25.698   5.651  48.853  1.00  0.00     0.019 A 
HETATM   19  C14 UNL     1      26.759   4.774  49.013  1.00  0.00     0.013 A 
HETATM   20 BR1  UNL     1      26.303   3.110  49.794  1.00  0.00    -0.051 Br
HETATM   21  C15 UNL     1      28.044   5.086  48.636  1.00  0.00     0.048 A 
ENDBRANCH  13  15
ENDBRANCH  10  13
BRANCH   1  22
HETATM   22  C2  UNL     1      32.971   2.893  47.556  1.00  0.00     0.123 C 
HETATM   23  C1  UNL     1      31.918   2.392  46.576  1.00  0.00     0.027 C 
ENDBRANCH   1  22
TORSDOF 3
ENDMDL
