MODEL 1
REMARK VINA RESULT:      -7.2      0.000      0.000
REMARK  8 active torsions:
REMARK  status: ('A' for Active; 'I' for Inactive)
REMARK    1  A    between atoms: C2_2  and  C3_3 
REMARK    2  A    between atoms: C3_3  and  C4_4 
REMARK    3  A    between atoms: C4_4  and  C5_5 
REMARK    4  A    between atoms: C5_5  and  N1_8 
REMARK    5  A    between atoms: N1_8  and  C7_9 
REMARK    6  A    between atoms: C11_16  and  C12_17 
REMARK    7  A    between atoms: C12_17  and  N5_18 
REMARK    8  A    between atoms: C15_21  and  N6_22 
ROOT
HETATM    1  C7  UNL     1      21.461   2.427  51.015  1.00  0.00     0.159 A 
HETATM    2  N2  UNL     1      20.517   3.268  50.554  1.00  0.00    -0.220 NA
HETATM    3  C8  UNL     1      20.483   4.591  50.794  1.00  0.00     0.258 A 
HETATM    4  N3  UNL     1      21.484   5.076  51.560  1.00  0.00    -0.161 NA
HETATM    5  N4  UNL     1      22.442   4.299  52.044  1.00  0.00    -0.240 N 
HETATM    6  C9  UNL     1      23.517   4.486  52.823  1.00  0.00     0.119 A 
HETATM    7  C10 UNL     1      24.185   3.278  53.041  1.00  0.00     0.030 A 
HETATM    8  C11 UNL     1      23.481   2.263  52.350  1.00  0.00     0.004 A 
HETATM    9  C18 UNL     1      22.458   2.985  51.792  1.00  0.00     0.112 A 
ENDROOT
BRANCH   8  10
HETATM   10  C12 UNL     1      24.015   0.912  52.348  1.00  0.00     0.313 C 
BRANCH  10  11
HETATM   11  N5  UNL     1      25.349   0.816  52.852  1.00  0.00     0.092 N 
HETATM   12  C13 UNL     1      26.391   0.429  51.978  1.00  0.00     0.275 C 
HETATM   13  C14 UNL     1      27.689   0.328  52.768  1.00  0.00     0.065 C 
HETATM   14  C15 UNL     1      27.583   0.945  54.143  1.00  0.00     0.221 C 
HETATM   15  C16 UNL     1      26.474   0.314  54.937  1.00  0.00     0.065 C 
HETATM   16  C17 UNL     1      25.348  -0.074  54.005  1.00  0.00     0.275 C 
BRANCH  14  17
HETATM   17  N6  UNL     1      27.413   2.389  54.031  1.00  0.00     0.083 N 
HETATM   18  H18 UNL     1      26.914   2.780  54.839  1.00  0.00     0.313 HD
HETATM   19  H19 UNL     1      28.343   2.829  53.892  1.00  0.00     0.313 HD
ENDBRANCH  14  17
ENDBRANCH  10  11
ENDBRANCH   8  10
BRANCH   1  20
HETATM   20  N1  UNL     1      21.244   1.055  50.622  1.00  0.00    -0.339 N 
HETATM   21  H7  UNL     1      21.874   0.395  50.131  1.00  0.00     0.167 HD
BRANCH  20  22
HETATM   22  C5  UNL     1      19.945   0.558  51.025  1.00  0.00     0.040 C 
HETATM   23  C6  UNL     1      18.676   0.247  50.832  1.00  0.00     0.085 C 
HETATM   24 BR1  UNL     1      17.631  -0.489  52.274  1.00  0.00    -0.061 Br
BRANCH  22  25
HETATM   25  C4  UNL     1      20.033   0.146  52.458  1.00  0.00     0.029 C 
BRANCH  25  26
HETATM   26  C3  UNL     1      20.678   0.053  53.624  1.00  0.00    -0.002 C 
BRANCH  26  27
HETATM   27  C2  UNL     1      21.466  -0.396  54.766  1.00  0.00    -0.026 C 
HETATM   28  C1  UNL     1      21.954  -1.631  54.702  1.00  0.00     0.031 C 
ENDBRANCH  26  27
ENDBRANCH  25  26
ENDBRANCH  22  25
ENDBRANCH  20  22
ENDBRANCH   1  20
TORSDOF 8
ENDMDL
MODEL 2
REMARK VINA RESULT:      -7.0      2.619      4.661
REMARK  8 active torsions:
REMARK  status: ('A' for Active; 'I' for Inactive)
REMARK    1  A    between atoms: C2_2  and  C3_3 
REMARK    2  A    between atoms: C3_3  and  C4_4 
REMARK    3  A    between atoms: C4_4  and  C5_5 
REMARK    4  A    between atoms: C5_5  and  N1_8 
REMARK    5  A    between atoms: N1_8  and  C7_9 
REMARK    6  A    between atoms: C11_16  and  C12_17 
REMARK    7  A    between atoms: C12_17  and  N5_18 
REMARK    8  A    between atoms: C15_21  and  N6_22 
ROOT
HETATM    1  C7  UNL     1      22.046   0.085  52.653  1.00  0.00     0.159 A 
HETATM    2  N2  UNL     1      20.766  -0.273  52.869  1.00  0.00    -0.220 NA
HETATM    3  C8  UNL     1      20.339  -1.001  53.916  1.00  0.00     0.258 A 
HETATM    4  N3  UNL     1      21.291  -1.385  54.792  1.00  0.00    -0.161 NA
HETATM    5  N4  UNL     1      22.567  -1.065  54.635  1.00  0.00    -0.240 N 
HETATM    6  C9  UNL     1      23.701  -1.312  55.306  1.00  0.00     0.119 A 
HETATM    7  C10 UNL     1      24.795  -0.731  54.660  1.00  0.00     0.030 A 
HETATM    8  C11 UNL     1      24.313  -0.072  53.503  1.00  0.00     0.004 A 
HETATM    9  C18 UNL     1      22.971  -0.339  53.587  1.00  0.00     0.112 A 
ENDROOT
BRANCH   8  10
HETATM   10  C12 UNL     1      25.244   0.688  52.686  1.00  0.00     0.313 C 
BRANCH  10  11
HETATM   11  N5  UNL     1      26.609   0.556  53.090  1.00  0.00     0.092 N 
HETATM   12  C13 UNL     1      27.452   1.690  53.053  1.00  0.00     0.275 C 
HETATM   13  C14 UNL     1      28.862   1.272  53.452  1.00  0.00     0.065 C 
HETATM   14  C15 UNL     1      28.909  -0.111  54.056  1.00  0.00     0.221 C 
HETATM   15  C16 UNL     1      28.343  -1.135  53.113  1.00  0.00     0.065 C 
HETATM   16  C17 UNL     1      27.223  -0.512  52.311  1.00  0.00     0.275 C 
BRANCH  14  17
HETATM   17  N6  UNL     1      28.220  -0.120  55.341  1.00  0.00     0.083 N 
HETATM   18  H18 UNL     1      27.481   0.592  55.385  1.00  0.00     0.313 HD
HETATM   19  H19 UNL     1      27.857  -1.075  55.524  1.00  0.00     0.313 HD
ENDBRANCH  14  17
ENDBRANCH  10  11
ENDBRANCH   8  10
BRANCH   1  20
HETATM   20  N1  UNL     1      22.227   0.850  51.442  1.00  0.00    -0.339 N 
HETATM   21  H7  UNL     1      22.466   0.536  50.484  1.00  0.00     0.167 HD
BRANCH  20  22
HETATM   22  C5  UNL     1      21.996   2.267  51.637  1.00  0.00     0.040 C 
HETATM   23  C6  UNL     1      21.361   3.312  52.135  1.00  0.00     0.085 C 
HETATM   24 BR1  UNL     1      21.954   5.096  51.708  1.00  0.00    -0.061 Br
BRANCH  22  25
HETATM   25  C4  UNL     1      23.034   3.014  50.865  1.00  0.00     0.029 C 
BRANCH  25  26
HETATM   26  C3  UNL     1      24.144   3.071  50.126  1.00  0.00    -0.002 C 
BRANCH  26  27
HETATM   27  C2  UNL     1      25.456   3.396  49.575  1.00  0.00    -0.026 C 
HETATM   28  C1  UNL     1      25.742   4.689  49.448  1.00  0.00     0.031 C 
ENDBRANCH  26  27
ENDBRANCH  25  26
ENDBRANCH  22  25
ENDBRANCH  20  22
ENDBRANCH   1  20
TORSDOF 8
ENDMDL
MODEL 3
REMARK VINA RESULT:      -6.9      2.904      4.790
REMARK  8 active torsions:
REMARK  status: ('A' for Active; 'I' for Inactive)
REMARK    1  A    between atoms: C2_2  and  C3_3 
REMARK    2  A    between atoms: C3_3  and  C4_4 
REMARK    3  A    between atoms: C4_4  and  C5_5 
REMARK    4  A    between atoms: C5_5  and  N1_8 
REMARK    5  A    between atoms: N1_8  and  C7_9 
REMARK    6  A    between atoms: C11_16  and  C12_17 
REMARK    7  A    between atoms: C12_17  and  N5_18 
REMARK    8  A    between atoms: C15_21  and  N6_22 
ROOT
HETATM    1  C7  UNL     1      22.189   1.607  50.571  1.00  0.00     0.159 A 
HETATM    2  N2  UNL     1      20.903   1.431  50.216  1.00  0.00    -0.220 NA
HETATM    3  C8  UNL     1      20.007   0.706  50.910  1.00  0.00     0.258 A 
HETATM    4  N3  UNL     1      20.468   0.127  52.040  1.00  0.00    -0.161 NA
HETATM    5  N4  UNL     1      21.723   0.264  52.442  1.00  0.00    -0.240 N 
HETATM    6  C9  UNL     1      22.448  -0.193  53.473  1.00  0.00     0.119 A 
HETATM    7  C10 UNL     1      23.767   0.260  53.390  1.00  0.00     0.030 A 
HETATM    8  C11 UNL     1      23.877   1.059  52.226  1.00  0.00     0.004 A 
HETATM    9  C18 UNL     1      22.598   0.990  51.737  1.00  0.00     0.112 A 
ENDROOT
BRANCH   8  10
HETATM   10  C12 UNL     1      25.138   1.724  51.944  1.00  0.00     0.313 C 
BRANCH  10  11
HETATM   11  N5  UNL     1      26.253   1.171  52.648  1.00  0.00     0.092 N 
HETATM   12  C13 UNL     1      27.325   2.016  53.015  1.00  0.00     0.275 C 
HETATM   13  C14 UNL     1      28.412   1.179  53.677  1.00  0.00     0.065 C 
HETATM   14  C15 UNL     1      27.940  -0.211  54.032  1.00  0.00     0.221 C 
HETATM   15  C16 UNL     1      27.431  -0.937  52.819  1.00  0.00     0.065 C 
HETATM   16  C17 UNL     1      26.779   0.051  51.879  1.00  0.00     0.275 C 
BRANCH  14  17
HETATM   17  N6  UNL     1      26.932  -0.143  55.084  1.00  0.00     0.083 N 
HETATM   18  H18 UNL     1      26.000  -0.402  54.739  1.00  0.00     0.313 HD
HETATM   19  H19 UNL     1      27.234  -0.737  55.881  1.00  0.00     0.313 HD
ENDBRANCH  14  17
ENDBRANCH  10  11
ENDBRANCH   8  10
BRANCH   1  20
HETATM   20  N1  UNL     1      22.933   2.416  49.634  1.00  0.00    -0.339 N 
HETATM   21  H7  UNL     1      23.493   2.135  48.808  1.00  0.00     0.167 HD
BRANCH  20  22
HETATM   22  C5  UNL     1      22.824   3.833  49.911  1.00  0.00     0.040 C 
HETATM   23  C6  UNL     1      22.190   4.927  50.292  1.00  0.00     0.085 C 
HETATM   24 BR1  UNL     1      23.108   6.622  50.304  1.00  0.00    -0.061 Br
BRANCH  22  25
HETATM   25  C4  UNL     1      24.149   4.462  49.624  1.00  0.00     0.029 C 
BRANCH  25  26
HETATM   26  C3  UNL     1      25.452   4.397  49.340  1.00  0.00    -0.002 C 
BRANCH  26  27
HETATM   27  C2  UNL     1      26.876   4.083  49.323  1.00  0.00    -0.026 C 
HETATM   28  C1  UNL     1      27.656   4.898  48.619  1.00  0.00     0.031 C 
ENDBRANCH  26  27
ENDBRANCH  25  26
ENDBRANCH  22  25
ENDBRANCH  20  22
ENDBRANCH   1  20
TORSDOF 8
ENDMDL
MODEL 4
REMARK VINA RESULT:      -6.9      2.990      6.286
REMARK  8 active torsions:
REMARK  status: ('A' for Active; 'I' for Inactive)
REMARK    1  A    between atoms: C2_2  and  C3_3 
REMARK    2  A    between atoms: C3_3  and  C4_4 
REMARK    3  A    between atoms: C4_4  and  C5_5 
REMARK    4  A    between atoms: C5_5  and  N1_8 
REMARK    5  A    between atoms: N1_8  and  C7_9 
REMARK    6  A    between atoms: C11_16  and  C12_17 
REMARK    7  A    between atoms: C12_17  and  N5_18 
REMARK    8  A    between atoms: C15_21  and  N6_22 
ROOT
HETATM    1  C7  UNL     1      23.858  -0.165  53.349  1.00  0.00     0.159 A 
HETATM    2  N2  UNL     1      24.383  -0.911  54.339  1.00  0.00    -0.220 NA
HETATM    3  C8  UNL     1      23.700  -1.358  55.408  1.00  0.00     0.258 A 
HETATM    4  N3  UNL     1      22.396  -1.012  55.460  1.00  0.00    -0.161 NA
HETATM    5  N4  UNL     1      21.821  -0.279  54.517  1.00  0.00    -0.240 N 
HETATM    6  C9  UNL     1      20.594   0.221  54.314  1.00  0.00     0.119 A 
HETATM    7  C10 UNL     1      20.551   0.959  53.129  1.00  0.00     0.030 A 
HETATM    8  C11 UNL     1      21.840   0.918  52.546  1.00  0.00     0.004 A 
HETATM    9  C18 UNL     1      22.519   0.154  53.461  1.00  0.00     0.112 A 
ENDROOT
BRANCH   8  10
HETATM   10  C12 UNL     1      22.050   1.547  51.253  1.00  0.00     0.313 C 
BRANCH  10  11
HETATM   11  N5  UNL     1      22.514   2.897  51.335  1.00  0.00     0.092 N 
HETATM   12  C13 UNL     1      21.582   3.954  51.235  1.00  0.00     0.275 C 
HETATM   13  C14 UNL     1      22.331   5.281  51.273  1.00  0.00     0.065 C 
HETATM   14  C15 UNL     1      23.769   5.123  51.705  1.00  0.00     0.221 C 
HETATM   15  C16 UNL     1      24.505   4.170  50.806  1.00  0.00     0.065 C 
HETATM   16  C17 UNL     1      23.556   3.091  50.335  1.00  0.00     0.275 C 
BRANCH  14  17
HETATM   17  N6  UNL     1      23.829   4.706  53.101  1.00  0.00     0.083 N 
HETATM   18  H18 UNL     1      23.907   3.686  53.193  1.00  0.00     0.313 HD
HETATM   19  H19 UNL     1      24.611   5.203  53.570  1.00  0.00     0.313 HD
ENDBRANCH  14  17
ENDBRANCH  10  11
ENDBRANCH   8  10
BRANCH   1  20
HETATM   20  N1  UNL     1      24.820   0.192  52.333  1.00  0.00    -0.339 N 
HETATM   21  H7  UNL     1      24.844  -0.045  51.325  1.00  0.00     0.167 HD
BRANCH  20  22
HETATM   22  C5  UNL     1      25.879   1.040  52.841  1.00  0.00     0.040 C 
HETATM   23  C6  UNL     1      26.368   2.144  53.375  1.00  0.00     0.085 C 
HETATM   24 BR1  UNL     1      28.259   2.300  53.711  1.00  0.00    -0.061 Br
BRANCH  22  25
HETATM   25  C4  UNL     1      27.167   0.293  52.718  1.00  0.00     0.029 C 
BRANCH  25  26
HETATM   26  C3  UNL     1      27.940  -0.774  52.936  1.00  0.00    -0.002 C 
BRANCH  26  27
HETATM   27  C2  UNL     1      29.037  -1.673  53.278  1.00  0.00    -0.026 C 
HETATM   28  C1  UNL     1      30.141  -1.107  53.758  1.00  0.00     0.031 C 
ENDBRANCH  26  27
ENDBRANCH  25  26
ENDBRANCH  22  25
ENDBRANCH  20  22
ENDBRANCH   1  20
TORSDOF 8
ENDMDL
MODEL 5
REMARK VINA RESULT:      -6.7      3.091      6.685
REMARK  8 active torsions:
REMARK  status: ('A' for Active; 'I' for Inactive)
REMARK    1  A    between atoms: C2_2  and  C3_3 
REMARK    2  A    between atoms: C3_3  and  C4_4 
REMARK    3  A    between atoms: C4_4  and  C5_5 
REMARK    4  A    between atoms: C5_5  and  N1_8 
REMARK    5  A    between atoms: N1_8  and  C7_9 
REMARK    6  A    between atoms: C11_16  and  C12_17 
REMARK    7  A    between atoms: C12_17  and  N5_18 
REMARK    8  A    between atoms: C15_21  and  N6_22 
ROOT
HETATM    1  C7  UNL     1      24.494  -0.421  53.535  1.00  0.00     0.159 A 
HETATM    2  N2  UNL     1      25.063  -1.013  54.601  1.00  0.00    -0.220 NA
HETATM    3  C8  UNL     1      24.395  -1.445  55.686  1.00  0.00     0.258 A 
HETATM    4  N3  UNL     1      23.059  -1.253  55.669  1.00  0.00    -0.161 NA
HETATM    5  N4  UNL     1      22.440  -0.677  54.649  1.00  0.00    -0.240 N 
HETATM    6  C9  UNL     1      21.173  -0.344  54.367  1.00  0.00     0.119 A 
HETATM    7  C10 UNL     1      21.090   0.280  53.120  1.00  0.00     0.030 A 
HETATM    8  C11 UNL     1      22.398   0.343  52.581  1.00  0.00     0.004 A 
HETATM    9  C18 UNL     1      23.124  -0.255  53.579  1.00  0.00     0.112 A 
ENDROOT
BRANCH   8  10
HETATM   10  C12 UNL     1      22.584   0.881  51.243  1.00  0.00     0.313 C 
BRANCH  10  11
HETATM   11  N5  UNL     1      22.289   2.275  51.135  1.00  0.00     0.092 N 
HETATM   12  C13 UNL     1      22.296   2.885  49.860  1.00  0.00     0.275 C 
HETATM   13  C14 UNL     1      22.032   4.376  50.021  1.00  0.00     0.065 C 
HETATM   14  C15 UNL     1      21.545   4.733  51.406  1.00  0.00     0.221 C 
HETATM   15  C16 UNL     1      22.523   4.291  52.457  1.00  0.00     0.065 C 
HETATM   16  C17 UNL     1      23.192   3.010  52.012  1.00  0.00     0.275 C 
BRANCH  14  17
HETATM   17  N6  UNL     1      20.218   4.170  51.630  1.00  0.00     0.083 N 
HETATM   18  H18 UNL     1      19.640   4.775  52.224  1.00  0.00     0.313 HD
HETATM   19  H19 UNL     1      19.772   3.978  50.712  1.00  0.00     0.313 HD
ENDBRANCH  14  17
ENDBRANCH  10  11
ENDBRANCH   8  10
BRANCH   1  20
HETATM   20  N1  UNL     1      25.447  -0.040  52.519  1.00  0.00    -0.339 N 
HETATM   21  H7  UNL     1      25.420  -0.179  51.493  1.00  0.00     0.167 HD
BRANCH  20  22
HETATM   22  C5  UNL     1      26.586   0.673  53.062  1.00  0.00     0.040 C 
HETATM   23  C6  UNL     1      27.563   0.874  53.926  1.00  0.00     0.085 C 
HETATM   24 BR1  UNL     1      28.735   2.391  53.725  1.00  0.00    -0.061 Br
BRANCH  22  25
HETATM   25  C4  UNL     1      26.849   1.855  52.187  1.00  0.00     0.029 C 
BRANCH  25  26
HETATM   26  C3  UNL     1      26.696   2.544  51.054  1.00  0.00    -0.002 C 
BRANCH  26  27
HETATM   27  C2  UNL     1      26.246   3.049  49.761  1.00  0.00    -0.026 C 
HETATM   28  C1  UNL     1      25.846   4.317  49.725  1.00  0.00     0.031 C 
ENDBRANCH  26  27
ENDBRANCH  25  26
ENDBRANCH  22  25
ENDBRANCH  20  22
ENDBRANCH   1  20
TORSDOF 8
ENDMDL
MODEL 6
REMARK VINA RESULT:      -6.7      1.897      2.459
REMARK  8 active torsions:
REMARK  status: ('A' for Active; 'I' for Inactive)
REMARK    1  A    between atoms: C2_2  and  C3_3 
REMARK    2  A    between atoms: C3_3  and  C4_4 
REMARK    3  A    between atoms: C4_4  and  C5_5 
REMARK    4  A    between atoms: C5_5  and  N1_8 
REMARK    5  A    between atoms: N1_8  and  C7_9 
REMARK    6  A    between atoms: C11_16  and  C12_17 
REMARK    7  A    between atoms: C12_17  and  N5_18 
REMARK    8  A    between atoms: C15_21  and  N6_22 
ROOT
HETATM    1  C7  UNL     1      23.583   3.974  51.757  1.00  0.00     0.159 A 
HETATM    2  N2  UNL     1      23.164   5.218  51.458  1.00  0.00    -0.220 NA
HETATM    3  C8  UNL     1      23.816   6.075  50.652  1.00  0.00     0.258 A 
HETATM    4  N3  UNL     1      24.972   5.620  50.123  1.00  0.00    -0.161 NA
HETATM    5  N4  UNL     1      25.437   4.406  50.379  1.00  0.00    -0.240 N 
HETATM    6  C9  UNL     1      26.527   3.710  50.028  1.00  0.00     0.119 A 
HETATM    7  C10 UNL     1      26.519   2.445  50.622  1.00  0.00     0.030 A 
HETATM    8  C11 UNL     1      25.341   2.341  51.400  1.00  0.00     0.004 A 
HETATM    9  C18 UNL     1      24.772   3.569  51.184  1.00  0.00     0.112 A 
ENDROOT
BRANCH   8  10
HETATM   10  C12 UNL     1      25.047   1.084  52.067  1.00  0.00     0.313 C 
BRANCH  10  11
HETATM   11  N5  UNL     1      26.176   0.498  52.720  1.00  0.00     0.092 N 
HETATM   12  C13 UNL     1      26.757  -0.670  52.177  1.00  0.00     0.275 C 
HETATM   13  C14 UNL     1      27.883  -1.136  53.092  1.00  0.00     0.065 C 
HETATM   14  C15 UNL     1      28.264  -0.097  54.119  1.00  0.00     0.221 C 
HETATM   15  C16 UNL     1      27.080   0.297  54.957  1.00  0.00     0.065 C 
HETATM   16  C17 UNL     1      25.828   0.245  54.113  1.00  0.00     0.275 C 
BRANCH  14  17
HETATM   17  N6  UNL     1      28.870   1.056  53.463  1.00  0.00     0.083 N 
HETATM   18  H18 UNL     1      29.064   0.874  52.471  1.00  0.00     0.313 HD
HETATM   19  H19 UNL     1      28.257   1.884  53.598  1.00  0.00     0.313 HD
ENDBRANCH  14  17
ENDBRANCH  10  11
ENDBRANCH   8  10
BRANCH   1  20
HETATM   20  N1  UNL     1      22.699   3.278  52.662  1.00  0.00    -0.339 N 
HETATM   21  H7  UNL     1      22.692   3.250  53.698  1.00  0.00     0.167 HD
BRANCH  20  22
HETATM   22  C5  UNL     1      21.658   2.545  51.972  1.00  0.00     0.040 C 
HETATM   23  C6  UNL     1      20.767   2.358  51.016  1.00  0.00     0.085 C 
HETATM   24 BR1  UNL     1      19.690   0.759  50.996  1.00  0.00    -0.061 Br
BRANCH  22  25
HETATM   25  C4  UNL     1      21.421   1.270  52.715  1.00  0.00     0.029 C 
BRANCH  25  26
HETATM   26  C3  UNL     1      21.562   0.481  53.783  1.00  0.00    -0.002 C 
BRANCH  26  27
HETATM   27  C2  UNL     1      21.771  -0.648  54.683  1.00  0.00    -0.026 C 
HETATM   28  C1  UNL     1      21.137  -1.777  54.377  1.00  0.00     0.031 C 
ENDBRANCH  26  27
ENDBRANCH  25  26
ENDBRANCH  22  25
ENDBRANCH  20  22
ENDBRANCH   1  20
TORSDOF 8
ENDMDL
MODEL 7
REMARK VINA RESULT:      -6.3      3.452      6.955
REMARK  8 active torsions:
REMARK  status: ('A' for Active; 'I' for Inactive)
REMARK    1  A    between atoms: C2_2  and  C3_3 
REMARK    2  A    between atoms: C3_3  and  C4_4 
REMARK    3  A    between atoms: C4_4  and  C5_5 
REMARK    4  A    between atoms: C5_5  and  N1_8 
REMARK    5  A    between atoms: N1_8  and  C7_9 
REMARK    6  A    between atoms: C11_16  and  C12_17 
REMARK    7  A    between atoms: C12_17  and  N5_18 
REMARK    8  A    between atoms: C15_21  and  N6_22 
ROOT
HETATM    1  C7  UNL     1      26.778   1.798  52.153  1.00  0.00     0.159 A 
HETATM    2  N2  UNL     1      27.963   2.362  52.449  1.00  0.00    -0.220 NA
HETATM    3  C8  UNL     1      28.597   2.243  53.629  1.00  0.00     0.258 A 
HETATM    4  N3  UNL     1      27.966   1.497  54.562  1.00  0.00    -0.161 NA
HETATM    5  N4  UNL     1      26.798   0.916  54.332  1.00  0.00    -0.240 N 
HETATM    6  C9  UNL     1      25.952   0.159  55.045  1.00  0.00     0.119 A 
HETATM    7  C10 UNL     1      24.824  -0.169  54.290  1.00  0.00     0.030 A 
HETATM    8  C11 UNL     1      24.973   0.421  53.012  1.00  0.00     0.004 A 
HETATM    9  C18 UNL     1      26.186   1.047  53.149  1.00  0.00     0.112 A 
ENDROOT
BRANCH   8  10
HETATM   10  C12 UNL     1      23.965   0.166  51.996  1.00  0.00     0.313 C 
BRANCH  10  11
HETATM   11  N5  UNL     1      22.623   0.315  52.464  1.00  0.00     0.092 N 
HETATM   12  C13 UNL     1      21.618  -0.543  51.961  1.00  0.00     0.275 C 
HETATM   13  C14 UNL     1      20.275  -0.132  52.551  1.00  0.00     0.065 C 
HETATM   14  C15 UNL     1      20.417   0.833  53.703  1.00  0.00     0.221 C 
HETATM   15  C16 UNL     1      21.168   2.067  53.288  1.00  0.00     0.065 C 
HETATM   16  C17 UNL     1      22.209   1.697  52.255  1.00  0.00     0.275 C 
BRANCH  14  17
HETATM   17  N6  UNL     1      21.051   0.170  54.836  1.00  0.00     0.083 N 
HETATM   18  H18 UNL     1      21.012  -0.853  54.753  1.00  0.00     0.313 HD
HETATM   19  H19 UNL     1      22.024   0.519  54.933  1.00  0.00     0.313 HD
ENDBRANCH  14  17
ENDBRANCH  10  11
ENDBRANCH   8  10
BRANCH   1  20
HETATM   20  N1  UNL     1      26.319   2.104  50.819  1.00  0.00    -0.339 N 
HETATM   21  H7  UNL     1      26.392   1.552  49.945  1.00  0.00     0.167 HD
BRANCH  20  22
HETATM   22  C5  UNL     1      25.624   3.373  50.745  1.00  0.00     0.040 C 
HETATM   23  C6  UNL     1      24.710   4.253  51.108  1.00  0.00     0.085 C 
HETATM   24 BR1  UNL     1      24.603   5.960  50.219  1.00  0.00    -0.061 Br
BRANCH  22  25
HETATM   25  C4  UNL     1      26.266   4.187  49.669  1.00  0.00     0.029 C 
BRANCH  25  26
HETATM   26  C3  UNL     1      27.328   4.600  48.973  1.00  0.00    -0.002 C 
BRANCH  26  27
HETATM   27  C2  UNL     1      28.367   5.394  48.325  1.00  0.00    -0.026 C 
HETATM   28  C1  UNL     1      28.074   6.667  48.078  1.00  0.00     0.031 C 
ENDBRANCH  26  27
ENDBRANCH  25  26
ENDBRANCH  22  25
ENDBRANCH  20  22
ENDBRANCH   1  20
TORSDOF 8
ENDMDL
MODEL 8
REMARK VINA RESULT:      -6.3      2.727      5.910
REMARK  8 active torsions:
REMARK  status: ('A' for Active; 'I' for Inactive)
REMARK    1  A    between atoms: C2_2  and  C3_3 
REMARK    2  A    between atoms: C3_3  and  C4_4 
REMARK    3  A    between atoms: C4_4  and  C5_5 
REMARK    4  A    between atoms: C5_5  and  N1_8 
REMARK    5  A    between atoms: N1_8  and  C7_9 
REMARK    6  A    between atoms: C11_16  and  C12_17 
REMARK    7  A    between atoms: C12_17  and  N5_18 
REMARK    8  A    between atoms: C15_21  and  N6_22 
ROOT
HETATM    1  C7  UNL     1      23.724   2.990  51.002  1.00  0.00     0.159 A 
HETATM    2  N2  UNL     1      24.600   4.009  50.931  1.00  0.00    -0.220 NA
HETATM    3  C8  UNL     1      24.830   4.749  49.831  1.00  0.00     0.258 A 
HETATM    4  N3  UNL     1      24.112   4.414  48.737  1.00  0.00    -0.161 NA
HETATM    5  N4  UNL     1      23.235   3.422  48.744  1.00  0.00    -0.240 N 
HETATM    6  C9  UNL     1      22.419   2.864  47.838  1.00  0.00     0.119 A 
HETATM    7  C10 UNL     1      21.709   1.801  48.399  1.00  0.00     0.030 A 
HETATM    8  C11 UNL     1      22.105   1.683  49.753  1.00  0.00     0.004 A 
HETATM    9  C18 UNL     1      23.021   2.699  49.850  1.00  0.00     0.112 A 
ENDROOT
BRANCH   8  10
HETATM   10  C12 UNL     1      21.452   0.694  50.595  1.00  0.00     0.313 C 
BRANCH  10  11
HETATM   11  N5  UNL     1      20.059   0.940  50.802  1.00  0.00     0.092 N 
HETATM   12  C13 UNL     1      19.638   2.231  51.193  1.00  0.00     0.275 C 
HETATM   13  C14 UNL     1      18.131   2.213  51.422  1.00  0.00     0.065 C 
HETATM   14  C15 UNL     1      17.478   0.959  50.890  1.00  0.00     0.221 C 
HETATM   15  C16 UNL     1      18.084  -0.271  51.504  1.00  0.00     0.065 C 
HETATM   16  C17 UNL     1      19.553  -0.031  51.764  1.00  0.00     0.275 C 
BRANCH  14  17
HETATM   17  N6  UNL     1      17.559   0.933  49.434  1.00  0.00     0.083 N 
HETATM   18  H18 UNL     1      16.634   1.029  48.997  1.00  0.00     0.313 HD
HETATM   19  H19 UNL     1      18.221   1.667  49.118  1.00  0.00     0.313 HD
ENDBRANCH  14  17
ENDBRANCH  10  11
ENDBRANCH   8  10
BRANCH   1  20
HETATM   20  N1  UNL     1      23.691   2.356  52.299  1.00  0.00    -0.339 N 
HETATM   21  H7  UNL     1      23.059   2.517  53.104  1.00  0.00     0.167 HD
BRANCH  20  22
HETATM   22  C5  UNL     1      24.692   1.319  52.439  1.00  0.00     0.040 C 
HETATM   23  C6  UNL     1      25.892   0.792  52.276  1.00  0.00     0.085 C 
HETATM   24 BR1  UNL     1      26.276  -0.969  52.960  1.00  0.00    -0.061 Br
BRANCH  22  25
HETATM   25  C4  UNL     1      24.075   0.180  53.183  1.00  0.00     0.029 C 
BRANCH  25  26
HETATM   26  C3  UNL     1      23.058  -0.401  53.826  1.00  0.00    -0.002 C 
BRANCH  26  27
HETATM   27  C2  UNL     1      21.943  -0.703  54.715  1.00  0.00    -0.026 C 
HETATM   28  C1  UNL     1      21.258  -1.813  54.453  1.00  0.00     0.031 C 
ENDBRANCH  26  27
ENDBRANCH  25  26
ENDBRANCH  22  25
ENDBRANCH  20  22
ENDBRANCH   1  20
TORSDOF 8
ENDMDL
MODEL 9
REMARK VINA RESULT:      -6.1      4.082      7.632
REMARK  8 active torsions:
REMARK  status: ('A' for Active; 'I' for Inactive)
REMARK    1  A    between atoms: C2_2  and  C3_3 
REMARK    2  A    between atoms: C3_3  and  C4_4 
REMARK    3  A    between atoms: C4_4  and  C5_5 
REMARK    4  A    between atoms: C5_5  and  N1_8 
REMARK    5  A    between atoms: N1_8  and  C7_9 
REMARK    6  A    between atoms: C11_16  and  C12_17 
REMARK    7  A    between atoms: C12_17  and  N5_18 
REMARK    8  A    between atoms: C15_21  and  N6_22 
ROOT
HETATM    1  C7  UNL     1      26.044   2.541  50.965  1.00  0.00     0.159 A 
HETATM    2  N2  UNL     1      27.238   2.537  51.584  1.00  0.00    -0.220 NA
HETATM    3  C8  UNL     1      27.471   2.013  52.801  1.00  0.00     0.258 A 
HETATM    4  N3  UNL     1      26.404   1.461  53.417  1.00  0.00    -0.161 NA
HETATM    5  N4  UNL     1      25.202   1.434  52.860  1.00  0.00    -0.240 N 
HETATM    6  C9  UNL     1      23.992   0.989  53.226  1.00  0.00     0.119 A 
HETATM    7  C10 UNL     1      23.048   1.246  52.229  1.00  0.00     0.030 A 
HETATM    8  C11 UNL     1      23.712   1.898  51.162  1.00  0.00     0.004 A 
HETATM    9  C18 UNL     1      24.993   1.960  51.648  1.00  0.00     0.112 A 
ENDROOT
BRANCH   8  10
HETATM   10  C12 UNL     1      22.967   2.210  49.954  1.00  0.00     0.313 C 
BRANCH  10  11
HETATM   11  N5  UNL     1      21.625   2.639  50.196  1.00  0.00     0.092 N 
HETATM   12  C13 UNL     1      20.580   2.117  49.401  1.00  0.00     0.275 C 
HETATM   13  C14 UNL     1      19.271   2.785  49.802  1.00  0.00     0.065 C 
HETATM   14  C15 UNL     1      19.385   3.557  51.095  1.00  0.00     0.221 C 
HETATM   15  C16 UNL     1      20.463   4.601  51.010  1.00  0.00     0.065 C 
HETATM   16  C17 UNL     1      21.584   4.094  50.132  1.00  0.00     0.275 C 
BRANCH  14  17
HETATM   17  N6  UNL     1      19.606   2.641  52.207  1.00  0.00     0.083 N 
HETATM   18  H18 UNL     1      19.258   1.696  52.000  1.00  0.00     0.313 HD
HETATM   19  H19 UNL     1      20.615   2.643  52.453  1.00  0.00     0.313 HD
ENDBRANCH  14  17
ENDBRANCH  10  11
ENDBRANCH   8  10
BRANCH   1  20
HETATM   20  N1  UNL     1      26.073   3.186  49.673  1.00  0.00    -0.339 N 
HETATM   21  H7  UNL     1      26.204   2.781  48.728  1.00  0.00     0.167 HD
BRANCH  20  22
HETATM   22  C5  UNL     1      25.846   4.614  49.757  1.00  0.00     0.040 C 
HETATM   23  C6  UNL     1      25.218   5.697  50.175  1.00  0.00     0.085 C 
HETATM   24 BR1  UNL     1      25.811   7.440  49.604  1.00  0.00    -0.061 Br
BRANCH  22  25
HETATM   25  C4  UNL     1      26.880   5.295  48.921  1.00  0.00     0.029 C 
BRANCH  25  26
HETATM   26  C3  UNL     1      28.102   5.380  48.388  1.00  0.00    -0.002 C 
BRANCH  26  27
HETATM   27  C2  UNL     1      29.505   5.674  48.121  1.00  0.00    -0.026 C 
HETATM   28  C1  UNL     1      29.767   6.841  47.538  1.00  0.00     0.031 C 
ENDBRANCH  26  27
ENDBRANCH  25  26
ENDBRANCH  22  25
ENDBRANCH  20  22
ENDBRANCH   1  20
TORSDOF 8
ENDMDL
