MODEL 1
REMARK VINA RESULT:      -8.0      0.000      0.000
REMARK  4 active torsions:
REMARK  status: ('A' for Active; 'I' for Inactive)
REMARK    1  A    between atoms: C2_2  and  N1_3 
REMARK    2  A    between atoms: N3_10  and  N4_11 
REMARK    3  A    between atoms: C11_15  and  N5_16 
REMARK    4  A    between atoms: N5_16  and  C12_17 
ROOT
HETATM    1  N4  UNL     1      24.511   2.363  51.031  1.00  0.00    -0.313 N 
HETATM    2  C8  UNL     1      23.306   1.768  50.669  1.00  0.00     0.147 C 
HETATM    3  C9  UNL     1      22.419   1.627  51.905  1.00  0.00     0.050 C 
HETATM    4  C10 UNL     1      23.143   0.728  52.847  1.00  0.00     0.002 C 
HETATM    5  C11 UNL     1      24.454   0.909  52.894  1.00  0.00     0.025 C 
HETATM    6  C17 UNL     1      25.250   1.891  52.124  1.00  0.00     0.199 C 
ENDROOT
BRANCH   1   7
HETATM    7  N3  UNL     1      25.049   3.368  50.280  1.00  0.00    -0.238 N 
HETATM    8  C3  UNL     1      24.272   4.580  50.160  1.00  0.00     0.124 C 
HETATM    9  N1  UNL     1      23.472   4.665  51.196  1.00  0.00    -0.275 NA
HETATM   10  C4  UNL     1      24.414   5.535  49.011  1.00  0.00     0.108 C 
HETATM   11  C5  UNL     1      25.800   5.995  48.908  1.00  0.00     0.000 C 
HETATM   12  C6  UNL     1      26.925   5.329  48.946  1.00  0.00     0.114 C 
HETATM   13  N2  UNL     1      27.178   3.918  49.103  1.00  0.00    -0.254 NA
HETATM   14  C7  UNL     1      26.339   3.098  49.689  1.00  0.00     0.233 C 
BRANCH   9  15
HETATM   15  C2  UNL     1      22.614   5.833  51.235  1.00  0.00     0.146 C 
HETATM   16  C1  UNL     1      21.182   5.497  50.889  1.00  0.00     0.028 C 
ENDBRANCH   9  15
ENDBRANCH   1   7
BRANCH   5  17
HETATM   17  N5  UNL     1      25.183   0.061  53.790  1.00  0.00    -0.361 N 
HETATM   18  H16 UNL     1      24.662  -0.470  54.542  1.00  0.00     0.165 HD
BRANCH  17  19
HETATM   19  C12 UNL     1      26.599  -0.208  53.842  1.00  0.00     0.021 A 
HETATM   20  C13 UNL     1      27.355   0.529  54.606  1.00  0.00     0.026 A 
HETATM   21  C14 UNL     1      28.780   0.373  54.754  1.00  0.00     0.011 A 
HETATM   22  C15 UNL     1      29.353  -0.595  54.055  1.00  0.00     0.079 A 
HETATM   23  S1  UNL     1      28.577  -1.738  52.945  1.00  0.00     0.044 S 
HETATM   24  O1  UNL     1      28.732  -3.142  53.518  1.00  0.00    -0.253 OA
HETATM   25  C16 UNL     1      26.821  -1.352  52.927  1.00  0.00     0.170 A 
ENDBRANCH  17  19
ENDBRANCH   5  17
TORSDOF 4
ENDMDL
MODEL 2
REMARK VINA RESULT:      -7.7      1.866      3.349
REMARK  4 active torsions:
REMARK  status: ('A' for Active; 'I' for Inactive)
REMARK    1  A    between atoms: C2_2  and  N1_3 
REMARK    2  A    between atoms: N3_10  and  N4_11 
REMARK    3  A    between atoms: C11_15  and  N5_16 
REMARK    4  A    between atoms: N5_16  and  C12_17 
ROOT
HETATM    1  N4  UNL     1      22.681   1.852  52.045  1.00  0.00    -0.313 N 
HETATM    2  C8  UNL     1      22.078   0.882  51.249  1.00  0.00     0.147 C 
HETATM    3  C9  UNL     1      21.375  -0.140  52.142  1.00  0.00     0.050 C 
HETATM    4  C10 UNL     1      22.434  -0.779  52.971  1.00  0.00     0.002 C 
HETATM    5  C11 UNL     1      23.383   0.041  53.394  1.00  0.00     0.025 C 
HETATM    6  C17 UNL     1      23.493   1.494  53.130  1.00  0.00     0.199 C 
ENDROOT
BRANCH   1   7
HETATM    7  N3  UNL     1      22.567   3.177  51.740  1.00  0.00    -0.238 N 
HETATM    8  C3  UNL     1      23.795   3.896  51.486  1.00  0.00     0.124 C 
HETATM    9  N1  UNL     1      24.706   3.038  51.097  1.00  0.00    -0.275 NA
HETATM   10  C4  UNL     1      23.927   5.380  51.662  1.00  0.00     0.108 C 
HETATM   11  C5  UNL     1      22.937   6.075  50.836  1.00  0.00     0.000 C 
HETATM   12  C6  UNL     1      21.658   5.858  50.675  1.00  0.00     0.114 C 
HETATM   13  N2  UNL     1      20.791   4.861  51.255  1.00  0.00    -0.254 NA
HETATM   14  C7  UNL     1      21.224   3.708  51.706  1.00  0.00     0.233 C 
BRANCH   9  15
HETATM   15  C2  UNL     1      26.010   3.596  50.798  1.00  0.00     0.146 C 
HETATM   16  C1  UNL     1      26.302   3.595  49.315  1.00  0.00     0.028 C 
ENDBRANCH   9  15
ENDBRANCH   1   7
BRANCH   5  17
HETATM   17  N5  UNL     1      24.419  -0.540  54.195  1.00  0.00    -0.361 N 
HETATM   18  H16 UNL     1      24.166  -1.020  55.103  1.00  0.00     0.165 HD
BRANCH  17  19
HETATM   19  C12 UNL     1      25.841  -0.585  53.956  1.00  0.00     0.021 A 
HETATM   20  C13 UNL     1      26.289  -1.254  52.932  1.00  0.00     0.026 A 
HETATM   21  C14 UNL     1      27.679  -1.383  52.575  1.00  0.00     0.011 A 
HETATM   22  C15 UNL     1      28.558  -0.771  53.355  1.00  0.00     0.079 A 
HETATM   23  S1  UNL     1      28.234   0.200  54.802  1.00  0.00     0.044 S 
HETATM   24  O1  UNL     1      28.673   1.633  54.525  1.00  0.00    -0.253 OA
HETATM   25  C16 UNL     1      26.452   0.217  55.042  1.00  0.00     0.170 A 
ENDBRANCH  17  19
ENDBRANCH   5  17
TORSDOF 4
ENDMDL
MODEL 3
REMARK VINA RESULT:      -7.6      3.839      6.900
REMARK  4 active torsions:
REMARK  status: ('A' for Active; 'I' for Inactive)
REMARK    1  A    between atoms: C2_2  and  N1_3 
REMARK    2  A    between atoms: N3_10  and  N4_11 
REMARK    3  A    between atoms: C11_15  and  N5_16 
REMARK    4  A    between atoms: N5_16  and  C12_17 
ROOT
HETATM    1  N4  UNL     1      25.675   2.714  52.520  1.00  0.00    -0.313 N 
HETATM    2  C8  UNL     1      24.524   3.296  53.044  1.00  0.00     0.147 C 
HETATM    3  C9  UNL     1      23.354   3.048  52.093  1.00  0.00     0.050 C 
HETATM    4  C10 UNL     1      23.700   3.721  50.810  1.00  0.00     0.002 C 
HETATM    5  C11 UNL     1      24.972   3.628  50.456  1.00  0.00     0.025 C 
HETATM    6  C17 UNL     1      26.057   2.939  51.190  1.00  0.00     0.199 C 
ENDROOT
BRANCH   1   7
HETATM    7  N3  UNL     1      26.510   1.979  53.312  1.00  0.00    -0.238 N 
HETATM    8  C3  UNL     1      25.976   0.754  53.861  1.00  0.00     0.124 C 
HETATM    9  N1  UNL     1      25.002   0.342  53.088  1.00  0.00    -0.275 NA
HETATM   10  C4  UNL     1      26.505   0.120  55.114  1.00  0.00     0.108 C 
HETATM   11  C5  UNL     1      27.938  -0.152  54.975  1.00  0.00     0.000 C 
HETATM   12  C6  UNL     1      28.909   0.601  54.532  1.00  0.00     0.114 C 
HETATM   13  N2  UNL     1      28.899   1.954  54.031  1.00  0.00    -0.254 NA
HETATM   14  C7  UNL     1      27.836   2.517  53.507  1.00  0.00     0.233 C 
BRANCH   9  15
HETATM   15  C2  UNL     1      24.350  -0.887  53.498  1.00  0.00     0.146 C 
HETATM   16  C1  UNL     1      22.853  -0.829  53.300  1.00  0.00     0.028 C 
ENDBRANCH   9  15
ENDBRANCH   1   7
BRANCH   5  17
HETATM   17  N5  UNL     1      25.341   4.265  49.227  1.00  0.00    -0.361 N 
HETATM   18  H16 UNL     1      24.814   4.028  48.341  1.00  0.00     0.165 HD
BRANCH  17  19
HETATM   19  C12 UNL     1      26.377   5.238  48.978  1.00  0.00     0.021 A 
HETATM   20  C13 UNL     1      27.551   4.826  48.594  1.00  0.00     0.026 A 
HETATM   21  C14 UNL     1      28.674   5.683  48.310  1.00  0.00     0.011 A 
HETATM   22  C15 UNL     1      28.486   6.986  48.457  1.00  0.00     0.079 A 
HETATM   23  S1  UNL     1      27.006   7.819  48.963  1.00  0.00     0.044 S 
HETATM   24  O1  UNL     1      26.522   8.682  47.804  1.00  0.00    -0.253 OA
HETATM   25  C16 UNL     1      25.759   6.556  49.255  1.00  0.00     0.170 A 
ENDBRANCH  17  19
ENDBRANCH   5  17
TORSDOF 4
ENDMDL
MODEL 4
REMARK VINA RESULT:      -7.5      1.960      3.456
REMARK  4 active torsions:
REMARK  status: ('A' for Active; 'I' for Inactive)
REMARK    1  A    between atoms: C2_2  and  N1_3 
REMARK    2  A    between atoms: N3_10  and  N4_11 
REMARK    3  A    between atoms: C11_15  and  N5_16 
REMARK    4  A    between atoms: N5_16  and  C12_17 
ROOT
HETATM    1  N4  UNL     1      23.003   3.696  51.093  1.00  0.00    -0.313 N 
HETATM    2  C8  UNL     1      22.727   2.834  50.036  1.00  0.00     0.147 C 
HETATM    3  C9  UNL     1      21.830   1.699  50.528  1.00  0.00     0.050 C 
HETATM    4  C10 UNL     1      22.605   0.965  51.566  1.00  0.00     0.002 C 
HETATM    5  C11 UNL     1      23.333   1.730  52.364  1.00  0.00     0.025 C 
HETATM    6  C17 UNL     1      23.451   3.205  52.327  1.00  0.00     0.199 C 
ENDROOT
BRANCH   1   7
HETATM    7  N3  UNL     1      22.927   5.049  50.930  1.00  0.00    -0.238 N 
HETATM    8  C3  UNL     1      24.147   5.732  50.564  1.00  0.00     0.124 C 
HETATM    9  N1  UNL     1      24.939   4.875  49.968  1.00  0.00    -0.275 NA
HETATM   10  C4  UNL     1      24.392   7.184  50.853  1.00  0.00     0.108 C 
HETATM   11  C5  UNL     1      23.337   8.002  50.250  1.00  0.00     0.000 C 
HETATM   12  C6  UNL     1      22.038   7.861  50.261  1.00  0.00     0.114 C 
HETATM   13  N2  UNL     1      21.205   6.853  50.870  1.00  0.00    -0.254 NA
HETATM   14  C7  UNL     1      21.627   5.642  51.145  1.00  0.00     0.233 C 
BRANCH   9  15
HETATM   15  C2  UNL     1      26.218   5.399  49.531  1.00  0.00     0.146 C 
HETATM   16  C1  UNL     1      27.121   4.315  48.989  1.00  0.00     0.028 C 
ENDBRANCH   9  15
ENDBRANCH   1   7
BRANCH   5  17
HETATM   17  N5  UNL     1      24.093   1.057  53.376  1.00  0.00    -0.361 N 
HETATM   18  H16 UNL     1      23.643   0.848  54.310  1.00  0.00     0.165 HD
BRANCH  17  19
HETATM   19  C12 UNL     1      25.456   0.587  53.332  1.00  0.00     0.021 A 
HETATM   20  C13 UNL     1      25.700  -0.598  52.850  1.00  0.00     0.026 A 
HETATM   21  C14 UNL     1      27.009  -1.193  52.746  1.00  0.00     0.011 A 
HETATM   22  C15 UNL     1      28.032  -0.471  53.178  1.00  0.00     0.079 A 
HETATM   23  S1  UNL     1      27.993   1.157  53.877  1.00  0.00     0.044 S 
HETATM   24  O1  UNL     1      28.747   2.097  52.943  1.00  0.00    -0.253 OA
HETATM   25  C16 UNL     1      26.273   1.684  53.901  1.00  0.00     0.170 A 
ENDBRANCH  17  19
ENDBRANCH   5  17
TORSDOF 4
ENDMDL
MODEL 5
REMARK VINA RESULT:      -7.4      4.062      7.003
REMARK  4 active torsions:
REMARK  status: ('A' for Active; 'I' for Inactive)
REMARK    1  A    between atoms: C2_2  and  N1_3 
REMARK    2  A    between atoms: N3_10  and  N4_11 
REMARK    3  A    between atoms: C11_15  and  N5_16 
REMARK    4  A    between atoms: N5_16  and  C12_17 
ROOT
HETATM    1  N4  UNL     1      25.533   2.497  52.224  1.00  0.00    -0.313 N 
HETATM    2  C8  UNL     1      25.642   2.540  50.837  1.00  0.00     0.147 C 
HETATM    3  C9  UNL     1      25.344   3.957  50.349  1.00  0.00     0.050 C 
HETATM    4  C10 UNL     1      23.937   4.253  50.737  1.00  0.00     0.002 C 
HETATM    5  C11 UNL     1      23.576   3.788  51.923  1.00  0.00     0.025 C 
HETATM    6  C17 UNL     1      24.410   3.024  52.877  1.00  0.00     0.199 C 
ENDROOT
BRANCH   1   7
HETATM    7  N3  UNL     1      26.477   1.864  52.981  1.00  0.00    -0.238 N 
HETATM    8  C3  UNL     1      26.025   0.761  53.797  1.00  0.00     0.124 C 
HETATM    9  N1  UNL     1      24.933   0.269  53.265  1.00  0.00    -0.275 NA
HETATM   10  C4  UNL     1      26.743   0.311  55.036  1.00  0.00     0.108 C 
HETATM   11  C5  UNL     1      28.130  -0.033  54.717  1.00  0.00     0.000 C 
HETATM   12  C6  UNL     1      29.026   0.605  54.011  1.00  0.00     0.114 C 
HETATM   13  N2  UNL     1      28.950   1.862  53.307  1.00  0.00    -0.254 NA
HETATM   14  C7  UNL     1      27.823   2.376  52.875  1.00  0.00     0.233 C 
BRANCH   9  15
HETATM   15  C2  UNL     1      24.342  -0.855  53.964  1.00  0.00     0.146 C 
HETATM   16  C1  UNL     1      22.842  -0.721  54.089  1.00  0.00     0.028 C 
ENDBRANCH   9  15
ENDBRANCH   1   7
BRANCH   5  17
HETATM   17  N5  UNL     1      22.228   4.054  52.329  1.00  0.00    -0.361 N 
HETATM   18  H16 UNL     1      22.013   4.937  52.869  1.00  0.00     0.165 HD
BRANCH  17  19
HETATM   19  C12 UNL     1      21.037   3.269  52.110  1.00  0.00     0.021 A 
HETATM   20  C13 UNL     1      21.023   2.023  52.491  1.00  0.00     0.026 A 
HETATM   21  C14 UNL     1      19.906   1.126  52.336  1.00  0.00     0.011 A 
HETATM   22  C15 UNL     1      18.818   1.616  51.761  1.00  0.00     0.079 A 
HETATM   23  S1  UNL     1      18.560   3.260  51.150  1.00  0.00     0.044 S 
HETATM   24  O1  UNL     1      17.454   3.909  51.974  1.00  0.00    -0.253 OA
HETATM   25  C16 UNL     1      20.073   4.183  51.453  1.00  0.00     0.170 A 
ENDBRANCH  17  19
ENDBRANCH   5  17
TORSDOF 4
ENDMDL
MODEL 6
REMARK VINA RESULT:      -7.2      4.047      6.940
REMARK  4 active torsions:
REMARK  status: ('A' for Active; 'I' for Inactive)
REMARK    1  A    between atoms: C2_2  and  N1_3 
REMARK    2  A    between atoms: N3_10  and  N4_11 
REMARK    3  A    between atoms: C11_15  and  N5_16 
REMARK    4  A    between atoms: N5_16  and  C12_17 
ROOT
HETATM    1  N4  UNL     1      24.635   3.241  52.105  1.00  0.00    -0.313 N 
HETATM    2  C8  UNL     1      23.901   3.965  53.040  1.00  0.00     0.147 C 
HETATM    3  C9  UNL     1      22.595   4.437  52.402  1.00  0.00     0.050 C 
HETATM    4  C10 UNL     1      22.972   5.336  51.277  1.00  0.00     0.002 C 
HETATM    5  C11 UNL     1      24.034   4.950  50.586  1.00  0.00     0.025 C 
HETATM    6  C17 UNL     1      24.862   3.745  50.817  1.00  0.00     0.199 C 
ENDROOT
BRANCH   1   7
HETATM    7  N3  UNL     1      25.227   2.059  52.445  1.00  0.00    -0.238 N 
HETATM    8  C3  UNL     1      24.349   0.954  52.754  1.00  0.00     0.124 C 
HETATM    9  N1  UNL     1      23.200   1.157  52.155  1.00  0.00    -0.275 NA
HETATM   10  C4  UNL     1      24.756  -0.198  53.625  1.00  0.00     0.108 C 
HETATM   11  C5  UNL     1      25.952  -0.843  53.079  1.00  0.00     0.000 C 
HETATM   12  C6  UNL     1      27.070  -0.331  52.636  1.00  0.00     0.114 C 
HETATM   13  N2  UNL     1      27.503   1.041  52.536  1.00  0.00    -0.254 NA
HETATM   14  C7  UNL     1      26.672   2.052  52.455  1.00  0.00     0.233 C 
BRANCH   9  15
HETATM   15  C2  UNL     1      22.194   0.134  52.362  1.00  0.00     0.146 C 
HETATM   16  C1  UNL     1      21.121   0.580  53.328  1.00  0.00     0.028 C 
ENDBRANCH   9  15
ENDBRANCH   1   7
BRANCH   5  17
HETATM   17  N5  UNL     1      24.426   5.791  49.495  1.00  0.00    -0.361 N 
HETATM   18  H16 UNL     1      23.789   5.886  48.657  1.00  0.00     0.165 HD
BRANCH  17  19
HETATM   19  C12 UNL     1      25.622   6.583  49.337  1.00  0.00     0.021 A 
HETATM   20  C13 UNL     1      26.557   6.162  48.534  1.00  0.00     0.026 A 
HETATM   21  C14 UNL     1      27.799   6.848  48.281  1.00  0.00     0.011 A 
HETATM   22  C15 UNL     1      27.992   7.992  48.921  1.00  0.00     0.079 A 
HETATM   23  S1  UNL     1      26.901   8.795  50.063  1.00  0.00     0.044 S 
HETATM   24  O1  UNL     1      26.466  10.124  49.456  1.00  0.00    -0.253 OA
HETATM   25  C16 UNL     1      25.436   7.763  50.213  1.00  0.00     0.170 A 
ENDBRANCH  17  19
ENDBRANCH   5  17
TORSDOF 4
ENDMDL
MODEL 7
REMARK VINA RESULT:      -7.1      4.534      8.156
REMARK  4 active torsions:
REMARK  status: ('A' for Active; 'I' for Inactive)
REMARK    1  A    between atoms: C2_2  and  N1_3 
REMARK    2  A    between atoms: N3_10  and  N4_11 
REMARK    3  A    between atoms: C11_15  and  N5_16 
REMARK    4  A    between atoms: N5_16  and  C12_17 
ROOT
HETATM    1  N4  UNL     1      23.085   2.570  51.803  1.00  0.00    -0.313 N 
HETATM    2  C8  UNL     1      23.399   2.339  50.467  1.00  0.00     0.147 C 
HETATM    3  C9  UNL     1      24.725   3.022  50.133  1.00  0.00     0.050 C 
HETATM    4  C10 UNL     1      24.514   4.481  50.339  1.00  0.00     0.002 C 
HETATM    5  C11 UNL     1      23.764   4.795  51.383  1.00  0.00     0.025 C 
HETATM    6  C17 UNL     1      23.131   3.863  52.343  1.00  0.00     0.199 C 
ENDROOT
BRANCH   1   7
HETATM    7  N3  UNL     1      22.641   1.557  52.603  1.00  0.00    -0.238 N 
HETATM    8  C3  UNL     1      23.628   0.604  53.057  1.00  0.00     0.124 C 
HETATM    9  N1  UNL     1      24.804   1.184  53.041  1.00  0.00    -0.275 NA
HETATM   10  C4  UNL     1      23.286  -0.799  53.464  1.00  0.00     0.108 C 
HETATM   11  C5  UNL     1      22.292  -0.784  54.539  1.00  0.00     0.000 C 
HETATM   12  C6  UNL     1      21.181  -0.107  54.663  1.00  0.00     0.114 C 
HETATM   13  N2  UNL     1      20.560   0.853  53.783  1.00  0.00    -0.254 NA
HETATM   14  C7  UNL     1      21.228   1.556  52.901  1.00  0.00     0.233 C 
BRANCH   9  15
HETATM   15  C2  UNL     1      25.917   0.362  53.472  1.00  0.00     0.146 C 
HETATM   16  C1  UNL     1      26.762  -0.105  52.309  1.00  0.00     0.028 C 
ENDBRANCH   9  15
ENDBRANCH   1   7
BRANCH   5  17
HETATM   17  N5  UNL     1      23.541   6.192  51.612  1.00  0.00    -0.361 N 
HETATM   18  H16 UNL     1      23.813   6.616  52.542  1.00  0.00     0.165 HD
BRANCH  17  19
HETATM   19  C12 UNL     1      22.970   7.181  50.731  1.00  0.00     0.021 A 
HETATM   20  C13 UNL     1      23.766   7.958  50.053  1.00  0.00     0.026 A 
HETATM   21  C14 UNL     1      23.335   8.986  49.140  1.00  0.00     0.011 A 
HETATM   22  C15 UNL     1      22.029   9.143  48.987  1.00  0.00     0.079 A 
HETATM   23  S1  UNL     1      20.727   8.236  49.776  1.00  0.00     0.044 S 
HETATM   24  O1  UNL     1      19.958   7.472  48.704  1.00  0.00    -0.253 OA
HETATM   25  C16 UNL     1      21.502   7.023  50.854  1.00  0.00     0.170 A 
ENDBRANCH  17  19
ENDBRANCH   5  17
TORSDOF 4
ENDMDL
MODEL 8
REMARK VINA RESULT:      -7.0      4.210      7.861
REMARK  4 active torsions:
REMARK  status: ('A' for Active; 'I' for Inactive)
REMARK    1  A    between atoms: C2_2  and  N1_3 
REMARK    2  A    between atoms: N3_10  and  N4_11 
REMARK    3  A    between atoms: C11_15  and  N5_16 
REMARK    4  A    between atoms: N5_16  and  C12_17 
ROOT
HETATM    1  N4  UNL     1      22.728   2.480  51.682  1.00  0.00    -0.313 N 
HETATM    2  C8  UNL     1      22.638   2.280  50.308  1.00  0.00     0.147 C 
HETATM    3  C9  UNL     1      23.905   2.807  49.635  1.00  0.00     0.050 C 
HETATM    4  C10 UNL     1      23.954   4.270  49.913  1.00  0.00     0.002 C 
HETATM    5  C11 UNL     1      23.562   4.621  51.127  1.00  0.00     0.025 C 
HETATM    6  C17 UNL     1      23.090   3.728  52.209  1.00  0.00     0.199 C 
ENDROOT
BRANCH   1   7
HETATM    7  N3  UNL     1      22.383   1.490  52.557  1.00  0.00    -0.238 N 
HETATM    8  C3  UNL     1      23.434   0.589  52.970  1.00  0.00     0.124 C 
HETATM    9  N1  UNL     1      24.585   1.202  52.834  1.00  0.00    -0.275 NA
HETATM   10  C4  UNL     1      23.173  -0.805  53.462  1.00  0.00     0.108 C 
HETATM   11  C5  UNL     1      22.267  -0.771  54.612  1.00  0.00     0.000 C 
HETATM   12  C6  UNL     1      21.148  -0.122  54.797  1.00  0.00     0.114 C 
HETATM   13  N2  UNL     1      20.427   0.778  53.931  1.00  0.00    -0.254 NA
HETATM   14  C7  UNL     1      20.999   1.461  52.969  1.00  0.00     0.233 C 
BRANCH   9  15
HETATM   15  C2  UNL     1      25.756   0.434  53.208  1.00  0.00     0.146 C 
HETATM   16  C1  UNL     1      26.587   0.046  52.007  1.00  0.00     0.028 C 
ENDBRANCH   9  15
ENDBRANCH   1   7
BRANCH   5  17
HETATM   17  N5  UNL     1      23.597   6.021  51.429  1.00  0.00    -0.361 N 
HETATM   18  H16 UNL     1      23.404   6.344  52.418  1.00  0.00     0.165 HD
BRANCH  17  19
HETATM   19  C12 UNL     1      23.868   7.137  50.556  1.00  0.00     0.021 A 
HETATM   20  C13 UNL     1      22.872   7.732  49.963  1.00  0.00     0.026 A 
HETATM   21  C14 UNL     1      22.997   8.855  49.068  1.00  0.00     0.011 A 
HETATM   22  C15 UNL     1      24.221   9.305  48.838  1.00  0.00     0.079 A 
HETATM   23  S1  UNL     1      25.746   8.693  49.502  1.00  0.00     0.044 S 
HETATM   24  O1  UNL     1      26.363   9.784  50.369  1.00  0.00    -0.253 OA
HETATM   25  C16 UNL     1      25.340   7.311  50.579  1.00  0.00     0.170 A 
ENDBRANCH  17  19
ENDBRANCH   5  17
TORSDOF 4
ENDMDL
MODEL 9
REMARK VINA RESULT:      -6.9      4.079      6.635
REMARK  4 active torsions:
REMARK  status: ('A' for Active; 'I' for Inactive)
REMARK    1  A    between atoms: C2_2  and  N1_3 
REMARK    2  A    between atoms: N3_10  and  N4_11 
REMARK    3  A    between atoms: C11_15  and  N5_16 
REMARK    4  A    between atoms: N5_16  and  C12_17 
ROOT
HETATM    1  N4  UNL     1      23.185  -0.103  53.457  1.00  0.00    -0.313 N 
HETATM    2  C8  UNL     1      22.753  -0.411  54.744  1.00  0.00     0.147 C 
HETATM    3  C9  UNL     1      21.736  -1.550  54.678  1.00  0.00     0.050 C 
HETATM    4  C10 UNL     1      20.582  -1.042  53.886  1.00  0.00     0.002 C 
HETATM    5  C11 UNL     1      20.905  -0.280  52.853  1.00  0.00     0.025 C 
HETATM    6  C17 UNL     1      22.267   0.108  52.418  1.00  0.00     0.199 C 
ENDROOT
BRANCH   1   7
HETATM    7  N3  UNL     1      24.509   0.087  53.190  1.00  0.00    -0.238 N 
HETATM    8  C3  UNL     1      24.869   1.314  52.515  1.00  0.00     0.124 C 
HETATM    9  N1  UNL     1      23.943   2.208  52.757  1.00  0.00    -0.275 NA
HETATM   10  C4  UNL     1      26.115   1.461  51.692  1.00  0.00     0.108 C 
HETATM   11  C5  UNL     1      27.294   1.147  52.503  1.00  0.00     0.000 C 
HETATM   12  C6  UNL     1      27.530   0.149  53.313  1.00  0.00     0.114 C 
HETATM   13  N2  UNL     1      26.710  -0.979  53.683  1.00  0.00    -0.254 NA
HETATM   14  C7  UNL     1      25.401  -0.967  53.615  1.00  0.00     0.233 C 
BRANCH   9  15
HETATM   15  C2  UNL     1      24.149   3.509  52.151  1.00  0.00     0.146 C 
HETATM   16  C1  UNL     1      23.327   4.585  52.822  1.00  0.00     0.028 C 
ENDBRANCH   9  15
ENDBRANCH   1   7
BRANCH   5  17
HETATM   17  N5  UNL     1      19.819   0.227  52.068  1.00  0.00    -0.361 N 
HETATM   18  H16 UNL     1      18.946  -0.358  51.951  1.00  0.00     0.165 HD
BRANCH  17  19
HETATM   19  C12 UNL     1      19.709   1.482  51.365  1.00  0.00     0.021 A 
HETATM   20  C13 UNL     1      19.775   2.593  52.042  1.00  0.00     0.026 A 
HETATM   21  C14 UNL     1      19.680   3.913  51.471  1.00  0.00     0.011 A 
HETATM   22  C15 UNL     1      19.513   3.989  50.160  1.00  0.00     0.079 A 
HETATM   23  S1  UNL     1      19.390   2.653  49.002  1.00  0.00     0.044 S 
HETATM   24  O1  UNL     1      20.582   2.728  48.056  1.00  0.00    -0.253 OA
HETATM   25  C16 UNL     1      19.536   1.124  49.938  1.00  0.00     0.170 A 
ENDBRANCH  17  19
ENDBRANCH   5  17
TORSDOF 4
ENDMDL
