MODEL 1
REMARK VINA RESULT:      -8.9      0.000      0.000
REMARK  7 active torsions:
REMARK  status: ('A' for Active; 'I' for Inactive)
REMARK    1  A    between atoms: C6_7  and  C7_8 
REMARK    2  A    between atoms: C7_8  and  C8_9 
REMARK    3  A    between atoms: C9_10  and  C10_11 
REMARK    4  A    between atoms: N2_13  and  C12_14 
REMARK    5  A    between atoms: C15_17  and  O1_18 
REMARK    6  A    between atoms: O1_18  and  C16_19 
REMARK    7  A    between atoms: C16_19  and  C17_20 
ROOT
HETATM    1  C10 UNL     1      27.979   5.570  48.749  1.00  0.00     0.105 A 
HETATM    2  C11 UNL     1      27.179   4.576  49.106  1.00  0.00     0.158 A 
HETATM    3  N2  UNL     1      25.898   4.844  49.653  1.00  0.00    -0.241 N 
HETATM    4  N3  UNL     1      25.504   6.175  49.805  1.00  0.00    -0.163 NA
HETATM    5  C23 UNL     1      26.254   7.169  49.469  1.00  0.00     0.230 A 
HETATM    6  N4  UNL     1      27.541   6.911  48.919  1.00  0.00    -0.341 N 
HETATM    7  H24 UNL     1      28.068   7.781  48.680  1.00  0.00     0.167 HD
ENDROOT
BRANCH   3   8
HETATM    8  C12 UNL     1      25.006   3.812  50.050  1.00  0.00     0.059 A 
HETATM    9  C13 UNL     1      25.105   3.100  51.224  1.00  0.00     0.034 A 
HETATM   10  C14 UNL     1      24.218   2.103  51.575  1.00  0.00     0.041 A 
HETATM   11  C15 UNL     1      23.175   1.774  50.743  1.00  0.00     0.091 A 
HETATM   12  C21 UNL     1      23.036   2.461  49.554  1.00  0.00     0.069 A 
HETATM   13 CL1  UNL     1      21.722   2.076  48.465  1.00  0.00    -0.081 Cl
HETATM   14  C22 UNL     1      23.947   3.449  49.248  1.00  0.00     0.058 A 
BRANCH  11  15
HETATM   15  O1  UNL     1      22.263   0.788  51.048  1.00  0.00    -0.345 OA
BRANCH  15  16
HETATM   16  C16 UNL     1      21.371   0.899  52.143  1.00  0.00     0.214 C 
BRANCH  16  17
HETATM   17  C17 UNL     1      21.837   0.038  53.267  1.00  0.00    -0.028 A 
HETATM   18  C18 UNL     1      22.851  -0.800  53.399  1.00  0.00     0.051 A 
HETATM   19  C19 UNL     1      22.479  -1.121  54.757  1.00  0.00     0.117 A 
HETATM   20  F1  UNL     1      22.955  -1.924  55.735  1.00  0.00    -0.206 F 
HETATM   21  C20 UNL     1      21.464  -0.279  54.620  1.00  0.00     0.051 A 
ENDBRANCH  16  17
ENDBRANCH  15  16
ENDBRANCH  11  15
ENDBRANCH   3   8
BRANCH   1  22
HETATM   22  C9  UNL     1      29.287   5.381  48.189  1.00  0.00    -0.047 C 
HETATM   23  C8  UNL     1      30.369   5.214  47.715  1.00  0.00    -0.097 C 
BRANCH  23  24
HETATM   24  C7  UNL     1      31.687   5.004  47.116  1.00  0.00     0.130 C 
BRANCH  24  25
HETATM   25  C6  UNL     1      32.445   3.966  47.895  1.00  0.00     0.235 C 
HETATM   26  C2  UNL     1      33.057   2.893  47.060  1.00  0.00     0.015 C 
HETATM   27  C1  UNL     1      32.133   1.784  46.687  1.00  0.00     0.012 C 
HETATM   28  C3  UNL     1      33.706   3.567  45.873  1.00  0.00     0.008 C 
HETATM   29  C4  UNL     1      34.863   4.356  46.445  1.00  0.00     0.030 C 
HETATM   30  C5  UNL     1      34.511   5.200  47.622  1.00  0.00     0.270 C 
HETATM   31  N1  UNL     1      33.548   4.667  48.530  1.00  0.00     0.089 N 
HETATM   32  H11 UNL     1      33.959   4.110  49.296  1.00  0.00     0.316 HD
ENDBRANCH  24  25
ENDBRANCH  23  24
ENDBRANCH   1  22
TORSDOF 7
ENDMDL
MODEL 2
REMARK VINA RESULT:      -8.6      1.410      1.974
REMARK  7 active torsions:
REMARK  status: ('A' for Active; 'I' for Inactive)
REMARK    1  A    between atoms: C6_7  and  C7_8 
REMARK    2  A    between atoms: C7_8  and  C8_9 
REMARK    3  A    between atoms: C9_10  and  C10_11 
REMARK    4  A    between atoms: N2_13  and  C12_14 
REMARK    5  A    between atoms: C15_17  and  O1_18 
REMARK    6  A    between atoms: O1_18  and  C16_19 
REMARK    7  A    between atoms: C16_19  and  C17_20 
ROOT
HETATM    1  C10 UNL     1      28.230   5.718  48.329  1.00  0.00     0.105 A 
HETATM    2  C11 UNL     1      27.422   4.777  48.794  1.00  0.00     0.158 A 
HETATM    3  N2  UNL     1      26.063   5.070  49.077  1.00  0.00    -0.241 N 
HETATM    4  N3  UNL     1      25.602   6.369  48.856  1.00  0.00    -0.163 NA
HETATM    5  C23 UNL     1      26.358   7.312  48.404  1.00  0.00     0.230 A 
HETATM    6  N4  UNL     1      27.722   7.029  48.116  1.00  0.00    -0.341 N 
HETATM    7  H24 UNL     1      28.247   7.858  47.756  1.00  0.00     0.167 HD
ENDROOT
BRANCH   3   8
HETATM    8  C12 UNL     1      25.160   4.094  49.577  1.00  0.00     0.059 A 
HETATM    9  C13 UNL     1      23.857   3.947  49.161  1.00  0.00     0.034 A 
HETATM   10  C14 UNL     1      23.009   2.985  49.671  1.00  0.00     0.041 A 
HETATM   11  C15 UNL     1      23.446   2.114  50.640  1.00  0.00     0.091 A 
HETATM   12  C21 UNL     1      24.747   2.224  51.089  1.00  0.00     0.069 A 
HETATM   13 CL1  UNL     1      25.346   1.136  52.321  1.00  0.00    -0.081 Cl
HETATM   14  C22 UNL     1      25.555   3.201  50.548  1.00  0.00     0.058 A 
BRANCH  11  15
HETATM   15  O1  UNL     1      22.640   1.138  51.180  1.00  0.00    -0.345 OA
BRANCH  15  16
HETATM   16  C16 UNL     1      21.827   1.375  52.315  1.00  0.00     0.214 C 
BRANCH  16  17
HETATM   17  C17 UNL     1      21.911   0.218  53.252  1.00  0.00    -0.028 A 
HETATM   18  C18 UNL     1      22.576  -0.924  53.214  1.00  0.00     0.051 A 
HETATM   19  C19 UNL     1      22.039  -1.340  54.489  1.00  0.00     0.117 A 
HETATM   20  F1  UNL     1      22.161  -2.421  55.292  1.00  0.00    -0.206 F 
HETATM   21  C20 UNL     1      21.374  -0.194  54.522  1.00  0.00     0.051 A 
ENDBRANCH  16  17
ENDBRANCH  15  16
ENDBRANCH  11  15
ENDBRANCH   3   8
BRANCH   1  22
HETATM   22  C9  UNL     1      29.614   5.502  48.017  1.00  0.00    -0.047 C 
HETATM   23  C8  UNL     1      30.764   5.331  47.749  1.00  0.00    -0.097 C 
BRANCH  23  24
HETATM   24  C7  UNL     1      32.176   5.144  47.416  1.00  0.00     0.130 C 
BRANCH  24  25
HETATM   25  C6  UNL     1      32.303   4.538  46.046  1.00  0.00     0.235 C 
HETATM   26  C2  UNL     1      33.648   4.702  45.422  1.00  0.00     0.015 C 
HETATM   27  C1  UNL     1      33.872   6.012  44.747  1.00  0.00     0.012 C 
HETATM   28  C3  UNL     1      34.675   4.384  46.485  1.00  0.00     0.008 C 
HETATM   29  C4  UNL     1      34.522   2.903  46.757  1.00  0.00     0.030 C 
HETATM   30  C5  UNL     1      33.118   2.460  46.987  1.00  0.00     0.270 C 
HETATM   31  N1  UNL     1      32.105   3.109  46.219  1.00  0.00     0.089 N 
HETATM   32  H11 UNL     1      31.901   2.645  45.319  1.00  0.00     0.316 HD
ENDBRANCH  24  25
ENDBRANCH  23  24
ENDBRANCH   1  22
TORSDOF 7
ENDMDL
MODEL 3
REMARK VINA RESULT:      -8.1      2.053      2.475
REMARK  7 active torsions:
REMARK  status: ('A' for Active; 'I' for Inactive)
REMARK    1  A    between atoms: C6_7  and  C7_8 
REMARK    2  A    between atoms: C7_8  and  C8_9 
REMARK    3  A    between atoms: C9_10  and  C10_11 
REMARK    4  A    between atoms: N2_13  and  C12_14 
REMARK    5  A    between atoms: C15_17  and  O1_18 
REMARK    6  A    between atoms: O1_18  and  C16_19 
REMARK    7  A    between atoms: C16_19  and  C17_20 
ROOT
HETATM    1  C10 UNL     1      27.409   5.780  48.536  1.00  0.00     0.105 A 
HETATM    2  C11 UNL     1      26.851   4.877  49.328  1.00  0.00     0.158 A 
HETATM    3  N2  UNL     1      25.478   4.974  49.674  1.00  0.00    -0.241 N 
HETATM    4  N3  UNL     1      24.737   6.041  49.164  1.00  0.00    -0.163 NA
HETATM    5  C23 UNL     1      25.245   6.940  48.390  1.00  0.00     0.230 A 
HETATM    6  N4  UNL     1      26.620   6.851  48.036  1.00  0.00    -0.341 N 
HETATM    7  H24 UNL     1      26.934   7.625  47.407  1.00  0.00     0.167 HD
ENDROOT
BRANCH   3   8
HETATM    8  C12 UNL     1      24.836   4.031  50.519  1.00  0.00     0.059 A 
HETATM    9  C13 UNL     1      25.387   2.835  50.920  1.00  0.00     0.034 A 
HETATM   10  C14 UNL     1      24.730   1.942  51.743  1.00  0.00     0.041 A 
HETATM   11  C15 UNL     1      23.467   2.223  52.206  1.00  0.00     0.091 A 
HETATM   12  C21 UNL     1      22.874   3.410  51.831  1.00  0.00     0.069 A 
HETATM   13 CL1  UNL     1      21.267   3.808  52.397  1.00  0.00    -0.081 Cl
HETATM   14  C22 UNL     1      23.570   4.269  51.007  1.00  0.00     0.058 A 
BRANCH  11  15
HETATM   15  O1  UNL     1      22.771   1.366  53.029  1.00  0.00    -0.345 OA
BRANCH  15  16
HETATM   16  C16 UNL     1      22.293   0.111  52.579  1.00  0.00     0.214 C 
BRANCH  16  17
HETATM   17  C17 UNL     1      21.104   0.305  51.700  1.00  0.00    -0.028 A 
HETATM   18  C18 UNL     1      19.802   0.248  51.922  1.00  0.00     0.051 A 
HETATM   19  C19 UNL     1      19.500   0.562  50.545  1.00  0.00     0.117 A 
HETATM   20  F1  UNL     1      18.379   0.725  49.806  1.00  0.00    -0.206 F 
HETATM   21  C20 UNL     1      20.806   0.618  50.328  1.00  0.00     0.051 A 
ENDBRANCH  16  17
ENDBRANCH  15  16
ENDBRANCH  11  15
ENDBRANCH   3   8
BRANCH   1  22
HETATM   22  C9  UNL     1      28.788   5.751  48.139  1.00  0.00    -0.047 C 
HETATM   23  C8  UNL     1      29.938   5.727  47.822  1.00  0.00    -0.097 C 
BRANCH  23  24
HETATM   24  C7  UNL     1      31.353   5.685  47.451  1.00  0.00     0.130 C 
BRANCH  24  25
HETATM   25  C6  UNL     1      32.056   4.611  48.234  1.00  0.00     0.235 C 
HETATM   26  C2  UNL     1      33.004   3.784  47.432  1.00  0.00     0.015 C 
HETATM   27  C1  UNL     1      32.374   2.668  46.671  1.00  0.00     0.012 C 
HETATM   28  C3  UNL     1      33.802   4.733  46.567  1.00  0.00     0.008 C 
HETATM   29  C4  UNL     1      34.659   5.527  47.530  1.00  0.00     0.030 C 
HETATM   30  C5  UNL     1      33.915   6.095  48.690  1.00  0.00     0.270 C 
HETATM   31  N1  UNL     1      32.859   5.301  49.228  1.00  0.00     0.089 N 
HETATM   32  H11 UNL     1      33.159   4.661  49.981  1.00  0.00     0.316 HD
ENDBRANCH  24  25
ENDBRANCH  23  24
ENDBRANCH   1  22
TORSDOF 7
ENDMDL
MODEL 4
REMARK VINA RESULT:      -8.1      5.689     12.565
REMARK  7 active torsions:
REMARK  status: ('A' for Active; 'I' for Inactive)
REMARK    1  A    between atoms: C6_7  and  C7_8 
REMARK    2  A    between atoms: C7_8  and  C8_9 
REMARK    3  A    between atoms: C9_10  and  C10_11 
REMARK    4  A    between atoms: N2_13  and  C12_14 
REMARK    5  A    between atoms: C15_17  and  O1_18 
REMARK    6  A    between atoms: O1_18  and  C16_19 
REMARK    7  A    between atoms: C16_19  and  C17_20 
ROOT
HETATM    1  C10 UNL     1      20.338  -0.745  53.542  1.00  0.00     0.105 A 
HETATM    2  C11 UNL     1      21.207   0.023  52.902  1.00  0.00     0.158 A 
HETATM    3  N2  UNL     1      22.567   0.061  53.306  1.00  0.00    -0.241 N 
HETATM    4  N3  UNL     1      22.962  -0.726  54.389  1.00  0.00    -0.163 NA
HETATM    5  C23 UNL     1      22.145  -1.486  55.037  1.00  0.00     0.230 A 
HETATM    6  N4  UNL     1      20.780  -1.532  54.640  1.00  0.00    -0.341 N 
HETATM    7  H24 UNL     1      20.202  -2.176  55.226  1.00  0.00     0.167 HD
ENDROOT
BRANCH   3   8
HETATM    8  C12 UNL     1      23.535   0.868  52.651  1.00  0.00     0.059 A 
HETATM    9  C13 UNL     1      23.244   1.854  51.737  1.00  0.00     0.034 A 
HETATM   10  C14 UNL     1      24.214   2.619  51.121  1.00  0.00     0.041 A 
HETATM   11  C15 UNL     1      25.543   2.418  51.405  1.00  0.00     0.091 A 
HETATM   12  C21 UNL     1      25.884   1.439  52.316  1.00  0.00     0.069 A 
HETATM   13 CL1  UNL     1      27.564   1.150  52.708  1.00  0.00    -0.081 Cl
HETATM   14  C22 UNL     1      24.879   0.702  52.905  1.00  0.00     0.058 A 
BRANCH  11  15
HETATM   15  O1  UNL     1      26.548   3.154  50.818  1.00  0.00    -0.345 OA
BRANCH  15  16
HETATM   16  C16 UNL     1      26.731   3.193  49.414  1.00  0.00     0.214 C 
BRANCH  16  17
HETATM   17  C17 UNL     1      27.019   4.589  48.978  1.00  0.00    -0.028 A 
HETATM   18  C18 UNL     1      26.286   5.689  48.936  1.00  0.00     0.051 A 
HETATM   19  C19 UNL     1      27.381   6.463  48.402  1.00  0.00     0.117 A 
HETATM   20  F1  UNL     1      27.575   7.747  48.024  1.00  0.00    -0.206 F 
HETATM   21  C20 UNL     1      28.113   5.359  48.446  1.00  0.00     0.051 A 
ENDBRANCH  16  17
ENDBRANCH  15  16
ENDBRANCH  11  15
ENDBRANCH   3   8
BRANCH   1  22
HETATM   22  C9  UNL     1      18.948  -0.839  53.195  1.00  0.00    -0.047 C 
HETATM   23  C8  UNL     1      17.794  -0.931  52.907  1.00  0.00    -0.097 C 
BRANCH  23  24
HETATM   24  C7  UNL     1      16.378  -1.060  52.566  1.00  0.00     0.130 C 
BRANCH  24  25
HETATM   25  C6  UNL     1      15.808   0.288  52.225  1.00  0.00     0.235 C 
HETATM   26  C2  UNL     1      15.328   0.417  50.818  1.00  0.00     0.015 C 
HETATM   27  C1  UNL     1      16.389   0.732  49.819  1.00  0.00     0.012 C 
HETATM   28  C3  UNL     1      14.545  -0.835  50.497  1.00  0.00     0.008 C 
HETATM   29  C4  UNL     1      13.307  -0.766  51.365  1.00  0.00     0.030 C 
HETATM   30  C5  UNL     1      13.575  -0.457  52.798  1.00  0.00     0.270 C 
HETATM   31  N1  UNL     1      14.639   0.455  53.071  1.00  0.00     0.089 N 
HETATM   32  H11 UNL     1      14.341   1.443  53.113  1.00  0.00     0.316 HD
ENDBRANCH  24  25
ENDBRANCH  23  24
ENDBRANCH   1  22
TORSDOF 7
ENDMDL
MODEL 5
REMARK VINA RESULT:      -8.1      4.669     10.392
REMARK  7 active torsions:
REMARK  status: ('A' for Active; 'I' for Inactive)
REMARK    1  A    between atoms: C6_7  and  C7_8 
REMARK    2  A    between atoms: C7_8  and  C8_9 
REMARK    3  A    between atoms: C9_10  and  C10_11 
REMARK    4  A    between atoms: N2_13  and  C12_14 
REMARK    5  A    between atoms: C15_17  and  O1_18 
REMARK    6  A    between atoms: O1_18  and  C16_19 
REMARK    7  A    between atoms: C16_19  and  C17_20 
ROOT
HETATM    1  C10 UNL     1      24.758   4.788  49.321  1.00  0.00     0.105 A 
HETATM    2  C11 UNL     1      26.065   4.955  49.189  1.00  0.00     0.158 A 
HETATM    3  N2  UNL     1      26.581   6.097  48.524  1.00  0.00    -0.241 N 
HETATM    4  N3  UNL     1      25.681   7.034  48.014  1.00  0.00    -0.163 NA
HETATM    5  C23 UNL     1      24.402   6.906  48.122  1.00  0.00     0.230 A 
HETATM    6  N4  UNL     1      23.874   5.765  48.788  1.00  0.00    -0.341 N 
HETATM    7  H24 UNL     1      22.829   5.756  48.823  1.00  0.00     0.167 HD
ENDROOT
BRANCH   3   8
HETATM    8  C12 UNL     1      27.974   6.319  48.359  1.00  0.00     0.059 A 
HETATM    9  C13 UNL     1      28.907   5.328  48.151  1.00  0.00     0.034 A 
HETATM   10  C14 UNL     1      30.254   5.583  47.994  1.00  0.00     0.041 A 
HETATM   11  C15 UNL     1      30.728   6.872  48.042  1.00  0.00     0.091 A 
HETATM   12  C21 UNL     1      29.830   7.899  48.249  1.00  0.00     0.069 A 
HETATM   13 CL1  UNL     1      30.390   9.556  48.317  1.00  0.00    -0.081 Cl
HETATM   14  C22 UNL     1      28.494   7.594  48.399  1.00  0.00     0.058 A 
BRANCH  11  15
HETATM   15  O1  UNL     1      32.062   7.179  47.892  1.00  0.00    -0.345 OA
BRANCH  15  16
HETATM   16  C16 UNL     1      33.057   6.656  48.753  1.00  0.00     0.214 C 
BRANCH  16  17
HETATM   17  C17 UNL     1      33.799   5.560  48.066  1.00  0.00    -0.028 A 
HETATM   18  C18 UNL     1      34.857   4.842  48.401  1.00  0.00     0.051 A 
HETATM   19  C19 UNL     1      34.805   4.093  47.167  1.00  0.00     0.117 A 
HETATM   20  F1  UNL     1      35.522   3.096  46.600  1.00  0.00    -0.206 F 
HETATM   21  C20 UNL     1      33.744   4.816  46.836  1.00  0.00     0.051 A 
ENDBRANCH  16  17
ENDBRANCH  15  16
ENDBRANCH  11  15
ENDBRANCH   3   8
BRANCH   1  22
HETATM   22  C9  UNL     1      24.158   3.662  49.980  1.00  0.00    -0.047 C 
HETATM   23  C8  UNL     1      23.670   2.719  50.522  1.00  0.00    -0.097 C 
BRANCH  23  24
HETATM   24  C7  UNL     1      23.090   1.554  51.190  1.00  0.00     0.130 C 
BRANCH  24  25
HETATM   25  C6  UNL     1      22.899   1.845  52.653  1.00  0.00     0.235 C 
HETATM   26  C2  UNL     1      22.185   0.774  53.407  1.00  0.00     0.015 C 
HETATM   27  C1  UNL     1      20.698   0.825  53.311  1.00  0.00     0.012 C 
HETATM   28  C3  UNL     1      22.775  -0.547  52.972  1.00  0.00     0.008 C 
HETATM   29  C4  UNL     1      24.194  -0.545  53.502  1.00  0.00     0.030 C 
HETATM   30  C5  UNL     1      24.961   0.697  53.200  1.00  0.00     0.270 C 
HETATM   31  N1  UNL     1      24.233   1.924  53.223  1.00  0.00     0.089 N 
HETATM   32  H11 UNL     1      24.221   2.386  54.148  1.00  0.00     0.316 HD
ENDBRANCH  24  25
ENDBRANCH  23  24
ENDBRANCH   1  22
TORSDOF 7
ENDMDL
MODEL 6
REMARK VINA RESULT:      -8.0      4.646     10.170
REMARK  7 active torsions:
REMARK  status: ('A' for Active; 'I' for Inactive)
REMARK    1  A    between atoms: C6_7  and  C7_8 
REMARK    2  A    between atoms: C7_8  and  C8_9 
REMARK    3  A    between atoms: C9_10  and  C10_11 
REMARK    4  A    between atoms: N2_13  and  C12_14 
REMARK    5  A    between atoms: C15_17  and  O1_18 
REMARK    6  A    between atoms: O1_18  and  C16_19 
REMARK    7  A    between atoms: C16_19  and  C17_20 
ROOT
HETATM    1  C10 UNL     1      24.311   4.020  50.438  1.00  0.00     0.105 A 
HETATM    2  C11 UNL     1      25.524   4.409  50.076  1.00  0.00     0.158 A 
HETATM    3  N2  UNL     1      25.694   5.363  49.040  1.00  0.00    -0.241 N 
HETATM    4  N3  UNL     1      24.556   5.877  48.415  1.00  0.00    -0.163 NA
HETATM    5  C23 UNL     1      23.358   5.522  48.739  1.00  0.00     0.230 A 
HETATM    6  N4  UNL     1      23.177   4.567  49.778  1.00  0.00    -0.341 N 
HETATM    7  H24 UNL     1      22.172   4.348  49.964  1.00  0.00     0.167 HD
ENDROOT
BRANCH   3   8
HETATM    8  C12 UNL     1      26.973   5.811  48.617  1.00  0.00     0.059 A 
HETATM    9  C13 UNL     1      28.102   5.025  48.568  1.00  0.00     0.034 A 
HETATM   10  C14 UNL     1      29.330   5.497  48.151  1.00  0.00     0.041 A 
HETATM   11  C15 UNL     1      29.476   6.806  47.759  1.00  0.00     0.091 A 
HETATM   12  C21 UNL     1      28.371   7.633  47.791  1.00  0.00     0.069 A 
HETATM   13 CL1  UNL     1      28.511   9.306  47.300  1.00  0.00    -0.081 Cl
HETATM   14  C22 UNL     1      27.166   7.115  48.215  1.00  0.00     0.058 A 
BRANCH  11  15
HETATM   15  O1  UNL     1      30.678   7.325  47.335  1.00  0.00    -0.345 OA
BRANCH  15  16
HETATM   16  C16 UNL     1      31.587   7.946  48.226  1.00  0.00     0.214 C 
BRANCH  16  17
HETATM   17  C17 UNL     1      32.783   7.078  48.420  1.00  0.00    -0.028 A 
HETATM   18  C18 UNL     1      32.930   5.820  48.801  1.00  0.00     0.051 A 
HETATM   19  C19 UNL     1      34.367   5.897  48.684  1.00  0.00     0.117 A 
HETATM   20  F1  UNL     1      35.408   5.056  48.879  1.00  0.00    -0.206 F 
HETATM   21  C20 UNL     1      34.215   7.157  48.302  1.00  0.00     0.051 A 
ENDBRANCH  16  17
ENDBRANCH  15  16
ENDBRANCH  11  15
ENDBRANCH   3   8
BRANCH   1  22
HETATM   22  C9  UNL     1      24.056   3.061  51.476  1.00  0.00    -0.047 C 
HETATM   23  C8  UNL     1      23.849   2.254  52.330  1.00  0.00    -0.097 C 
BRANCH  23  24
HETATM   24  C7  UNL     1      23.613   1.255  53.372  1.00  0.00     0.130 C 
BRANCH  24  25
HETATM   25  C6  UNL     1      23.891  -0.121  52.834  1.00  0.00     0.235 C 
HETATM   26  C2  UNL     1      25.211  -0.686  53.237  1.00  0.00     0.015 C 
HETATM   27  C1  UNL     1      26.364  -0.243  52.402  1.00  0.00     0.012 C 
HETATM   28  C3  UNL     1      25.386  -0.404  54.711  1.00  0.00     0.008 C 
HETATM   29  C4  UNL     1      24.344  -1.252  55.407  1.00  0.00     0.030 C 
HETATM   30  C5  UNL     1      22.974  -1.139  54.832  1.00  0.00     0.270 C 
HETATM   31  N1  UNL     1      22.882  -0.989  53.416  1.00  0.00     0.089 N 
HETATM   32  H11 UNL     1      22.814  -1.884  52.905  1.00  0.00     0.316 HD
ENDBRANCH  24  25
ENDBRANCH  23  24
ENDBRANCH   1  22
TORSDOF 7
ENDMDL
MODEL 7
REMARK VINA RESULT:      -8.0      5.726      9.963
REMARK  7 active torsions:
REMARK  status: ('A' for Active; 'I' for Inactive)
REMARK    1  A    between atoms: C6_7  and  C7_8 
REMARK    2  A    between atoms: C7_8  and  C8_9 
REMARK    3  A    between atoms: C9_10  and  C10_11 
REMARK    4  A    between atoms: N2_13  and  C12_14 
REMARK    5  A    between atoms: C15_17  and  O1_18 
REMARK    6  A    between atoms: O1_18  and  C16_19 
REMARK    7  A    between atoms: C16_19  and  C17_20 
ROOT
HETATM    1  C10 UNL     1      25.863   4.457  49.641  1.00  0.00     0.105 A 
HETATM    2  C11 UNL     1      26.792   5.211  49.073  1.00  0.00     0.158 A 
HETATM    3  N2  UNL     1      26.424   6.326  48.275  1.00  0.00    -0.241 N 
HETATM    4  N3  UNL     1      25.067   6.604  48.105  1.00  0.00    -0.163 NA
HETATM    5  C23 UNL     1      24.134   5.893  48.643  1.00  0.00     0.230 A 
HETATM    6  N4  UNL     1      24.492   4.774  49.445  1.00  0.00    -0.341 N 
HETATM    7  H24 UNL     1      23.665   4.265  49.833  1.00  0.00     0.167 HD
ENDROOT
BRANCH   3   8
HETATM    8  C12 UNL     1      27.383   7.163  47.646  1.00  0.00     0.059 A 
HETATM    9  C13 UNL     1      28.746   6.984  47.715  1.00  0.00     0.034 A 
HETATM   10  C14 UNL     1      29.648   7.820  47.089  1.00  0.00     0.041 A 
HETATM   11  C15 UNL     1      29.207   8.893  46.353  1.00  0.00     0.091 A 
HETATM   12  C21 UNL     1      27.848   9.114  46.255  1.00  0.00     0.069 A 
HETATM   13 CL1  UNL     1      27.242  10.468  45.327  1.00  0.00    -0.081 Cl
HETATM   14  C22 UNL     1      26.987   8.250  46.898  1.00  0.00     0.058 A 
BRANCH  11  15
HETATM   15  O1  UNL     1      30.065   9.756  45.710  1.00  0.00    -0.345 OA
BRANCH  15  16
HETATM   16  C16 UNL     1      30.998  10.556  46.415  1.00  0.00     0.214 C 
BRANCH  16  17
HETATM   17  C17 UNL     1      30.291  11.373  47.442  1.00  0.00    -0.028 A 
HETATM   18  C18 UNL     1      29.603  12.500  47.378  1.00  0.00     0.051 A 
HETATM   19  C19 UNL     1      29.339  12.481  48.798  1.00  0.00     0.117 A 
HETATM   20  F1  UNL     1      28.679  13.269  49.678  1.00  0.00    -0.206 F 
HETATM   21  C20 UNL     1      30.030  11.351  48.857  1.00  0.00     0.051 A 
ENDBRANCH  16  17
ENDBRANCH  15  16
ENDBRANCH  11  15
ENDBRANCH   3   8
BRANCH   1  22
HETATM   22  C9  UNL     1      26.154   3.315  50.462  1.00  0.00    -0.047 C 
HETATM   23  C8  UNL     1      26.408   2.371  51.145  1.00  0.00    -0.097 C 
BRANCH  23  24
HETATM   24  C7  UNL     1      26.731   1.226  51.996  1.00  0.00     0.130 C 
BRANCH  24  25
HETATM   25  C6  UNL     1      26.450   1.561  53.434  1.00  0.00     0.235 C 
HETATM   26  C2  UNL     1      26.667   0.432  54.384  1.00  0.00     0.015 C 
HETATM   27  C1  UNL     1      25.527  -0.524  54.494  1.00  0.00     0.012 C 
HETATM   28  C3  UNL     1      27.974  -0.225  54.005  1.00  0.00     0.008 C 
HETATM   29  C4  UNL     1      29.043   0.797  54.327  1.00  0.00     0.030 C 
HETATM   30  C5  UNL     1      28.768   2.163  53.798  1.00  0.00     0.270 C 
HETATM   31  N1  UNL     1      27.407   2.591  53.800  1.00  0.00     0.089 N 
HETATM   32  H11 UNL     1      27.123   3.078  54.666  1.00  0.00     0.316 HD
ENDBRANCH  24  25
ENDBRANCH  23  24
ENDBRANCH   1  22
TORSDOF 7
ENDMDL
MODEL 8
REMARK VINA RESULT:      -8.0      5.728     11.611
REMARK  7 active torsions:
REMARK  status: ('A' for Active; 'I' for Inactive)
REMARK    1  A    between atoms: C6_7  and  C7_8 
REMARK    2  A    between atoms: C7_8  and  C8_9 
REMARK    3  A    between atoms: C9_10  and  C10_11 
REMARK    4  A    between atoms: N2_13  and  C12_14 
REMARK    5  A    between atoms: C15_17  and  O1_18 
REMARK    6  A    between atoms: O1_18  and  C16_19 
REMARK    7  A    between atoms: C16_19  and  C17_20 
ROOT
HETATM    1  C10 UNL     1      19.833   2.136  50.984  1.00  0.00     0.105 A 
HETATM    2  C11 UNL     1      21.112   1.915  51.248  1.00  0.00     0.158 A 
HETATM    3  N2  UNL     1      22.062   2.963  51.132  1.00  0.00    -0.241 N 
HETATM    4  N3  UNL     1      21.616   4.224  50.732  1.00  0.00    -0.163 NA
HETATM    5  C23 UNL     1      20.380   4.478  50.467  1.00  0.00     0.230 A 
HETATM    6  N4  UNL     1      19.419   3.435  50.581  1.00  0.00    -0.341 N 
HETATM    7  H24 UNL     1      18.448   3.742  50.345  1.00  0.00     0.167 HD
ENDROOT
BRANCH   3   8
HETATM    8  C12 UNL     1      23.443   2.775  51.404  1.00  0.00     0.059 A 
HETATM    9  C13 UNL     1      23.945   2.212  52.555  1.00  0.00     0.034 A 
HETATM   10  C14 UNL     1      25.296   2.045  52.783  1.00  0.00     0.041 A 
HETATM   11  C15 UNL     1      26.215   2.446  51.844  1.00  0.00     0.091 A 
HETATM   12  C21 UNL     1      25.759   3.017  50.674  1.00  0.00     0.069 A 
HETATM   13 CL1  UNL     1      26.894   3.541  49.450  1.00  0.00    -0.081 Cl
HETATM   14  C22 UNL     1      24.400   3.161  50.491  1.00  0.00     0.058 A 
BRANCH  11  15
HETATM   15  O1  UNL     1      27.573   2.302  52.024  1.00  0.00    -0.345 OA
BRANCH  15  16
HETATM   16  C16 UNL     1      28.143   2.062  53.299  1.00  0.00     0.214 C 
BRANCH  16  17
HETATM   17  C17 UNL     1      28.617   0.651  53.386  1.00  0.00    -0.028 A 
HETATM   18  C18 UNL     1      27.989  -0.512  53.379  1.00  0.00     0.051 A 
HETATM   19  C19 UNL     1      29.229  -1.243  53.499  1.00  0.00     0.117 A 
HETATM   20  F1  UNL     1      29.591  -2.544  53.573  1.00  0.00    -0.206 F 
HETATM   21  C20 UNL     1      29.854  -0.074  53.506  1.00  0.00     0.051 A 
ENDBRANCH  16  17
ENDBRANCH  15  16
ENDBRANCH  11  15
ENDBRANCH   3   8
BRANCH   1  22
HETATM   22  C9  UNL     1      18.813   1.131  51.079  1.00  0.00    -0.047 C 
HETATM   23  C8  UNL     1      17.964   0.298  51.173  1.00  0.00    -0.097 C 
BRANCH  23  24
HETATM   24  C7  UNL     1      16.912  -0.711  51.301  1.00  0.00     0.130 C 
BRANCH  24  25
HETATM   25  C6  UNL     1      16.334  -0.674  52.688  1.00  0.00     0.235 C 
HETATM   26  C2  UNL     1      14.917  -0.214  52.753  1.00  0.00     0.015 C 
HETATM   27  C1  UNL     1      14.737   1.266  52.755  1.00  0.00     0.012 C 
HETATM   28  C3  UNL     1      14.168  -0.914  51.643  1.00  0.00     0.008 C 
HETATM   29  C4  UNL     1      14.146  -2.376  52.035  1.00  0.00     0.030 C 
HETATM   30  C5  UNL     1      15.472  -2.925  52.439  1.00  0.00     0.270 C 
HETATM   31  N1  UNL     1      16.338  -2.048  53.160  1.00  0.00     0.089 N 
HETATM   32  H11 UNL     1      16.221  -2.096  54.185  1.00  0.00     0.316 HD
ENDBRANCH  24  25
ENDBRANCH  23  24
ENDBRANCH   1  22
TORSDOF 7
ENDMDL
MODEL 9
REMARK VINA RESULT:      -8.0      1.953      2.615
REMARK  7 active torsions:
REMARK  status: ('A' for Active; 'I' for Inactive)
REMARK    1  A    between atoms: C6_7  and  C7_8 
REMARK    2  A    between atoms: C7_8  and  C8_9 
REMARK    3  A    between atoms: C9_10  and  C10_11 
REMARK    4  A    between atoms: N2_13  and  C12_14 
REMARK    5  A    between atoms: C15_17  and  O1_18 
REMARK    6  A    between atoms: O1_18  and  C16_19 
REMARK    7  A    between atoms: C16_19  and  C17_20 
ROOT
HETATM    1  C10 UNL     1      28.767   6.376  48.136  1.00  0.00     0.105 A 
HETATM    2  C11 UNL     1      27.711   5.787  48.677  1.00  0.00     0.158 A 
HETATM    3  N2  UNL     1      26.507   6.512  48.876  1.00  0.00    -0.241 N 
HETATM    4  N3  UNL     1      26.467   7.853  48.492  1.00  0.00    -0.163 NA
HETATM    5  C23 UNL     1      27.474   8.461  47.962  1.00  0.00     0.230 A 
HETATM    6  N4  UNL     1      28.685   7.743  47.756  1.00  0.00    -0.341 N 
HETATM    7  H24 UNL     1      29.439   8.323  47.323  1.00  0.00     0.167 HD
ENDROOT
BRANCH   3   8
HETATM    8  C12 UNL     1      25.350   5.925  49.452  1.00  0.00     0.059 A 
HETATM    9  C13 UNL     1      24.683   6.420  50.550  1.00  0.00     0.034 A 
HETATM   10  C14 UNL     1      23.559   5.819  51.081  1.00  0.00     0.041 A 
HETATM   11  C15 UNL     1      23.051   4.674  50.519  1.00  0.00     0.091 A 
HETATM   12  C21 UNL     1      23.686   4.140  49.416  1.00  0.00     0.069 A 
HETATM   13 CL1  UNL     1      23.072   2.682  48.668  1.00  0.00    -0.081 Cl
HETATM   14  C22 UNL     1      24.805   4.776  48.922  1.00  0.00     0.058 A 
BRANCH  11  15
HETATM   15  O1  UNL     1      21.933   4.038  51.011  1.00  0.00    -0.345 OA
BRANCH  15  16
HETATM   16  C16 UNL     1      21.896   3.480  52.312  1.00  0.00     0.214 C 
BRANCH  16  17
HETATM   17  C17 UNL     1      22.851   2.338  52.403  1.00  0.00    -0.028 A 
HETATM   18  C18 UNL     1      24.042   2.204  52.961  1.00  0.00     0.051 A 
HETATM   19  C19 UNL     1      24.142   0.826  52.539  1.00  0.00     0.117 A 
HETATM   20  F1  UNL     1      25.053  -0.167  52.659  1.00  0.00    -0.206 F 
HETATM   21  C20 UNL     1      22.948   0.966  51.982  1.00  0.00     0.051 A 
ENDBRANCH  16  17
ENDBRANCH  15  16
ENDBRANCH  11  15
ENDBRANCH   3   8
BRANCH   1  22
HETATM   22  C9  UNL     1      30.018   5.712  47.901  1.00  0.00    -0.047 C 
HETATM   23  C8  UNL     1      31.058   5.155  47.718  1.00  0.00    -0.097 C 
BRANCH  23  24
HETATM   24  C7  UNL     1      32.326   4.457  47.507  1.00  0.00     0.130 C 
BRANCH  24  25
HETATM   25  C6  UNL     1      33.405   5.448  47.168  1.00  0.00     0.235 C 
HETATM   26  C2  UNL     1      34.771   5.047  47.611  1.00  0.00     0.015 C 
HETATM   27  C1  UNL     1      35.085   5.355  49.036  1.00  0.00     0.012 C 
HETATM   28  C3  UNL     1      34.946   3.589  47.253  1.00  0.00     0.008 C 
HETATM   29  C4  UNL     1      34.974   3.549  45.740  1.00  0.00     0.030 C 
HETATM   30  C5  UNL     1      33.868   4.301  45.084  1.00  0.00     0.270 C 
HETATM   31  N1  UNL     1      33.449   5.510  45.717  1.00  0.00     0.089 N 
HETATM   32  H11 UNL     1      33.955   6.349  45.390  1.00  0.00     0.316 HD
ENDBRANCH  24  25
ENDBRANCH  23  24
ENDBRANCH   1  22
TORSDOF 7
ENDMDL
