MODEL 1
REMARK VINA RESULT:      -8.0      0.000      0.000
REMARK  7 active torsions:
REMARK  status: ('A' for Active; 'I' for Inactive)
REMARK    1  A    between atoms: O1_2  and  C2_3 
REMARK    2  A    between atoms: C6_9  and  N3_10 
REMARK    3  A    between atoms: C14_20  and  O2_21 
REMARK    4  A    between atoms: O2_21  and  C15_22 
REMARK    5  A    between atoms: C15_22  and  C16_23 
REMARK    6  A    between atoms: C16_23  and  C17_24 
REMARK    7  A    between atoms: C17_24  and  N4_25 
ROOT
HETATM    1  C2  UNL     1      21.064   0.256  51.847  1.00  0.00     0.103 A 
HETATM    2  C3  UNL     1      20.971  -0.528  52.975  1.00  0.00     0.072 A 
HETATM    3  C4  UNL     1      22.058  -0.725  53.780  1.00  0.00     0.075 A 
HETATM    4  N1  UNL     1      22.089  -1.474  54.902  1.00  0.00    -0.241 NA
HETATM    5  C5  UNL     1      23.236  -1.589  55.603  1.00  0.00     0.236 A 
HETATM    6  N2  UNL     1      24.403  -0.985  55.249  1.00  0.00    -0.223 NA
HETATM    7  C6  UNL     1      24.405  -0.224  54.127  1.00  0.00     0.144 A 
HETATM    8  C12 UNL     1      23.232  -0.109  53.413  1.00  0.00     0.042 A 
HETATM    9  C13 UNL     1      23.343   0.675  52.292  1.00  0.00     0.057 A 
HETATM   10  C14 UNL     1      22.247   0.873  51.481  1.00  0.00     0.103 A 
ENDROOT
BRANCH  10  11
HETATM   11  O2  UNL     1      22.290   1.660  50.326  1.00  0.00    -0.348 OA
BRANCH  11  12
HETATM   12  C15 UNL     1      21.866   2.998  50.471  1.00  0.00     0.177 C 
BRANCH  12  13
HETATM   13  C16 UNL     1      22.318   3.847  49.271  1.00  0.00     0.057 C 
BRANCH  13  14
HETATM   14  C17 UNL     1      23.370   4.782  49.767  1.00  0.00     0.274 C 
BRANCH  14  15
HETATM   15  N4  UNL     1      24.681   4.274  49.506  1.00  0.00     0.092 N 
HETATM   16  C18 UNL     1      25.551   5.357  49.046  1.00  0.00     0.298 C 
HETATM   17  C19 UNL     1      26.979   4.894  48.928  1.00  0.00     0.198 C 
HETATM   18  O3  UNL     1      27.118   3.537  49.139  1.00  0.00    -0.388 OA
HETATM   19  C20 UNL     1      26.587   3.086  50.324  1.00  0.00     0.198 C 
HETATM   20  C21 UNL     1      25.299   3.788  50.728  1.00  0.00     0.298 C 
ENDBRANCH  14  15
ENDBRANCH  13  14
ENDBRANCH  12  13
ENDBRANCH  11  12
ENDBRANCH  10  11
BRANCH   1  21
HETATM   21  O1  UNL     1      19.953   0.445  51.044  1.00  0.00    -0.353 OA
HETATM   22  C1  UNL     1      18.657   0.600  51.642  1.00  0.00     0.210 C 
ENDBRANCH   1  21
BRANCH   7  23
HETATM   23  N3  UNL     1      25.680   0.357  53.913  1.00  0.00    -0.336 N 
HETATM   24  C7  UNL     1      26.643  -0.699  53.724  1.00  0.00     0.120 A 
HETATM   25  C8  UNL     1      27.944  -0.511  53.481  1.00  0.00     0.087 A 
HETATM   26 CL1  UNL     1      29.149  -1.778  53.243  1.00  0.00    -0.080 Cl
HETATM   27  C9  UNL     1      28.476   0.852  53.398  1.00  0.00     0.137 A 
HETATM   28  F1  UNL     1      29.768   1.173  53.159  1.00  0.00    -0.205 F 
HETATM   29  C10 UNL     1      27.587   1.802  53.580  1.00  0.00     0.037 A 
HETATM   30  C11 UNL     1      26.131   1.722  53.854  1.00  0.00     0.160 A 
ENDBRANCH   7  23
TORSDOF 7
ENDMDL
MODEL 2
REMARK VINA RESULT:      -7.9      2.419      3.845
REMARK  7 active torsions:
REMARK  status: ('A' for Active; 'I' for Inactive)
REMARK    1  A    between atoms: O1_2  and  C2_3 
REMARK    2  A    between atoms: C6_9  and  N3_10 
REMARK    3  A    between atoms: C14_20  and  O2_21 
REMARK    4  A    between atoms: O2_21  and  C15_22 
REMARK    5  A    between atoms: C15_22  and  C16_23 
REMARK    6  A    between atoms: C16_23  and  C17_24 
REMARK    7  A    between atoms: C17_24  and  N4_25 
ROOT
HETATM    1  C2  UNL     1      23.492   3.390  50.266  1.00  0.00     0.103 A 
HETATM    2  C3  UNL     1      22.692   2.473  50.910  1.00  0.00     0.072 A 
HETATM    3  C4  UNL     1      23.234   1.548  51.759  1.00  0.00     0.075 A 
HETATM    4  N1  UNL     1      22.555   0.600  52.437  1.00  0.00    -0.241 NA
HETATM    5  C5  UNL     1      23.218  -0.257  53.241  1.00  0.00     0.236 A 
HETATM    6  N2  UNL     1      24.566  -0.234  53.424  1.00  0.00    -0.223 NA
HETATM    7  C6  UNL     1      25.277   0.707  52.757  1.00  0.00     0.144 A 
HETATM    8  C12 UNL     1      24.598   1.581  51.936  1.00  0.00     0.042 A 
HETATM    9  C13 UNL     1      25.410   2.488  51.303  1.00  0.00     0.057 A 
HETATM   10  C14 UNL     1      24.863   3.419  50.447  1.00  0.00     0.103 A 
ENDROOT
BRANCH  10  11
HETATM   11  O2  UNL     1      25.631   4.372  49.771  1.00  0.00    -0.348 OA
BRANCH  11  12
HETATM   12  C15 UNL     1      26.892   3.938  49.309  1.00  0.00     0.177 C 
BRANCH  12  13
HETATM   13  C16 UNL     1      27.628   5.076  48.581  1.00  0.00     0.057 C 
BRANCH  13  14
HETATM   14  C17 UNL     1      26.703   6.246  48.547  1.00  0.00     0.274 C 
BRANCH  14  15
HETATM   15  N4  UNL     1      27.347   7.431  49.023  1.00  0.00     0.092 N 
HETATM   16  C18 UNL     1      28.709   7.503  48.494  1.00  0.00     0.298 C 
HETATM   17  C19 UNL     1      29.354   8.821  48.833  1.00  0.00     0.198 C 
HETATM   18  O3  UNL     1      28.579   9.592  49.676  1.00  0.00    -0.388 OA
HETATM   19  C20 UNL     1      27.297   9.811  49.231  1.00  0.00     0.198 C 
HETATM   20  C21 UNL     1      26.682   8.619  48.515  1.00  0.00     0.298 C 
ENDBRANCH  14  15
ENDBRANCH  13  14
ENDBRANCH  12  13
ENDBRANCH  11  12
ENDBRANCH  10  11
BRANCH   1  21
HETATM   21  O1  UNL     1      22.925   4.319  49.411  1.00  0.00    -0.353 OA
HETATM   22  C1  UNL     1      22.313   5.503  49.945  1.00  0.00     0.210 C 
ENDBRANCH   1  21
BRANCH   7  23
HETATM   23  N3  UNL     1      26.655   0.619  53.075  1.00  0.00    -0.336 N 
HETATM   24  C7  UNL     1      27.066  -0.759  52.973  1.00  0.00     0.120 A 
HETATM   25  C8  UNL     1      28.308  -1.205  53.189  1.00  0.00     0.087 A 
HETATM   26 CL1  UNL     1      28.844  -2.882  53.072  1.00  0.00    -0.080 Cl
HETATM   27  C9  UNL     1      29.361  -0.258  53.566  1.00  0.00     0.137 A 
HETATM   28  F1  UNL     1      30.651  -0.582  53.811  1.00  0.00    -0.205 F 
HETATM   29  C10 UNL     1      28.969   0.992  53.662  1.00  0.00     0.037 A 
HETATM   30  C11 UNL     1      27.635   1.605  53.450  1.00  0.00     0.160 A 
ENDBRANCH   7  23
TORSDOF 7
ENDMDL
MODEL 3
REMARK VINA RESULT:      -7.9      1.860      2.638
REMARK  7 active torsions:
REMARK  status: ('A' for Active; 'I' for Inactive)
REMARK    1  A    between atoms: O1_2  and  C2_3 
REMARK    2  A    between atoms: C6_9  and  N3_10 
REMARK    3  A    between atoms: C14_20  and  O2_21 
REMARK    4  A    between atoms: O2_21  and  C15_22 
REMARK    5  A    between atoms: C15_22  and  C16_23 
REMARK    6  A    between atoms: C16_23  and  C17_24 
REMARK    7  A    between atoms: C17_24  and  N4_25 
ROOT
HETATM    1  C2  UNL     1      22.147   2.034  51.798  1.00  0.00     0.103 A 
HETATM    2  C3  UNL     1      21.622   1.330  52.858  1.00  0.00     0.072 A 
HETATM    3  C4  UNL     1      22.397   0.450  53.563  1.00  0.00     0.075 A 
HETATM    4  N1  UNL     1      21.993  -0.298  54.611  1.00  0.00    -0.241 NA
HETATM    5  C5  UNL     1      22.863  -1.134  55.215  1.00  0.00     0.236 A 
HETATM    6  N2  UNL     1      24.159  -1.283  54.832  1.00  0.00    -0.223 NA
HETATM    7  C6  UNL     1      24.597  -0.545  53.782  1.00  0.00     0.144 A 
HETATM    8  C12 UNL     1      23.706   0.307  53.167  1.00  0.00     0.042 A 
HETATM    9  C13 UNL     1      24.245   1.002  52.112  1.00  0.00     0.057 A 
HETATM   10  C14 UNL     1      23.464   1.887  51.402  1.00  0.00     0.103 A 
ENDROOT
BRANCH  10  11
HETATM   11  O2  UNL     1      23.949   2.627  50.319  1.00  0.00    -0.348 OA
BRANCH  11  12
HETATM   12  C15 UNL     1      25.057   3.459  50.582  1.00  0.00     0.177 C 
BRANCH  12  13
HETATM   13  C16 UNL     1      25.702   3.941  49.272  1.00  0.00     0.057 C 
BRANCH  13  14
HETATM   14  C17 UNL     1      25.566   5.427  49.237  1.00  0.00     0.274 C 
BRANCH  14  15
HETATM   15  N4  UNL     1      26.832   6.060  49.035  1.00  0.00     0.092 N 
HETATM   16  C18 UNL     1      27.810   5.078  48.566  1.00  0.00     0.298 C 
HETATM   17  C19 UNL     1      29.105   5.743  48.179  1.00  0.00     0.198 C 
HETATM   18  O3  UNL     1      29.125   7.089  48.485  1.00  0.00    -0.388 OA
HETATM   19  C20 UNL     1      28.070   7.806  47.972  1.00  0.00     0.198 C 
HETATM   20  C21 UNL     1      26.752   7.049  47.973  1.00  0.00     0.298 C 
ENDBRANCH  14  15
ENDBRANCH  13  14
ENDBRANCH  12  13
ENDBRANCH  11  12
ENDBRANCH  10  11
BRANCH   1  21
HETATM   21  O1  UNL     1      21.348   2.920  51.096  1.00  0.00    -0.353 OA
HETATM   22  C1  UNL     1      20.727   4.020  51.780  1.00  0.00     0.210 C 
ENDBRANCH   1  21
BRANCH   7  23
HETATM   23  N3  UNL     1      25.969  -0.791  53.528  1.00  0.00    -0.336 N 
HETATM   24  C7  UNL     1      26.751   0.212  54.206  1.00  0.00     0.120 A 
HETATM   25  C8  UNL     1      28.087   0.275  54.196  1.00  0.00     0.087 A 
HETATM   26 CL1  UNL     1      29.075   1.487  55.014  1.00  0.00    -0.080 Cl
HETATM   27  C9  UNL     1      28.853  -0.726  53.448  1.00  0.00     0.137 A 
HETATM   28  F1  UNL     1      30.202  -0.771  53.361  1.00  0.00    -0.205 F 
HETATM   29  C10 UNL     1      28.125  -1.628  52.831  1.00  0.00     0.037 A 
HETATM   30  C11 UNL     1      26.653  -1.803  52.766  1.00  0.00     0.160 A 
ENDBRANCH   7  23
TORSDOF 7
ENDMDL
MODEL 4
REMARK VINA RESULT:      -7.9      1.884      2.803
REMARK  7 active torsions:
REMARK  status: ('A' for Active; 'I' for Inactive)
REMARK    1  A    between atoms: O1_2  and  C2_3 
REMARK    2  A    between atoms: C6_9  and  N3_10 
REMARK    3  A    between atoms: C14_20  and  O2_21 
REMARK    4  A    between atoms: O2_21  and  C15_22 
REMARK    5  A    between atoms: C15_22  and  C16_23 
REMARK    6  A    between atoms: C16_23  and  C17_24 
REMARK    7  A    between atoms: C17_24  and  N4_25 
ROOT
HETATM    1  C2  UNL     1      22.567   1.786  51.964  1.00  0.00     0.103 A 
HETATM    2  C3  UNL     1      22.094   1.045  53.022  1.00  0.00     0.072 A 
HETATM    3  C4  UNL     1      22.931   0.231  53.734  1.00  0.00     0.075 A 
HETATM    4  N1  UNL     1      22.582  -0.544  54.782  1.00  0.00    -0.241 NA
HETATM    5  C5  UNL     1      23.512  -1.308  55.393  1.00  0.00     0.236 A 
HETATM    6  N2  UNL     1      24.819  -1.354  55.018  1.00  0.00    -0.223 NA
HETATM    7  C6  UNL     1      25.202  -0.586  53.969  1.00  0.00     0.144 A 
HETATM    8  C12 UNL     1      24.250   0.192  53.346  1.00  0.00     0.042 A 
HETATM    9  C13 UNL     1      24.738   0.925  52.293  1.00  0.00     0.057 A 
HETATM   10  C14 UNL     1      23.894   1.744  51.576  1.00  0.00     0.103 A 
ENDROOT
BRANCH  10  11
HETATM   11  O2  UNL     1      24.325   2.517  50.494  1.00  0.00    -0.348 OA
BRANCH  11  12
HETATM   12  C15 UNL     1      25.229   3.558  50.796  1.00  0.00     0.177 C 
BRANCH  12  13
HETATM   13  C16 UNL     1      26.341   3.640  49.737  1.00  0.00     0.057 C 
BRANCH  13  14
HETATM   14  C17 UNL     1      26.282   5.007  49.143  1.00  0.00     0.274 C 
BRANCH  14  15
HETATM   15  N4  UNL     1      25.211   5.771  49.703  1.00  0.00     0.092 N 
HETATM   16  C18 UNL     1      25.694   7.098  50.085  1.00  0.00     0.298 C 
HETATM   17  C19 UNL     1      24.558   7.987  50.518  1.00  0.00     0.198 C 
HETATM   18  O3  UNL     1      23.355   7.314  50.592  1.00  0.00    -0.388 OA
HETATM   19  C20 UNL     1      23.003   6.647  49.443  1.00  0.00     0.198 C 
HETATM   20  C21 UNL     1      24.178   6.018  48.711  1.00  0.00     0.298 C 
ENDBRANCH  14  15
ENDBRANCH  13  14
ENDBRANCH  12  13
ENDBRANCH  11  12
ENDBRANCH  10  11
BRANCH   1  21
HETATM   21  O1  UNL     1      21.704   2.605  51.255  1.00  0.00    -0.353 OA
HETATM   22  C1  UNL     1      21.523   3.971  51.657  1.00  0.00     0.210 C 
ENDBRANCH   1  21
BRANCH   7  23
HETATM   23  N3  UNL     1      26.591  -0.722  53.723  1.00  0.00    -0.336 N 
HETATM   24  C7  UNL     1      27.273   0.418  54.282  1.00  0.00     0.120 A 
HETATM   25  C8  UNL     1      28.597   0.609  54.248  1.00  0.00     0.087 A 
HETATM   26 CL1  UNL     1      29.463   1.991  54.922  1.00  0.00    -0.080 Cl
HETATM   27  C9  UNL     1      29.455  -0.385  53.598  1.00  0.00     0.137 A 
HETATM   28  F1  UNL     1      30.801  -0.308  53.498  1.00  0.00    -0.205 F 
HETATM   29  C10 UNL     1      28.817  -1.414  53.088  1.00  0.00     0.037 A 
HETATM   30  C11 UNL     1      27.369  -1.737  53.061  1.00  0.00     0.160 A 
ENDBRANCH   7  23
TORSDOF 7
ENDMDL
MODEL 5
REMARK VINA RESULT:      -7.9      3.427      5.754
REMARK  7 active torsions:
REMARK  status: ('A' for Active; 'I' for Inactive)
REMARK    1  A    between atoms: O1_2  and  C2_3 
REMARK    2  A    between atoms: C6_9  and  N3_10 
REMARK    3  A    between atoms: C14_20  and  O2_21 
REMARK    4  A    between atoms: O2_21  and  C15_22 
REMARK    5  A    between atoms: C15_22  and  C16_23 
REMARK    6  A    between atoms: C16_23  and  C17_24 
REMARK    7  A    between atoms: C17_24  and  N4_25 
ROOT
HETATM    1  C2  UNL     1      27.508   0.974  53.256  1.00  0.00     0.103 A 
HETATM    2  C3  UNL     1      27.107   0.173  54.300  1.00  0.00     0.072 A 
HETATM    3  C4  UNL     1      25.802  -0.220  54.418  1.00  0.00     0.075 A 
HETATM    4  N1  UNL     1      25.293  -0.995  55.398  1.00  0.00    -0.241 NA
HETATM    5  C5  UNL     1      23.979  -1.304  55.397  1.00  0.00     0.236 A 
HETATM    6  N2  UNL     1      23.102  -0.876  54.449  1.00  0.00    -0.223 NA
HETATM    7  C6  UNL     1      23.583  -0.096  53.450  1.00  0.00     0.144 A 
HETATM    8  C12 UNL     1      24.925   0.219  53.454  1.00  0.00     0.042 A 
HETATM    9  C13 UNL     1      25.308   1.018  52.406  1.00  0.00     0.057 A 
HETATM   10  C14 UNL     1      26.622   1.413  52.289  1.00  0.00     0.103 A 
ENDROOT
BRANCH  10  11
HETATM   11  O2  UNL     1      27.080   2.226  51.247  1.00  0.00    -0.348 OA
BRANCH  11  12
HETATM   12  C15 UNL     1      26.199   3.241  50.818  1.00  0.00     0.177 C 
BRANCH  12  13
HETATM   13  C16 UNL     1      26.505   3.654  49.368  1.00  0.00     0.057 C 
BRANCH  13  14
HETATM   14  C17 UNL     1      26.348   5.136  49.292  1.00  0.00     0.274 C 
BRANCH  14  15
HETATM   15  N4  UNL     1      25.122   5.561  49.892  1.00  0.00     0.092 N 
HETATM   16  C18 UNL     1      25.276   6.910  50.436  1.00  0.00     0.298 C 
HETATM   17  C19 UNL     1      23.958   7.454  50.921  1.00  0.00     0.198 C 
HETATM   18  O3  UNL     1      22.946   6.517  50.875  1.00  0.00    -0.388 OA
HETATM   19  C20 UNL     1      22.772   5.924  49.647  1.00  0.00     0.198 C 
HETATM   20  C21 UNL     1      24.071   5.674  48.896  1.00  0.00     0.298 C 
ENDBRANCH  14  15
ENDBRANCH  13  14
ENDBRANCH  12  13
ENDBRANCH  11  12
ENDBRANCH  10  11
BRANCH   1  21
HETATM   21  O1  UNL     1      28.833   1.362  53.153  1.00  0.00    -0.353 OA
HETATM   22  C1  UNL     1      29.443   2.114  54.213  1.00  0.00     0.210 C 
ENDBRANCH   1  21
BRANCH   7  23
HETATM   23  N3  UNL     1      22.557   0.240  52.532  1.00  0.00    -0.336 N 
HETATM   24  C7  UNL     1      21.311  -0.303  53.013  1.00  0.00     0.120 A 
HETATM   25  C8  UNL     1      20.130  -0.162  52.402  1.00  0.00     0.087 A 
HETATM   26 CL1  UNL     1      18.587  -0.812  52.962  1.00  0.00    -0.080 Cl
HETATM   27  C9  UNL     1      20.050   0.586  51.145  1.00  0.00     0.137 A 
HETATM   28  F1  UNL     1      18.920   0.798  50.433  1.00  0.00    -0.205 F 
HETATM   29  C10 UNL     1      21.194   1.068  50.717  1.00  0.00     0.037 A 
HETATM   30  C11 UNL     1      22.557   0.981  51.298  1.00  0.00     0.160 A 
ENDBRANCH   7  23
TORSDOF 7
ENDMDL
MODEL 6
REMARK VINA RESULT:      -7.8      3.604      5.744
REMARK  7 active torsions:
REMARK  status: ('A' for Active; 'I' for Inactive)
REMARK    1  A    between atoms: O1_2  and  C2_3 
REMARK    2  A    between atoms: C6_9  and  N3_10 
REMARK    3  A    between atoms: C14_20  and  O2_21 
REMARK    4  A    between atoms: O2_21  and  C15_22 
REMARK    5  A    between atoms: C15_22  and  C16_23 
REMARK    6  A    between atoms: C16_23  and  C17_24 
REMARK    7  A    between atoms: C17_24  and  N4_25 
ROOT
HETATM    1  C2  UNL     1      27.114   0.575  53.286  1.00  0.00     0.103 A 
HETATM    2  C3  UNL     1      26.706  -0.152  54.380  1.00  0.00     0.072 A 
HETATM    3  C4  UNL     1      25.390  -0.485  54.546  1.00  0.00     0.075 A 
HETATM    4  N1  UNL     1      24.873  -1.185  55.577  1.00  0.00    -0.241 NA
HETATM    5  C5  UNL     1      23.548  -1.440  55.620  1.00  0.00     0.236 A 
HETATM    6  N2  UNL     1      22.667  -1.028  54.669  1.00  0.00    -0.223 NA
HETATM    7  C6  UNL     1      23.155  -0.323  53.619  1.00  0.00     0.144 A 
HETATM    8  C12 UNL     1      24.508  -0.064  53.578  1.00  0.00     0.042 A 
HETATM    9  C13 UNL     1      24.898   0.662  52.480  1.00  0.00     0.057 A 
HETATM   10  C14 UNL     1      26.224   0.997  52.314  1.00  0.00     0.103 A 
ENDROOT
BRANCH  10  11
HETATM   11  O2  UNL     1      26.690   1.733  51.220  1.00  0.00    -0.348 OA
BRANCH  11  12
HETATM   12  C15 UNL     1      25.903   2.839  50.836  1.00  0.00     0.177 C 
BRANCH  12  13
HETATM   13  C16 UNL     1      26.431   3.459  49.531  1.00  0.00     0.057 C 
BRANCH  13  14
HETATM   14  C17 UNL     1      25.805   4.806  49.401  1.00  0.00     0.274 C 
BRANCH  14  15
HETATM   15  N4  UNL     1      26.787   5.815  49.153  1.00  0.00     0.092 N 
HETATM   16  C18 UNL     1      27.944   5.227  48.479  1.00  0.00     0.298 C 
HETATM   17  C19 UNL     1      28.921   6.289  48.048  1.00  0.00     0.198 C 
HETATM   18  O3  UNL     1      28.579   7.545  48.508  1.00  0.00    -0.388 OA
HETATM   19  C20 UNL     1      27.301   7.940  48.188  1.00  0.00     0.198 C 
HETATM   20  C21 UNL     1      26.280   6.814  48.228  1.00  0.00     0.298 C 
ENDBRANCH  14  15
ENDBRANCH  13  14
ENDBRANCH  12  13
ENDBRANCH  11  12
ENDBRANCH  10  11
BRANCH   1  21
HETATM   21  O1  UNL     1      28.451   0.902  53.134  1.00  0.00    -0.353 OA
HETATM   22  C1  UNL     1      29.086   1.773  54.082  1.00  0.00     0.210 C 
ENDBRANCH   1  21
BRANCH   7  23
HETATM   23  N3  UNL     1      22.122   0.004  52.706  1.00  0.00    -0.336 N 
HETATM   24  C7  UNL     1      20.874  -0.499  53.221  1.00  0.00     0.120 A 
HETATM   25  C8  UNL     1      19.687  -0.355  52.622  1.00  0.00     0.087 A 
HETATM   26 CL1  UNL     1      18.141  -0.957  53.224  1.00  0.00    -0.080 Cl
HETATM   27  C9  UNL     1      19.602   0.356  51.344  1.00  0.00     0.137 A 
HETATM   28  F1  UNL     1      18.466   0.568  50.642  1.00  0.00    -0.205 F 
HETATM   29  C10 UNL     1      20.749   0.803  50.885  1.00  0.00     0.037 A 
HETATM   30  C11 UNL     1      22.119   0.707  51.449  1.00  0.00     0.160 A 
ENDBRANCH   7  23
TORSDOF 7
ENDMDL
MODEL 7
REMARK VINA RESULT:      -7.7      3.516      5.494
REMARK  7 active torsions:
REMARK  status: ('A' for Active; 'I' for Inactive)
REMARK    1  A    between atoms: O1_2  and  C2_3 
REMARK    2  A    between atoms: C6_9  and  N3_10 
REMARK    3  A    between atoms: C14_20  and  O2_21 
REMARK    4  A    between atoms: O2_21  and  C15_22 
REMARK    5  A    between atoms: C15_22  and  C16_23 
REMARK    6  A    between atoms: C16_23  and  C17_24 
REMARK    7  A    between atoms: C17_24  and  N4_25 
ROOT
HETATM    1  C2  UNL     1      26.059  -0.368  53.717  1.00  0.00     0.103 A 
HETATM    2  C3  UNL     1      25.091  -0.909  54.532  1.00  0.00     0.072 A 
HETATM    3  C4  UNL     1      23.765  -0.689  54.282  1.00  0.00     0.075 A 
HETATM    4  N1  UNL     1      22.732  -1.159  55.012  1.00  0.00    -0.241 NA
HETATM    5  C5  UNL     1      21.465  -0.859  54.656  1.00  0.00     0.236 A 
HETATM    6  N2  UNL     1      21.143  -0.092  53.580  1.00  0.00    -0.223 NA
HETATM    7  C6  UNL     1      22.159   0.395  52.825  1.00  0.00     0.144 A 
HETATM    8  C12 UNL     1      23.451   0.088  53.192  1.00  0.00     0.042 A 
HETATM    9  C13 UNL     1      24.403   0.635  52.368  1.00  0.00     0.057 A 
HETATM   10  C14 UNL     1      25.739   0.413  52.621  1.00  0.00     0.103 A 
ENDROOT
BRANCH  10  11
HETATM   11  O2  UNL     1      26.760   0.939  51.823  1.00  0.00    -0.348 OA
BRANCH  11  12
HETATM   12  C15 UNL     1      26.720   2.332  51.603  1.00  0.00     0.177 C 
BRANCH  12  13
HETATM   13  C16 UNL     1      26.594   2.645  50.102  1.00  0.00     0.057 C 
BRANCH  13  14
HETATM   14  C17 UNL     1      25.594   3.744  49.967  1.00  0.00     0.274 C 
BRANCH  14  15
HETATM   15  N4  UNL     1      26.226   4.986  49.646  1.00  0.00     0.092 N 
HETATM   16  C18 UNL     1      27.383   4.746  48.784  1.00  0.00     0.298 C 
HETATM   17  C19 UNL     1      27.968   6.042  48.287  1.00  0.00     0.198 C 
HETATM   18  O3  UNL     1      27.378   7.148  48.864  1.00  0.00    -0.388 OA
HETATM   19  C20 UNL     1      26.009   7.190  48.748  1.00  0.00     0.198 C 
HETATM   20  C21 UNL     1      25.340   5.829  48.862  1.00  0.00     0.298 C 
ENDBRANCH  14  15
ENDBRANCH  13  14
ENDBRANCH  12  13
ENDBRANCH  11  12
ENDBRANCH  10  11
BRANCH   1  21
HETATM   21  O1  UNL     1      27.397  -0.603  53.985  1.00  0.00    -0.353 OA
HETATM   22  C1  UNL     1      28.093   0.225  54.929  1.00  0.00     0.210 C 
ENDBRANCH   1  21
BRANCH   7  23
HETATM   23  N3  UNL     1      21.661   1.145  51.731  1.00  0.00    -0.336 N 
HETATM   24  C7  UNL     1      21.759   2.548  52.049  1.00  0.00     0.120 A 
HETATM   25  C8  UNL     1      21.394   3.543  51.234  1.00  0.00     0.087 A 
HETATM   26 CL1  UNL     1      21.502   5.269  51.591  1.00  0.00    -0.080 Cl
HETATM   27  C9  UNL     1      20.842   3.232  49.913  1.00  0.00     0.137 A 
HETATM   28  F1  UNL     1      20.438   4.145  49.001  1.00  0.00    -0.205 F 
HETATM   29  C10 UNL     1      20.753   1.950  49.642  1.00  0.00     0.037 A 
HETATM   30  C11 UNL     1      21.120   0.763  50.453  1.00  0.00     0.160 A 
ENDBRANCH   7  23
TORSDOF 7
ENDMDL
MODEL 8
REMARK VINA RESULT:      -7.7      3.790      7.596
REMARK  7 active torsions:
REMARK  status: ('A' for Active; 'I' for Inactive)
REMARK    1  A    between atoms: O1_2  and  C2_3 
REMARK    2  A    between atoms: C6_9  and  N3_10 
REMARK    3  A    between atoms: C14_20  and  O2_21 
REMARK    4  A    between atoms: O2_21  and  C15_22 
REMARK    5  A    between atoms: C15_22  and  C16_23 
REMARK    6  A    between atoms: C16_23  and  C17_24 
REMARK    7  A    between atoms: C17_24  and  N4_25 
ROOT
HETATM    1  C2  UNL     1      26.256   0.596  52.896  1.00  0.00     0.103 A 
HETATM    2  C3  UNL     1      26.948   1.421  52.039  1.00  0.00     0.072 A 
HETATM    3  C4  UNL     1      26.292   2.367  51.301  1.00  0.00     0.075 A 
HETATM    4  N1  UNL     1      26.860   3.224  50.427  1.00  0.00    -0.241 NA
HETATM    5  C5  UNL     1      26.092   4.108  49.757  1.00  0.00     0.236 A 
HETATM    6  N2  UNL     1      24.743   4.202  49.903  1.00  0.00    -0.223 NA
HETATM    7  C6  UNL     1      24.142   3.356  50.774  1.00  0.00     0.144 A 
HETATM    8  C12 UNL     1      24.929   2.453  51.457  1.00  0.00     0.042 A 
HETATM    9  C13 UNL     1      24.224   1.638  52.308  1.00  0.00     0.057 A 
HETATM   10  C14 UNL     1      24.885   0.685  53.050  1.00  0.00     0.103 A 
ENDROOT
BRANCH  10  11
HETATM   11  O2  UNL     1      24.229  -0.176  53.935  1.00  0.00    -0.348 OA
BRANCH  11  12
HETATM   12  C15 UNL     1      23.190  -0.957  53.386  1.00  0.00     0.177 C 
BRANCH  12  13
HETATM   13  C16 UNL     1      21.957  -0.951  54.306  1.00  0.00     0.057 C 
BRANCH  13  14
HETATM   14  C17 UNL     1      21.287   0.371  54.132  1.00  0.00     0.274 C 
BRANCH  14  15
HETATM   15  N4  UNL     1      20.013   0.229  53.499  1.00  0.00     0.092 N 
HETATM   16  C18 UNL     1      20.141   0.480  52.063  1.00  0.00     0.298 C 
HETATM   17  C19 UNL     1      18.857   0.171  51.341  1.00  0.00     0.198 C 
HETATM   18  O3  UNL     1      17.822  -0.135  52.202  1.00  0.00    -0.388 OA
HETATM   19  C20 UNL     1      18.101  -1.145  53.092  1.00  0.00     0.198 C 
HETATM   20  C21 UNL     1      19.534  -1.138  53.602  1.00  0.00     0.298 C 
ENDBRANCH  14  15
ENDBRANCH  13  14
ENDBRANCH  12  13
ENDBRANCH  11  12
ENDBRANCH  10  11
BRANCH   1  21
HETATM   21  O1  UNL     1      26.937  -0.356  53.636  1.00  0.00    -0.353 OA
HETATM   22  C1  UNL     1      27.861   0.056  54.655  1.00  0.00     0.210 C 
ENDBRANCH   1  21
BRANCH   7  23
HETATM   23  N3  UNL     1      22.747   3.598  50.834  1.00  0.00    -0.336 N 
HETATM   24  C7  UNL     1      22.143   3.126  49.613  1.00  0.00     0.120 A 
HETATM   25  C8  UNL     1      20.836   3.181  49.337  1.00  0.00     0.087 A 
HETATM   26 CL1  UNL     1      20.064   2.613  47.854  1.00  0.00    -0.080 Cl
HETATM   27  C9  UNL     1      19.913   3.761  50.316  1.00  0.00     0.137 A 
HETATM   28  F1  UNL     1      18.574   3.873  50.155  1.00  0.00    -0.205 F 
HETATM   29  C10 UNL     1      20.479   4.191  51.419  1.00  0.00     0.037 A 
HETATM   30  C11 UNL     1      21.902   4.187  51.840  1.00  0.00     0.160 A 
ENDBRANCH   7  23
TORSDOF 7
ENDMDL
MODEL 9
REMARK VINA RESULT:      -7.5      4.603      8.978
REMARK  7 active torsions:
REMARK  status: ('A' for Active; 'I' for Inactive)
REMARK    1  A    between atoms: O1_2  and  C2_3 
REMARK    2  A    between atoms: C6_9  and  N3_10 
REMARK    3  A    between atoms: C14_20  and  O2_21 
REMARK    4  A    between atoms: O2_21  and  C15_22 
REMARK    5  A    between atoms: C15_22  and  C16_23 
REMARK    6  A    between atoms: C16_23  and  C17_24 
REMARK    7  A    between atoms: C17_24  and  N4_25 
ROOT
HETATM    1  C2  UNL     1      26.538   6.099  48.757  1.00  0.00     0.103 A 
HETATM    2  C3  UNL     1      27.015   7.345  48.424  1.00  0.00     0.072 A 
HETATM    3  C4  UNL     1      28.324   7.520  48.068  1.00  0.00     0.075 A 
HETATM    4  N1  UNL     1      28.904   8.690  47.731  1.00  0.00    -0.241 NA
HETATM    5  C5  UNL     1      30.214   8.722  47.404  1.00  0.00     0.236 A 
HETATM    6  N2  UNL     1      31.017   7.624  47.391  1.00  0.00    -0.223 NA
HETATM    7  C6  UNL     1      30.464   6.433  47.724  1.00  0.00     0.144 A 
HETATM    8  C12 UNL     1      29.127   6.403  48.058  1.00  0.00     0.042 A 
HETATM    9  C13 UNL     1      28.667   5.152  48.386  1.00  0.00     0.057 A 
HETATM   10  C14 UNL     1      27.349   4.978  48.745  1.00  0.00     0.103 A 
ENDROOT
BRANCH  10  11
HETATM   11  O2  UNL     1      26.815   3.732  49.090  1.00  0.00    -0.348 OA
BRANCH  11  12
HETATM   12  C15 UNL     1      26.454   3.565  50.444  1.00  0.00     0.177 C 
BRANCH  12  13
HETATM   13  C16 UNL     1      26.629   2.100  50.879  1.00  0.00     0.057 C 
BRANCH  13  14
HETATM   14  C17 UNL     1      27.144   2.116  52.279  1.00  0.00     0.274 C 
BRANCH  14  15
HETATM   15  N4  UNL     1      26.789   0.921  52.978  1.00  0.00     0.092 N 
HETATM   16  C18 UNL     1      25.392   0.991  53.406  1.00  0.00     0.298 C 
HETATM   17  C19 UNL     1      24.936  -0.318  53.993  1.00  0.00     0.198 C 
HETATM   18  O3  UNL     1      25.965  -1.229  54.124  1.00  0.00    -0.388 OA
HETATM   19  C20 UNL     1      26.670  -1.466  52.968  1.00  0.00     0.198 C 
HETATM   20  C21 UNL     1      26.857  -0.232  52.098  1.00  0.00     0.298 C 
ENDBRANCH  14  15
ENDBRANCH  13  14
ENDBRANCH  12  13
ENDBRANCH  11  12
ENDBRANCH  10  11
BRANCH   1  21
HETATM   21  O1  UNL     1      25.210   5.941  49.114  1.00  0.00    -0.353 OA
HETATM   22  C1  UNL     1      24.340   7.083  49.156  1.00  0.00     0.210 C 
ENDBRANCH   1  21
BRANCH   7  23
HETATM   23  N3  UNL     1      31.418   5.389  47.633  1.00  0.00    -0.336 N 
HETATM   24  C7  UNL     1      32.649   5.835  48.235  1.00  0.00     0.120 A 
HETATM   25  C8  UNL     1      33.760   5.097  48.339  1.00  0.00     0.087 A 
HETATM   26 CL1  UNL     1      35.282   5.610  49.069  1.00  0.00    -0.080 Cl
HETATM   27  C9  UNL     1      33.773   3.731  47.810  1.00  0.00     0.137 A 
HETATM   28  F1  UNL     1      34.829   2.887  47.854  1.00  0.00    -0.205 F 
HETATM   29  C10 UNL     1      32.646   3.342  47.259  1.00  0.00     0.037 A 
HETATM   30  C11 UNL     1      31.358   4.059  47.084  1.00  0.00     0.160 A 
ENDBRANCH   7  23
TORSDOF 7
ENDMDL
