MODEL 1
REMARK VINA RESULT:      -8.5      0.000      0.000
REMARK  6 active torsions:
REMARK  status: ('A' for Active; 'I' for Inactive)
REMARK    1  A    between atoms: C2_2  and  C3_3 
REMARK    2  A    between atoms: C2_2  and  N1_11 
REMARK    3  A    between atoms: C3_3  and  C4_4 
REMARK    4  A    between atoms: N1_11  and  C11_12 
REMARK    5  A    between atoms: C12_14  and  N3_15 
REMARK    6  A    between atoms: C13_17  and  N5_18 
ROOT
HETATM    1  C11 UNL     1      22.604  -0.355  53.036  1.00  0.00     0.169 A 
HETATM    2  N2  UNL     1      21.657  -1.132  53.502  1.00  0.00    -0.046 NA
HETATM    3  C12 UNL     1      20.421  -0.441  53.531  1.00  0.00     0.719 A 
HETATM    4  N4  UNL     1      20.616   0.739  53.090  1.00  0.00    -0.071 NA
HETATM    5  C13 UNL     1      22.010   0.956  52.719  1.00  0.00     0.300 A 
ENDROOT
BRANCH   1   6
HETATM    6  N1  UNL     1      23.891  -0.949  52.964  1.00  0.00    -0.345 N 
HETATM    7  H12 UNL     1      23.985  -1.796  52.374  1.00  0.00     0.167 HD
BRANCH   6   8
HETATM    8  C2  UNL     1      25.066  -0.492  53.621  1.00  0.00     0.005 C 
HETATM    9  C1  UNL     1      25.001  -0.628  54.940  1.00  0.00     0.038 C 
BRANCH   8  10
HETATM   10  C3  UNL     1      26.044   0.012  52.655  1.00  0.00     0.095 C 
BRANCH  10  11
HETATM   11  C4  UNL     1      27.460  -0.290  53.011  1.00  0.00    -0.047 A 
HETATM   12  C5  UNL     1      27.964  -1.576  52.959  1.00  0.00     0.008 A 
HETATM   13  C6  UNL     1      29.278  -1.880  53.284  1.00  0.00     0.001 A 
HETATM   14  C7  UNL     1      30.134  -0.866  53.681  1.00  0.00     0.001 A 
HETATM   15  C8  UNL     1      29.640   0.423  53.738  1.00  0.00     0.007 A 
HETATM   16  C9  UNL     1      28.313   0.719  53.407  1.00  0.00    -0.055 A 
HETATM   17  C10 UNL     1      27.847   2.127  53.491  1.00  0.00     0.049 C 
ENDBRANCH  10  11
ENDBRANCH   8  10
ENDBRANCH   6   8
ENDBRANCH   1   6
BRANCH   5  18
HETATM   18  N5  UNL     1      22.097   1.320  51.334  1.00  0.00    -0.326 N 
HETATM   19  C14 UNL     1      21.365   0.643  50.325  1.00  0.00     0.091 A 
HETATM   20  C15 UNL     1      21.404   0.953  49.048  1.00  0.00     0.017 A 
HETATM   21  C16 UNL     1      22.239   2.057  48.588  1.00  0.00     0.008 A 
HETATM   22  C17 UNL     1      22.923   2.683  49.543  1.00  0.00    -0.031 A 
HETATM   23  C18 UNL     1      23.771   3.814  49.023  1.00  0.00     0.048 C 
HETATM   24  C19 UNL     1      22.963   2.420  50.987  1.00  0.00     0.303 A 
HETATM   25  F1  UNL     1      24.248   2.011  51.340  1.00  0.00    -0.222 F 
ENDBRANCH   5  18
BRANCH   3  26
HETATM   26  N3  UNL     1      19.148  -0.897  53.958  1.00  0.00    -0.231 N 
HETATM   27  H13 UNL     1      18.868  -1.218  54.909  1.00  0.00     0.174 HD
HETATM   28  H14 UNL     1      18.284  -0.987  53.384  1.00  0.00     0.174 HD
ENDBRANCH   3  26
TORSDOF 6
ENDMDL
MODEL 2
REMARK VINA RESULT:      -8.4      2.088      4.022
REMARK  6 active torsions:
REMARK  status: ('A' for Active; 'I' for Inactive)
REMARK    1  A    between atoms: C2_2  and  C3_3 
REMARK    2  A    between atoms: C2_2  and  N1_11 
REMARK    3  A    between atoms: C3_3  and  C4_4 
REMARK    4  A    between atoms: N1_11  and  C11_12 
REMARK    5  A    between atoms: C12_14  and  N3_15 
REMARK    6  A    between atoms: C13_17  and  N5_18 
ROOT
HETATM    1  C11 UNL     1      23.765   2.849  52.443  1.00  0.00     0.169 A 
HETATM    2  N2  UNL     1      23.232   4.042  52.338  1.00  0.00    -0.046 NA
HETATM    3  C12 UNL     1      22.033   3.982  51.587  1.00  0.00     0.719 A 
HETATM    4  N4  UNL     1      21.842   2.770  51.240  1.00  0.00    -0.071 NA
HETATM    5  C13 UNL     1      22.901   1.893  51.729  1.00  0.00     0.300 A 
ENDROOT
BRANCH   1   6
HETATM    6  N1  UNL     1      24.977   2.792  53.179  1.00  0.00    -0.345 N 
HETATM    7  H12 UNL     1      25.036   3.379  54.032  1.00  0.00     0.167 HD
BRANCH   6   8
HETATM    8  C2  UNL     1      26.118   2.006  52.861  1.00  0.00     0.005 C 
HETATM    9  C1  UNL     1      26.565   2.226  51.631  1.00  0.00     0.038 C 
BRANCH   8  10
HETATM   10  C3  UNL     1      26.499   1.155  53.991  1.00  0.00     0.095 C 
BRANCH  10  11
HETATM   11  C4  UNL     1      27.244  -0.075  53.599  1.00  0.00    -0.047 A 
HETATM   12  C5  UNL     1      26.604  -1.167  53.042  1.00  0.00     0.008 A 
HETATM   13  C6  UNL     1      27.277  -2.321  52.669  1.00  0.00     0.001 A 
HETATM   14  C7  UNL     1      28.647  -2.402  52.855  1.00  0.00     0.001 A 
HETATM   15  C8  UNL     1      29.297  -1.317  53.412  1.00  0.00     0.007 A 
HETATM   16  C9  UNL     1      28.608  -0.157  53.784  1.00  0.00    -0.055 A 
HETATM   17  C10 UNL     1      29.369   0.972  54.378  1.00  0.00     0.049 C 
ENDBRANCH  10  11
ENDBRANCH   8  10
ENDBRANCH   6   8
ENDBRANCH   1   6
BRANCH   5  18
HETATM   18  N5  UNL     1      22.342   0.869  52.564  1.00  0.00    -0.326 N 
HETATM   19  C14 UNL     1      23.116   0.168  53.524  1.00  0.00     0.091 A 
HETATM   20  C15 UNL     1      22.640  -0.765  54.320  1.00  0.00     0.017 A 
HETATM   21  C16 UNL     1      21.232  -1.141  54.248  1.00  0.00     0.008 A 
HETATM   22  C17 UNL     1      20.518  -0.478  53.341  1.00  0.00    -0.031 A 
HETATM   23  C18 UNL     1      19.071  -0.898  53.302  1.00  0.00     0.048 C 
HETATM   24  C19 UNL     1      20.941   0.569  52.402  1.00  0.00     0.303 A 
HETATM   25  F1  UNL     1      20.808   0.092  51.099  1.00  0.00    -0.222 F 
ENDBRANCH   5  18
BRANCH   3  26
HETATM   26  N3  UNL     1      21.143   5.028  51.233  1.00  0.00    -0.231 N 
HETATM   27  H13 UNL     1      21.131   6.007  51.589  1.00  0.00     0.174 HD
HETATM   28  H14 UNL     1      20.351   4.983  50.557  1.00  0.00     0.174 HD
ENDBRANCH   3  26
TORSDOF 6
ENDMDL
MODEL 3
REMARK VINA RESULT:      -8.3      2.500      6.343
REMARK  6 active torsions:
REMARK  status: ('A' for Active; 'I' for Inactive)
REMARK    1  A    between atoms: C2_2  and  C3_3 
REMARK    2  A    between atoms: C2_2  and  N1_11 
REMARK    3  A    between atoms: C3_3  and  C4_4 
REMARK    4  A    between atoms: N1_11  and  C11_12 
REMARK    5  A    between atoms: C12_14  and  N3_15 
REMARK    6  A    between atoms: C13_17  and  N5_18 
ROOT
HETATM    1  C11 UNL     1      24.328   2.349  52.405  1.00  0.00     0.169 A 
HETATM    2  N2  UNL     1      23.269   2.069  53.126  1.00  0.00    -0.046 NA
HETATM    3  C12 UNL     1      23.177   0.673  53.346  1.00  0.00     0.719 A 
HETATM    4  N4  UNL     1      24.165   0.114  52.766  1.00  0.00    -0.071 NA
HETATM    5  C13 UNL     1      25.022   1.086  52.096  1.00  0.00     0.300 A 
ENDROOT
BRANCH   1   6
HETATM    6  N1  UNL     1      24.519   3.726  52.122  1.00  0.00    -0.345 N 
HETATM    7  H12 UNL     1      25.261   4.217  52.654  1.00  0.00     0.167 HD
BRANCH   6   8
HETATM    8  C2  UNL     1      23.791   4.499  51.176  1.00  0.00     0.005 C 
HETATM    9  C1  UNL     1      22.951   5.352  51.749  1.00  0.00     0.038 C 
BRANCH   8  10
HETATM   10  C3  UNL     1      24.168   4.141  49.807  1.00  0.00     0.095 C 
BRANCH  10  11
HETATM   11  C4  UNL     1      25.330   4.911  49.277  1.00  0.00    -0.047 A 
HETATM   12  C5  UNL     1      25.213   6.235  48.898  1.00  0.00     0.008 A 
HETATM   13  C6  UNL     1      26.281   6.970  48.404  1.00  0.00     0.001 A 
HETATM   14  C7  UNL     1      27.522   6.370  48.277  1.00  0.00     0.001 A 
HETATM   15  C8  UNL     1      27.650   5.046  48.652  1.00  0.00     0.007 A 
HETATM   16  C9  UNL     1      26.566   4.313  49.150  1.00  0.00    -0.055 A 
HETATM   17  C10 UNL     1      26.774   2.893  49.533  1.00  0.00     0.049 C 
ENDBRANCH  10  11
ENDBRANCH   8  10
ENDBRANCH   6   8
ENDBRANCH   1   6
BRANCH   5  18
HETATM   18  N5  UNL     1      26.355   1.006  52.620  1.00  0.00    -0.326 N 
HETATM   19  C14 UNL     1      27.074   2.154  53.042  1.00  0.00     0.091 A 
HETATM   20  C15 UNL     1      28.290   2.124  53.542  1.00  0.00     0.017 A 
HETATM   21  C16 UNL     1      28.989   0.852  53.691  1.00  0.00     0.008 A 
HETATM   22  C17 UNL     1      28.305  -0.218  53.290  1.00  0.00    -0.031 A 
HETATM   23  C18 UNL     1      29.064  -1.508  53.462  1.00  0.00     0.048 C 
HETATM   24  C19 UNL     1      26.957  -0.301  52.714  1.00  0.00     0.303 A 
HETATM   25  F1  UNL     1      27.049  -0.766  51.403  1.00  0.00    -0.222 F 
ENDBRANCH   5  18
BRANCH   3  26
HETATM   26  N3  UNL     1      22.199  -0.058  54.066  1.00  0.00    -0.231 N 
HETATM   27  H13 UNL     1      22.311  -0.557  54.974  1.00  0.00     0.174 HD
HETATM   28  H14 UNL     1      21.204  -0.216  53.799  1.00  0.00     0.174 HD
ENDBRANCH   3  26
TORSDOF 6
ENDMDL
MODEL 4
REMARK VINA RESULT:      -8.2      2.676      7.000
REMARK  6 active torsions:
REMARK  status: ('A' for Active; 'I' for Inactive)
REMARK    1  A    between atoms: C2_2  and  C3_3 
REMARK    2  A    between atoms: C2_2  and  N1_11 
REMARK    3  A    between atoms: C3_3  and  C4_4 
REMARK    4  A    between atoms: N1_11  and  C11_12 
REMARK    5  A    between atoms: C12_14  and  N3_15 
REMARK    6  A    between atoms: C13_17  and  N5_18 
ROOT
HETATM    1  C11 UNL     1      26.632   2.524  51.886  1.00  0.00     0.169 A 
HETATM    2  N2  UNL     1      27.906   2.413  52.177  1.00  0.00    -0.046 NA
HETATM    3  C12 UNL     1      28.082   2.290  53.577  1.00  0.00     0.719 A 
HETATM    4  N4  UNL     1      26.933   2.326  54.127  1.00  0.00    -0.071 NA
HETATM    5  C13 UNL     1      25.866   2.478  53.143  1.00  0.00     0.300 A 
ENDROOT
BRANCH   1   6
HETATM    6  N1  UNL     1      26.339   2.655  50.504  1.00  0.00    -0.345 N 
HETATM    7  H12 UNL     1      26.317   1.783  49.943  1.00  0.00     0.167 HD
BRANCH   6   8
HETATM    8  C2  UNL     1      26.069   3.868  49.813  1.00  0.00     0.005 C 
HETATM    9  C1  UNL     1      27.094   4.276  49.074  1.00  0.00     0.038 C 
BRANCH   8  10
HETATM   10  C3  UNL     1      24.716   4.347  50.104  1.00  0.00     0.095 C 
BRANCH  10  11
HETATM   11  C4  UNL     1      23.741   4.121  48.998  1.00  0.00    -0.047 A 
HETATM   12  C5  UNL     1      23.228   2.867  48.726  1.00  0.00     0.008 A 
HETATM   13  C6  UNL     1      22.319   2.635  47.704  1.00  0.00     0.001 A 
HETATM   14  C7  UNL     1      21.899   3.690  46.912  1.00  0.00     0.001 A 
HETATM   15  C8  UNL     1      22.406   4.948  47.175  1.00  0.00     0.007 A 
HETATM   16  C9  UNL     1      23.322   5.172  48.209  1.00  0.00    -0.055 A 
HETATM   17  C10 UNL     1      23.829   6.550  48.436  1.00  0.00     0.049 C 
ENDBRANCH  10  11
ENDBRANCH   8  10
ENDBRANCH   6   8
ENDBRANCH   1   6
BRANCH   5  18
HETATM   18  N5  UNL     1      24.955   1.374  53.236  1.00  0.00    -0.326 N 
HETATM   19  C14 UNL     1      25.397   0.040  53.433  1.00  0.00     0.091 A 
HETATM   20  C15 UNL     1      24.597  -0.998  53.538  1.00  0.00     0.017 A 
HETATM   21  C16 UNL     1      23.151  -0.819  53.452  1.00  0.00     0.008 A 
HETATM   22  C17 UNL     1      22.749   0.436  53.264  1.00  0.00    -0.031 A 
HETATM   23  C18 UNL     1      21.250   0.573  53.181  1.00  0.00     0.048 C 
HETATM   24  C19 UNL     1      23.546   1.661  53.125  1.00  0.00     0.303 A 
HETATM   25  F1  UNL     1      23.368   2.177  51.843  1.00  0.00    -0.222 F 
ENDBRANCH   5  18
BRANCH   3  26
HETATM   26  N3  UNL     1      29.281   2.148  54.320  1.00  0.00    -0.231 N 
HETATM   27  H13 UNL     1      29.418   1.659  55.230  1.00  0.00     0.174 HD
HETATM   28  H14 UNL     1      30.225   2.516  54.074  1.00  0.00     0.174 HD
ENDBRANCH   3  26
TORSDOF 6
ENDMDL
MODEL 5
REMARK VINA RESULT:      -8.1      2.272      3.915
REMARK  6 active torsions:
REMARK  status: ('A' for Active; 'I' for Inactive)
REMARK    1  A    between atoms: C2_2  and  C3_3 
REMARK    2  A    between atoms: C2_2  and  N1_11 
REMARK    3  A    between atoms: C3_3  and  C4_4 
REMARK    4  A    between atoms: N1_11  and  C11_12 
REMARK    5  A    between atoms: C12_14  and  N3_15 
REMARK    6  A    between atoms: C13_17  and  N5_18 
ROOT
HETATM    1  C11 UNL     1      23.353   2.406  51.192  1.00  0.00     0.169 A 
HETATM    2  N2  UNL     1      22.655   1.475  50.589  1.00  0.00    -0.046 NA
HETATM    3  C12 UNL     1      22.082   1.982  49.398  1.00  0.00     0.719 A 
HETATM    4  N4  UNL     1      22.426   3.204  49.280  1.00  0.00    -0.071 NA
HETATM    5  C13 UNL     1      23.270   3.639  50.389  1.00  0.00     0.300 A 
ENDROOT
BRANCH   1   6
HETATM    6  N1  UNL     1      23.974   2.006  52.404  1.00  0.00    -0.345 N 
HETATM    7  H12 UNL     1      23.956   2.685  53.188  1.00  0.00     0.167 HD
BRANCH   6   8
HETATM    8  C2  UNL     1      24.617   0.761  52.648  1.00  0.00     0.005 C 
HETATM    9  C1  UNL     1      23.956   0.006  53.517  1.00  0.00     0.038 C 
BRANCH   8  10
HETATM   10  C3  UNL     1      25.849   0.646  51.866  1.00  0.00     0.095 C 
BRANCH  10  11
HETATM   11  C4  UNL     1      27.094   0.861  52.659  1.00  0.00    -0.047 A 
HETATM   12  C5  UNL     1      27.557   2.129  52.956  1.00  0.00     0.008 A 
HETATM   13  C6  UNL     1      28.710   2.353  53.693  1.00  0.00     0.001 A 
HETATM   14  C7  UNL     1      29.443   1.273  54.158  1.00  0.00     0.001 A 
HETATM   15  C8  UNL     1      28.989   0.001  53.867  1.00  0.00     0.007 A 
HETATM   16  C9  UNL     1      27.824  -0.214  53.122  1.00  0.00    -0.055 A 
HETATM   17  C10 UNL     1      27.394  -1.608  52.844  1.00  0.00     0.049 C 
ENDBRANCH  10  11
ENDBRANCH   8  10
ENDBRANCH   6   8
ENDBRANCH   1   6
BRANCH   5  18
HETATM   18  N5  UNL     1      24.533   4.101  49.890  1.00  0.00    -0.326 N 
HETATM   19  C14 UNL     1      25.679   3.266  49.840  1.00  0.00     0.091 A 
HETATM   20  C15 UNL     1      26.850   3.644  49.376  1.00  0.00     0.017 A 
HETATM   21  C16 UNL     1      27.035   5.001  48.872  1.00  0.00     0.008 A 
HETATM   22  C17 UNL     1      25.953   5.775  48.927  1.00  0.00    -0.031 A 
HETATM   23  C18 UNL     1      26.190   7.165  48.396  1.00  0.00     0.048 C 
HETATM   24  C19 UNL     1      24.608   5.464  49.427  1.00  0.00     0.303 A 
HETATM   25  F1  UNL     1      24.343   6.254  50.543  1.00  0.00    -0.222 F 
ENDBRANCH   5  18
BRANCH   3  26
HETATM   26  N3  UNL     1      21.261   1.324  48.447  1.00  0.00    -0.231 N 
HETATM   27  H13 UNL     1      20.289   1.570  48.160  1.00  0.00     0.174 HD
HETATM   28  H14 UNL     1      21.498   0.482  47.882  1.00  0.00     0.174 HD
ENDBRANCH   3  26
TORSDOF 6
ENDMDL
MODEL 6
REMARK VINA RESULT:      -8.1      1.790      4.045
REMARK  6 active torsions:
REMARK  status: ('A' for Active; 'I' for Inactive)
REMARK    1  A    between atoms: C2_2  and  C3_3 
REMARK    2  A    between atoms: C2_2  and  N1_11 
REMARK    3  A    between atoms: C3_3  and  C4_4 
REMARK    4  A    between atoms: N1_11  and  C11_12 
REMARK    5  A    between atoms: C12_14  and  N3_15 
REMARK    6  A    between atoms: C13_17  and  N5_18 
ROOT
HETATM    1  C11 UNL     1      23.862   2.608  51.402  1.00  0.00     0.169 A 
HETATM    2  N2  UNL     1      23.502   3.596  50.619  1.00  0.00    -0.046 NA
HETATM    3  C12 UNL     1      22.452   3.188  49.761  1.00  0.00     0.719 A 
HETATM    4  N4  UNL     1      22.179   1.970  50.019  1.00  0.00    -0.071 NA
HETATM    5  C13 UNL     1      23.025   1.438  51.082  1.00  0.00     0.300 A 
ENDROOT
BRANCH   1   6
HETATM    6  N1  UNL     1      24.914   2.907  52.307  1.00  0.00    -0.345 N 
HETATM    7  H12 UNL     1      24.702   3.577  53.069  1.00  0.00     0.167 HD
BRANCH   6   8
HETATM    8  C2  UNL     1      26.231   2.374  52.271  1.00  0.00     0.005 C 
HETATM    9  C1  UNL     1      26.808   2.513  51.084  1.00  0.00     0.038 C 
BRANCH   8  10
HETATM   10  C3  UNL     1      26.602   1.807  53.570  1.00  0.00     0.095 C 
BRANCH  10  11
HETATM   11  C4  UNL     1      27.543   0.654  53.482  1.00  0.00    -0.047 A 
HETATM   12  C5  UNL     1      27.127  -0.593  53.055  1.00  0.00     0.008 A 
HETATM   13  C6  UNL     1      27.985  -1.680  52.964  1.00  0.00     0.001 A 
HETATM   14  C7  UNL     1      29.317  -1.528  53.312  1.00  0.00     0.001 A 
HETATM   15  C8  UNL     1      29.744  -0.286  53.741  1.00  0.00     0.007 A 
HETATM   16  C9  UNL     1      28.870   0.804  53.829  1.00  0.00    -0.055 A 
HETATM   17  C10 UNL     1      29.395   2.112  54.299  1.00  0.00     0.049 C 
ENDBRANCH  10  11
ENDBRANCH   8  10
ENDBRANCH   6   8
ENDBRANCH   1   6
BRANCH   5  18
HETATM   18  N5  UNL     1      22.212   0.983  52.173  1.00  0.00    -0.326 N 
HETATM   19  C14 UNL     1      21.040   1.669  52.582  1.00  0.00     0.091 A 
HETATM   20  C15 UNL     1      20.258   1.278  53.565  1.00  0.00     0.017 A 
HETATM   21  C16 UNL     1      20.575   0.067  54.315  1.00  0.00     0.008 A 
HETATM   22  C17 UNL     1      21.679  -0.566  53.923  1.00  0.00    -0.031 A 
HETATM   23  C18 UNL     1      21.966  -1.810  54.725  1.00  0.00     0.048 C 
HETATM   24  C19 UNL     1      22.623  -0.220  52.853  1.00  0.00     0.303 A 
HETATM   25  F1  UNL     1      23.863   0.074  53.418  1.00  0.00    -0.222 F 
ENDBRANCH   5  18
BRANCH   3  26
HETATM   26  N3  UNL     1      21.768   3.931  48.766  1.00  0.00    -0.231 N 
HETATM   27  H13 UNL     1      20.775   3.838  48.465  1.00  0.00     0.174 HD
HETATM   28  H14 UNL     1      22.154   4.694  48.170  1.00  0.00     0.174 HD
ENDBRANCH   3  26
TORSDOF 6
ENDMDL
MODEL 7
REMARK VINA RESULT:      -8.1      2.610      6.426
REMARK  6 active torsions:
REMARK  status: ('A' for Active; 'I' for Inactive)
REMARK    1  A    between atoms: C2_2  and  C3_3 
REMARK    2  A    between atoms: C2_2  and  N1_11 
REMARK    3  A    between atoms: C3_3  and  C4_4 
REMARK    4  A    between atoms: N1_11  and  C11_12 
REMARK    5  A    between atoms: C12_14  and  N3_15 
REMARK    6  A    between atoms: C13_17  and  N5_18 
ROOT
HETATM    1  C11 UNL     1      24.915   2.762  50.559  1.00  0.00     0.169 A 
HETATM    2  N2  UNL     1      25.351   3.276  49.435  1.00  0.00    -0.046 NA
HETATM    3  C12 UNL     1      26.665   3.778  49.599  1.00  0.00     0.719 A 
HETATM    4  N4  UNL     1      27.021   3.573  50.806  1.00  0.00    -0.071 NA
HETATM    5  C13 UNL     1      25.973   2.908  51.574  1.00  0.00     0.300 A 
ENDROOT
BRANCH   1   6
HETATM    6  N1  UNL     1      23.602   2.227  50.509  1.00  0.00    -0.345 N 
HETATM    7  H12 UNL     1      23.260   1.907  49.584  1.00  0.00     0.167 HD
BRANCH   6   8
HETATM    8  C2  UNL     1      22.709   2.084  51.606  1.00  0.00     0.005 C 
HETATM    9  C1  UNL     1      22.598   3.196  52.324  1.00  0.00     0.038 C 
BRANCH   8  10
HETATM   10  C3  UNL     1      22.145   0.733  51.650  1.00  0.00     0.095 C 
BRANCH  10  11
HETATM   11  C4  UNL     1      22.400   0.011  52.929  1.00  0.00    -0.047 A 
HETATM   12  C5  UNL     1      23.681  -0.177  53.415  1.00  0.00     0.008 A 
HETATM   13  C6  UNL     1      23.942  -0.844  54.603  1.00  0.00     0.001 A 
HETATM   14  C7  UNL     1      22.888  -1.352  55.346  1.00  0.00     0.001 A 
HETATM   15  C8  UNL     1      21.604  -1.171  54.869  1.00  0.00     0.007 A 
HETATM   16  C9  UNL     1      21.352  -0.495  53.669  1.00  0.00    -0.055 A 
HETATM   17  C10 UNL     1      19.947  -0.337  53.214  1.00  0.00     0.049 C 
ENDBRANCH  10  11
ENDBRANCH   8  10
ENDBRANCH   6   8
ENDBRANCH   1   6
BRANCH   5  18
HETATM   18  N5  UNL     1      26.463   1.665  52.095  1.00  0.00    -0.326 N 
HETATM   19  C14 UNL     1      26.359   0.447  51.374  1.00  0.00     0.091 A 
HETATM   20  C15 UNL     1      26.808  -0.711  51.807  1.00  0.00     0.017 A 
HETATM   21  C16 UNL     1      27.462  -0.802  53.107  1.00  0.00     0.008 A 
HETATM   22  C17 UNL     1      27.552   0.346  53.775  1.00  0.00    -0.031 A 
HETATM   23  C18 UNL     1      28.234   0.204  55.112  1.00  0.00     0.048 C 
HETATM   24  C19 UNL     1      27.083   1.685  53.397  1.00  0.00     0.303 A 
HETATM   25  F1  UNL     1      26.083   2.085  54.281  1.00  0.00    -0.222 F 
ENDBRANCH   5  18
BRANCH   3  26
HETATM   26  N3  UNL     1      27.508   4.411  48.651  1.00  0.00    -0.231 N 
HETATM   27  H13 UNL     1      27.633   4.173  47.644  1.00  0.00     0.174 HD
HETATM   28  H14 UNL     1      28.143   5.221  48.811  1.00  0.00     0.174 HD
ENDBRANCH   3  26
TORSDOF 6
ENDMDL
MODEL 8
REMARK VINA RESULT:      -7.9      1.967      3.100
REMARK  6 active torsions:
REMARK  status: ('A' for Active; 'I' for Inactive)
REMARK    1  A    between atoms: C2_2  and  C3_3 
REMARK    2  A    between atoms: C2_2  and  N1_11 
REMARK    3  A    between atoms: C3_3  and  C4_4 
REMARK    4  A    between atoms: N1_11  and  C11_12 
REMARK    5  A    between atoms: C12_14  and  N3_15 
REMARK    6  A    between atoms: C13_17  and  N5_18 
ROOT
HETATM    1  C11 UNL     1      23.317   2.111  52.123  1.00  0.00     0.169 A 
HETATM    2  N2  UNL     1      22.769   1.132  51.445  1.00  0.00    -0.046 NA
HETATM    3  C12 UNL     1      21.854   1.643  50.492  1.00  0.00     0.719 A 
HETATM    4  N4  UNL     1      21.846   2.914  50.592  1.00  0.00    -0.071 NA
HETATM    5  C13 UNL     1      22.761   3.383  51.628  1.00  0.00     0.300 A 
ENDROOT
BRANCH   1   6
HETATM    6  N1  UNL     1      24.254   1.711  53.110  1.00  0.00    -0.345 N 
HETATM    7  H12 UNL     1      24.400   2.356  53.909  1.00  0.00     0.167 HD
BRANCH   6   8
HETATM    8  C2  UNL     1      25.012   0.508  53.112  1.00  0.00     0.005 C 
HETATM    9  C1  UNL     1      24.521  -0.406  53.940  1.00  0.00     0.038 C 
BRANCH   8  10
HETATM   10  C3  UNL     1      26.145   0.602  52.188  1.00  0.00     0.095 C 
BRANCH  10  11
HETATM   11  C4  UNL     1      27.414   0.033  52.724  1.00  0.00    -0.047 A 
HETATM   12  C5  UNL     1      27.669  -1.326  52.700  1.00  0.00     0.008 A 
HETATM   13  C6  UNL     1      28.843  -1.877  53.192  1.00  0.00     0.001 A 
HETATM   14  C7  UNL     1      29.811  -1.048  53.734  1.00  0.00     0.001 A 
HETATM   15  C8  UNL     1      29.567   0.312  53.763  1.00  0.00     0.007 A 
HETATM   16  C9  UNL     1      28.379   0.858  53.264  1.00  0.00    -0.055 A 
HETATM   17  C10 UNL     1      28.180   2.328  53.328  1.00  0.00     0.049 C 
ENDBRANCH  10  11
ENDBRANCH   8  10
ENDBRANCH   6   8
ENDBRANCH   1   6
BRANCH   5  18
HETATM   18  N5  UNL     1      23.736   4.266  51.056  1.00  0.00    -0.326 N 
HETATM   19  C14 UNL     1      23.630   5.677  51.153  1.00  0.00     0.091 A 
HETATM   20  C15 UNL     1      24.507   6.522  50.657  1.00  0.00     0.017 A 
HETATM   21  C16 UNL     1      25.683   6.025  49.951  1.00  0.00     0.008 A 
HETATM   22  C17 UNL     1      25.770   4.699  49.864  1.00  0.00    -0.031 A 
HETATM   23  C18 UNL     1      26.999   4.232  49.128  1.00  0.00     0.048 C 
HETATM   24  C19 UNL     1      24.854   3.669  50.369  1.00  0.00     0.303 A 
HETATM   25  F1  UNL     1      24.306   2.979  49.289  1.00  0.00    -0.222 F 
ENDBRANCH   5  18
BRANCH   3  26
HETATM   26  N3  UNL     1      21.049   0.944  49.558  1.00  0.00    -0.231 N 
HETATM   27  H13 UNL     1      20.996   1.083  48.526  1.00  0.00     0.174 HD
HETATM   28  H14 UNL     1      20.374   0.175  49.755  1.00  0.00     0.174 HD
ENDBRANCH   3  26
TORSDOF 6
ENDMDL
MODEL 9
REMARK VINA RESULT:      -7.9      2.419      4.390
REMARK  6 active torsions:
REMARK  status: ('A' for Active; 'I' for Inactive)
REMARK    1  A    between atoms: C2_2  and  C3_3 
REMARK    2  A    between atoms: C2_2  and  N1_11 
REMARK    3  A    between atoms: C3_3  and  C4_4 
REMARK    4  A    between atoms: N1_11  and  C11_12 
REMARK    5  A    between atoms: C12_14  and  N3_15 
REMARK    6  A    between atoms: C13_17  and  N5_18 
ROOT
HETATM    1  C11 UNL     1      23.840   3.986  51.418  1.00  0.00     0.169 A 
HETATM    2  N2  UNL     1      23.625   5.246  51.706  1.00  0.00    -0.046 NA
HETATM    3  C12 UNL     1      22.353   5.650  51.232  1.00  0.00     0.719 A 
HETATM    4  N4  UNL     1      21.805   4.650  50.662  1.00  0.00    -0.071 NA
HETATM    5  C13 UNL     1      22.661   3.469  50.700  1.00  0.00     0.300 A 
ENDROOT
BRANCH   1   6
HETATM    6  N1  UNL     1      25.092   3.473  51.848  1.00  0.00    -0.345 N 
HETATM    7  H12 UNL     1      25.426   3.773  52.782  1.00  0.00     0.167 HD
BRANCH   6   8
HETATM    8  C2  UNL     1      25.931   2.585  51.122  1.00  0.00     0.005 C 
HETATM    9  C1  UNL     1      26.489   3.157  50.062  1.00  0.00     0.038 C 
BRANCH   8  10
HETATM   10  C3  UNL     1      25.955   1.260  51.746  1.00  0.00     0.095 C 
BRANCH  10  11
HETATM   11  C4  UNL     1      27.147   1.018  52.609  1.00  0.00    -0.047 A 
HETATM   12  C5  UNL     1      27.900   2.059  53.117  1.00  0.00     0.008 A 
HETATM   13  C6  UNL     1      29.011   1.858  53.923  1.00  0.00     0.001 A 
HETATM   14  C7  UNL     1      29.398   0.566  54.241  1.00  0.00     0.001 A 
HETATM   15  C8  UNL     1      28.652  -0.483  53.738  1.00  0.00     0.007 A 
HETATM   16  C9  UNL     1      27.533  -0.268  52.926  1.00  0.00    -0.055 A 
HETATM   17  C10 UNL     1      26.777  -1.442  52.418  1.00  0.00     0.049 C 
ENDBRANCH  10  11
ENDBRANCH   8  10
ENDBRANCH   6   8
ENDBRANCH   1   6
BRANCH   5  18
HETATM   18  N5  UNL     1      21.987   2.397  51.374  1.00  0.00    -0.326 N 
HETATM   19  C14 UNL     1      22.470   1.841  52.587  1.00  0.00     0.091 A 
HETATM   20  C15 UNL     1      21.876   0.870  53.245  1.00  0.00     0.017 A 
HETATM   21  C16 UNL     1      20.637   0.292  52.735  1.00  0.00     0.008 A 
HETATM   22  C17 UNL     1      20.195   0.821  51.596  1.00  0.00    -0.031 A 
HETATM   23  C18 UNL     1      18.914   0.194  51.108  1.00  0.00     0.048 C 
HETATM   24  C19 UNL     1      20.775   1.892  50.777  1.00  0.00     0.303 A 
HETATM   25  F1  UNL     1      21.156   1.368  49.544  1.00  0.00    -0.222 F 
ENDBRANCH   5  18
BRANCH   3  26
HETATM   26  N3  UNL     1      21.722   6.917  51.326  1.00  0.00    -0.231 N 
HETATM   27  H13 UNL     1      22.144   7.822  51.623  1.00  0.00     0.174 HD
HETATM   28  H14 UNL     1      20.728   7.145  51.113  1.00  0.00     0.174 HD
ENDBRANCH   3  26
TORSDOF 6
ENDMDL
