MODEL 1
REMARK VINA RESULT:      -8.0      0.000      0.000
REMARK  2 active torsions:
REMARK  status: ('A' for Active; 'I' for Inactive)
REMARK    1  A    between atoms: N1_1  and  S1_2 
REMARK    2  A    between atoms: S1_2  and  C1_5 
ROOT
HETATM    1  C1  UNL     1      23.397   0.504  53.135  1.00  0.00     0.185 C 
HETATM    2  N2  UNL     1      24.188   1.486  52.628  1.00  0.00    -0.050 NA
HETATM    3  C2  UNL     1      25.637   1.282  52.775  1.00  0.00     0.720 C 
HETATM    4  N3  UNL     1      25.960   1.618  54.041  1.00  0.00    -0.093 NA
HETATM    5  C3  UNL     1      26.382   0.256  54.474  1.00  0.00     0.189 C 
HETATM    6  C4  UNL     1      25.180  -0.640  54.472  1.00  0.00     0.007 C 
HETATM    7  C5  UNL     1      23.860  -0.504  54.149  1.00  0.00     0.044 C 
HETATM    8  C6  UNL     1      27.372  -0.032  53.373  1.00  0.00     0.161 A 
HETATM    9  N4  UNL     1      26.901   0.863  52.291  1.00  0.00    -0.201 N 
HETATM   10  C7  UNL     1      27.304  -1.442  52.919  1.00  0.00     0.128 A 
HETATM   11  F1  UNL     1      26.076  -1.863  52.531  1.00  0.00    -0.208 F 
HETATM   12  C8  UNL     1      28.281  -2.320  52.850  1.00  0.00     0.040 A 
HETATM   13  C9  UNL     1      29.632  -1.942  53.251  1.00  0.00     0.002 A 
HETATM   14  C10 UNL     1      29.756  -0.697  53.666  1.00  0.00     0.013 A 
HETATM   15  C11 UNL     1      28.742   0.383  53.791  1.00  0.00     0.231 A 
HETATM   16  F2  UNL     1      29.119   1.521  53.115  1.00  0.00    -0.242 F 
HETATM   17  H6  UNL     1      26.946   1.380  51.347  1.00  0.00     0.179 HD
ENDROOT
BRANCH   1  18
HETATM   18  S1  UNL     1      21.758   0.307  52.654  1.00  0.00     0.257 S 
HETATM   19  O1  UNL     1      21.586   0.035  51.207  1.00  0.00    -0.205 OA
HETATM   20  O2  UNL     1      21.236  -0.929  53.379  1.00  0.00    -0.205 OA
BRANCH  18  21
HETATM   21  N1  UNL     1      20.718   1.594  53.098  1.00  0.00    -0.224 NA
HETATM   22  H1  UNL     1      19.824   1.303  53.530  1.00  0.00     0.136 HD
HETATM   23  H2  UNL     1      20.622   2.338  52.382  1.00  0.00     0.136 HD
ENDBRANCH  18  21
ENDBRANCH   1  18
TORSDOF 2
ENDMDL
MODEL 2
REMARK VINA RESULT:      -7.8      3.824      5.932
REMARK  2 active torsions:
REMARK  status: ('A' for Active; 'I' for Inactive)
REMARK    1  A    between atoms: N1_1  and  S1_2 
REMARK    2  A    between atoms: S1_2  and  C1_5 
ROOT
HETATM    1  C1  UNL     1      27.528   1.352  53.502  1.00  0.00     0.185 C 
HETATM    2  N2  UNL     1      26.849   2.511  53.711  1.00  0.00    -0.050 NA
HETATM    3  C2  UNL     1      25.453   2.528  53.249  1.00  0.00     0.720 C 
HETATM    4  N3  UNL     1      25.476   2.732  51.916  1.00  0.00    -0.093 NA
HETATM    5  C3  UNL     1      24.905   1.410  51.533  1.00  0.00     0.189 C 
HETATM    6  C4  UNL     1      25.886   0.339  51.905  1.00  0.00     0.007 C 
HETATM    7  C5  UNL     1      27.109   0.302  52.513  1.00  0.00     0.044 C 
HETATM    8  C6  UNL     1      23.668   1.444  52.394  1.00  0.00     0.161 A 
HETATM    9  N4  UNL     1      24.059   2.391  53.463  1.00  0.00    -0.201 N 
HETATM   10  C7  UNL     1      23.367   0.118  52.988  1.00  0.00     0.128 A 
HETATM   11  F1  UNL     1      24.382  -0.438  53.693  1.00  0.00    -0.208 F 
HETATM   12  C8  UNL     1      22.249  -0.570  52.912  1.00  0.00     0.040 A 
HETATM   13  C9  UNL     1      21.111  -0.036  52.171  1.00  0.00     0.002 A 
HETATM   14  C10 UNL     1      21.318   1.143  51.618  1.00  0.00     0.013 A 
HETATM   15  C11 UNL     1      22.522   2.015  51.629  1.00  0.00     0.231 A 
HETATM   16  F2  UNL     1      22.234   3.282  52.082  1.00  0.00    -0.242 F 
HETATM   17  H6  UNL     1      23.914   3.035  54.315  1.00  0.00     0.179 HD
ENDROOT
BRANCH   1  18
HETATM   18  S1  UNL     1      28.960   0.960  54.371  1.00  0.00     0.257 S 
HETATM   19  O1  UNL     1      29.448   2.051  55.245  1.00  0.00    -0.205 OA
HETATM   20  O2  UNL     1      28.602  -0.196  55.301  1.00  0.00    -0.205 OA
BRANCH  18  21
HETATM   21  N1  UNL     1      30.260   0.406  53.403  1.00  0.00    -0.224 NA
HETATM   22  H1  UNL     1      30.754   1.144  52.873  1.00  0.00     0.136 HD
HETATM   23  H2  UNL     1      30.054  -0.448  52.851  1.00  0.00     0.136 HD
ENDBRANCH  18  21
ENDBRANCH   1  18
TORSDOF 2
ENDMDL
MODEL 3
REMARK VINA RESULT:      -7.5      3.101      4.201
REMARK  2 active torsions:
REMARK  status: ('A' for Active; 'I' for Inactive)
REMARK    1  A    between atoms: N1_1  and  S1_2 
REMARK    2  A    between atoms: S1_2  and  C1_5 
ROOT
HETATM    1  C1  UNL     1      24.776   3.905  51.315  1.00  0.00     0.185 C 
HETATM    2  N2  UNL     1      24.137   3.191  52.279  1.00  0.00    -0.050 NA
HETATM    3  C2  UNL     1      24.876   2.038  52.818  1.00  0.00     0.720 C 
HETATM    4  N3  UNL     1      24.748   1.032  51.929  1.00  0.00    -0.093 NA
HETATM    5  C3  UNL     1      26.188   0.953  51.555  1.00  0.00     0.189 C 
HETATM    6  C4  UNL     1      26.568   2.219  50.847  1.00  0.00     0.007 C 
HETATM    7  C5  UNL     1      25.932   3.380  50.512  1.00  0.00     0.044 C 
HETATM    8  C6  UNL     1      26.770   0.819  52.940  1.00  0.00     0.161 A 
HETATM    9  N4  UNL     1      25.713   1.424  53.782  1.00  0.00    -0.201 N 
HETATM   10  C7  UNL     1      28.029   1.589  53.091  1.00  0.00     0.128 A 
HETATM   11  F1  UNL     1      27.940   2.904  52.774  1.00  0.00    -0.208 F 
HETATM   12  C8  UNL     1      29.204   1.153  53.490  1.00  0.00     0.040 A 
HETATM   13  C9  UNL     1      29.379  -0.250  53.849  1.00  0.00     0.002 A 
HETATM   14  C10 UNL     1      28.293  -0.989  53.734  1.00  0.00     0.013 A 
HETATM   15  C11 UNL     1      26.920  -0.621  53.300  1.00  0.00     0.231 A 
HETATM   16  F2  UNL     1      25.973  -0.976  54.233  1.00  0.00    -0.242 F 
HETATM   17  H6  UNL     1      25.205   1.682  54.696  1.00  0.00     0.179 HD
ENDROOT
BRANCH   1  18
HETATM   18  S1  UNL     1      24.321   5.514  50.914  1.00  0.00     0.257 S 
HETATM   19  O1  UNL     1      25.077   6.084  49.774  1.00  0.00    -0.205 OA
HETATM   20  O2  UNL     1      22.864   5.456  50.465  1.00  0.00    -0.205 OA
BRANCH  18  21
HETATM   21  N1  UNL     1      24.373   6.623  52.219  1.00  0.00    -0.224 NA
HETATM   22  H1  UNL     1      23.457   6.828  52.654  1.00  0.00     0.136 HD
HETATM   23  H2  UNL     1      24.960   7.461  52.049  1.00  0.00     0.136 HD
ENDBRANCH  18  21
ENDBRANCH   1  18
TORSDOF 2
ENDMDL
MODEL 4
REMARK VINA RESULT:      -7.5      1.910      2.750
REMARK  2 active torsions:
REMARK  status: ('A' for Active; 'I' for Inactive)
REMARK    1  A    between atoms: N1_1  and  S1_2 
REMARK    2  A    between atoms: S1_2  and  C1_5 
ROOT
HETATM    1  C1  UNL     1      22.989   0.196  53.177  1.00  0.00     0.185 C 
HETATM    2  N2  UNL     1      23.589  -0.793  53.892  1.00  0.00    -0.050 NA
HETATM    3  C2  UNL     1      25.057  -0.735  53.959  1.00  0.00     0.720 C 
HETATM    4  N3  UNL     1      25.529  -1.232  52.798  1.00  0.00    -0.093 NA
HETATM    5  C3  UNL     1      26.151   0.033  52.314  1.00  0.00     0.189 C 
HETATM    6  C4  UNL     1      25.062   1.027  52.042  1.00  0.00     0.007 C 
HETATM    7  C5  UNL     1      23.701   1.043  52.161  1.00  0.00     0.044 C 
HETATM    8  C6  UNL     1      26.988   0.349  53.528  1.00  0.00     0.161 A 
HETATM    9  N4  UNL     1      26.271  -0.379  54.599  1.00  0.00    -0.201 N 
HETATM   10  C7  UNL     1      27.001   1.800  53.833  1.00  0.00     0.128 A 
HETATM   11  F1  UNL     1      25.779   2.367  53.980  1.00  0.00    -0.208 F 
HETATM   12  C8  UNL     1      28.043   2.590  53.976  1.00  0.00     0.040 A 
HETATM   13  C9  UNL     1      29.392   2.053  53.832  1.00  0.00     0.002 A 
HETATM   14  C10 UNL     1      29.447   0.765  53.559  1.00  0.00     0.013 A 
HETATM   15  C11 UNL     1      28.356  -0.228  53.374  1.00  0.00     0.231 A 
HETATM   16  F2  UNL     1      28.506  -1.316  54.204  1.00  0.00    -0.242 F 
HETATM   17  H6  UNL     1      26.119  -0.794  55.582  1.00  0.00     0.179 HD
ENDROOT
BRANCH   1  18
HETATM   18  S1  UNL     1      21.326   0.587  53.370  1.00  0.00     0.257 S 
HETATM   19  O1  UNL     1      20.987   1.975  52.979  1.00  0.00    -0.205 OA
HETATM   20  O2  UNL     1      20.552  -0.319  52.416  1.00  0.00    -0.205 OA
BRANCH  18  21
HETATM   21  N1  UNL     1      20.692   0.284  54.932  1.00  0.00    -0.224 NA
HETATM   22  H1  UNL     1      20.619  -0.716  55.187  1.00  0.00     0.136 HD
HETATM   23  H2  UNL     1      19.855   0.847  55.175  1.00  0.00     0.136 HD
ENDBRANCH  18  21
ENDBRANCH   1  18
TORSDOF 2
ENDMDL
MODEL 5
REMARK VINA RESULT:      -7.4      4.279      6.272
REMARK  2 active torsions:
REMARK  status: ('A' for Active; 'I' for Inactive)
REMARK    1  A    between atoms: N1_1  and  S1_2 
REMARK    2  A    between atoms: S1_2  and  C1_5 
ROOT
HETATM    1  C1  UNL     1      26.842   0.976  53.068  1.00  0.00     0.185 C 
HETATM    2  N2  UNL     1      27.403   1.753  52.104  1.00  0.00    -0.050 NA
HETATM    3  C2  UNL     1      26.482   2.645  51.383  1.00  0.00     0.720 C 
HETATM    4  N3  UNL     1      25.839   1.896  50.465  1.00  0.00    -0.093 NA
HETATM    5  C3  UNL     1      24.478   2.037  51.056  1.00  0.00     0.189 C 
HETATM    6  C4  UNL     1      24.460   1.344  52.385  1.00  0.00     0.007 C 
HETATM    7  C5  UNL     1      25.373   0.676  53.151  1.00  0.00     0.044 C 
HETATM    8  C6  UNL     1      24.426   3.541  51.139  1.00  0.00     0.161 A 
HETATM    9  N4  UNL     1      25.862   3.901  51.170  1.00  0.00    -0.201 N 
HETATM   10  C7  UNL     1      23.768   4.007  52.385  1.00  0.00     0.128 A 
HETATM   11  F1  UNL     1      24.299   3.518  53.532  1.00  0.00    -0.208 F 
HETATM   12  C8  UNL     1      22.745   4.825  52.505  1.00  0.00     0.040 A 
HETATM   13  C9  UNL     1      22.119   5.392  51.316  1.00  0.00     0.002 A 
HETATM   14  C10 UNL     1      22.661   5.014  50.174  1.00  0.00     0.013 A 
HETATM   15  C11 UNL     1      23.805   4.105  49.905  1.00  0.00     0.231 A 
HETATM   16  F2  UNL     1      24.766   4.707  49.125  1.00  0.00    -0.242 F 
HETATM   17  H6  UNL     1      26.718   4.554  51.134  1.00  0.00     0.179 HD
ENDROOT
BRANCH   1  18
HETATM   18  S1  UNL     1      27.774   0.251  54.318  1.00  0.00     0.257 S 
HETATM   19  O1  UNL     1      28.648   1.203  55.043  1.00  0.00    -0.205 OA
HETATM   20  O2  UNL     1      26.783  -0.279  55.350  1.00  0.00    -0.205 OA
BRANCH  18  21
HETATM   21  N1  UNL     1      28.714  -1.095  53.826  1.00  0.00    -0.224 NA
HETATM   22  H1  UNL     1      28.989  -1.094  52.829  1.00  0.00     0.136 HD
HETATM   23  H2  UNL     1      28.369  -2.010  54.172  1.00  0.00     0.136 HD
ENDBRANCH  18  21
ENDBRANCH   1  18
TORSDOF 2
ENDMDL
MODEL 6
REMARK VINA RESULT:      -7.4      4.398      5.698
REMARK  2 active torsions:
REMARK  status: ('A' for Active; 'I' for Inactive)
REMARK    1  A    between atoms: N1_1  and  S1_2 
REMARK    2  A    between atoms: S1_2  and  C1_5 
ROOT
HETATM    1  C1  UNL     1      24.429   5.583  50.626  1.00  0.00     0.185 C 
HETATM    2  N2  UNL     1      23.749   5.336  51.777  1.00  0.00    -0.050 NA
HETATM    3  C2  UNL     1      23.833   3.960  52.288  1.00  0.00     0.720 C 
HETATM    4  N3  UNL     1      22.971   3.214  51.568  1.00  0.00    -0.093 NA
HETATM    5  C3  UNL     1      23.996   2.345  50.925  1.00  0.00     0.189 C 
HETATM    6  C4  UNL     1      24.831   3.189  50.010  1.00  0.00     0.007 C 
HETATM    7  C5  UNL     1      24.881   4.513  49.675  1.00  0.00     0.044 C 
HETATM    8  C6  UNL     1      24.712   1.885  52.170  1.00  0.00     0.161 A 
HETATM    9  N4  UNL     1      24.392   2.966  53.130  1.00  0.00    -0.201 N 
HETATM   10  C7  UNL     1      26.180   1.812  51.972  1.00  0.00     0.128 A 
HETATM   11  F1  UNL     1      26.757   2.954  51.527  1.00  0.00    -0.208 F 
HETATM   12  C8  UNL     1      26.976   0.785  52.175  1.00  0.00     0.040 A 
HETATM   13  C9  UNL     1      26.429  -0.480  52.654  1.00  0.00     0.002 A 
HETATM   14  C10 UNL     1      25.125  -0.478  52.849  1.00  0.00     0.013 A 
HETATM   15  C11 UNL     1      24.124   0.604  52.659  1.00  0.00     0.231 A 
HETATM   16  F2  UNL     1      23.387   0.828  53.800  1.00  0.00    -0.242 F 
HETATM   17  H6  UNL     1      24.338   3.450  54.090  1.00  0.00     0.179 HD
ENDROOT
BRANCH   1  18
HETATM   18  S1  UNL     1      24.855   7.176  50.138  1.00  0.00     0.257 S 
HETATM   19  O1  UNL     1      24.830   7.380  48.671  1.00  0.00    -0.205 OA
HETATM   20  O2  UNL     1      23.790   8.107  50.710  1.00  0.00    -0.205 OA
BRANCH  18  21
HETATM   21  N1  UNL     1      26.354   7.739  50.747  1.00  0.00    -0.224 NA
HETATM   22  H1  UNL     1      27.153   7.098  50.600  1.00  0.00     0.136 HD
HETATM   23  H2  UNL     1      26.307   8.149  51.699  1.00  0.00     0.136 HD
ENDBRANCH  18  21
ENDBRANCH   1  18
TORSDOF 2
ENDMDL
MODEL 7
REMARK VINA RESULT:      -7.2      9.771     10.683
REMARK  2 active torsions:
REMARK  status: ('A' for Active; 'I' for Inactive)
REMARK    1  A    between atoms: N1_1  and  S1_2 
REMARK    2  A    between atoms: S1_2  and  C1_5 
ROOT
HETATM    1  C1  UNL     1      30.330   7.410  48.633  1.00  0.00     0.185 C 
HETATM    2  N2  UNL     1      31.460   7.489  49.386  1.00  0.00    -0.050 NA
HETATM    3  C2  UNL     1      32.548   6.575  49.006  1.00  0.00     0.720 C 
HETATM    4  N3  UNL     1      32.245   5.363  49.512  1.00  0.00    -0.093 NA
HETATM    5  C3  UNL     1      32.083   4.670  48.202  1.00  0.00     0.189 C 
HETATM    6  C4  UNL     1      30.889   5.246  47.502  1.00  0.00     0.007 C 
HETATM    7  C5  UNL     1      29.983   6.233  47.766  1.00  0.00     0.044 C 
HETATM    8  C6  UNL     1      33.406   5.047  47.585  1.00  0.00     0.161 A 
HETATM    9  N4  UNL     1      33.758   6.277  48.330  1.00  0.00    -0.201 N 
HETATM   10  C7  UNL     1      33.277   5.359  46.140  1.00  0.00     0.128 A 
HETATM   11  F1  UNL     1      32.360   6.311  45.838  1.00  0.00    -0.208 F 
HETATM   12  C8  UNL     1      33.936   4.830  45.133  1.00  0.00     0.040 A 
HETATM   13  C9  UNL     1      34.940   3.799  45.379  1.00  0.00     0.002 A 
HETATM   14  C10 UNL     1      35.101   3.477  46.648  1.00  0.00     0.013 A 
HETATM   15  C11 UNL     1      34.425   3.995  47.866  1.00  0.00     0.231 A 
HETATM   16  F2  UNL     1      35.328   4.449  48.800  1.00  0.00    -0.242 F 
HETATM   17  H6  UNL     1      34.387   7.088  48.659  1.00  0.00     0.179 HD
ENDROOT
BRANCH   1  18
HETATM   18  S1  UNL     1      29.167   8.676  48.591  1.00  0.00     0.257 S 
HETATM   19  O1  UNL     1      29.470   9.736  47.602  1.00  0.00    -0.205 OA
HETATM   20  O2  UNL     1      27.853   8.045  48.141  1.00  0.00    -0.205 OA
BRANCH  18  21
HETATM   21  N1  UNL     1      28.847   9.410  50.106  1.00  0.00    -0.224 NA
HETATM   22  H1  UNL     1      28.318   8.822  50.772  1.00  0.00     0.136 HD
HETATM   23  H2  UNL     1      28.516  10.392  50.048  1.00  0.00     0.136 HD
ENDBRANCH  18  21
ENDBRANCH   1  18
TORSDOF 2
ENDMDL
MODEL 8
REMARK VINA RESULT:      -7.1      4.021      5.367
REMARK  2 active torsions:
REMARK  status: ('A' for Active; 'I' for Inactive)
REMARK    1  A    between atoms: N1_1  and  S1_2 
REMARK    2  A    between atoms: S1_2  and  C1_5 
ROOT
HETATM    1  C1  UNL     1      25.814   3.818  50.835  1.00  0.00     0.185 C 
HETATM    2  N2  UNL     1      26.660   2.781  51.079  1.00  0.00    -0.050 NA
HETATM    3  C2  UNL     1      26.111   1.683  51.890  1.00  0.00     0.720 C 
HETATM    4  N3  UNL     1      26.157   2.078  53.178  1.00  0.00    -0.093 NA
HETATM    5  C3  UNL     1      24.683   2.108  53.398  1.00  0.00     0.189 C 
HETATM    6  C4  UNL     1      24.096   3.196  52.548  1.00  0.00     0.007 C 
HETATM    7  C5  UNL     1      24.578   4.097  51.643  1.00  0.00     0.044 C 
HETATM    8  C6  UNL     1      24.359   0.712  52.929  1.00  0.00     0.161 A 
HETATM    9  N4  UNL     1      25.499   0.413  52.032  1.00  0.00    -0.201 N 
HETATM   10  C7  UNL     1      23.093   0.664  52.158  1.00  0.00     0.128 A 
HETATM   11  F1  UNL     1      23.030   1.511  51.102  1.00  0.00    -0.208 F 
HETATM   12  C8  UNL     1      22.039  -0.092  52.376  1.00  0.00     0.040 A 
HETATM   13  C9  UNL     1      22.031  -1.030  53.494  1.00  0.00     0.002 A 
HETATM   14  C10 UNL     1      23.132  -1.033  54.219  1.00  0.00     0.013 A 
HETATM   15  C11 UNL     1      24.379  -0.236  54.080  1.00  0.00     0.231 A 
HETATM   16  F2  UNL     1      25.496  -1.038  54.013  1.00  0.00    -0.242 F 
HETATM   17  H6  UNL     1      26.137  -0.197  51.415  1.00  0.00     0.179 HD
ENDROOT
BRANCH   1  18
HETATM   18  S1  UNL     1      26.075   4.930  49.551  1.00  0.00     0.257 S 
HETATM   19  O1  UNL     1      27.163   4.534  48.626  1.00  0.00    -0.205 OA
HETATM   20  O2  UNL     1      24.798   4.940  48.717  1.00  0.00    -0.205 OA
BRANCH  18  21
HETATM   21  N1  UNL     1      26.334   6.551  50.043  1.00  0.00    -0.224 NA
HETATM   22  H1  UNL     1      27.022   7.075  49.476  1.00  0.00     0.136 HD
HETATM   23  H2  UNL     1      26.442   6.678  51.067  1.00  0.00     0.136 HD
ENDBRANCH  18  21
ENDBRANCH   1  18
TORSDOF 2
ENDMDL
MODEL 9
REMARK VINA RESULT:      -7.0      3.854      6.645
REMARK  2 active torsions:
REMARK  status: ('A' for Active; 'I' for Inactive)
REMARK    1  A    between atoms: N1_1  and  S1_2 
REMARK    2  A    between atoms: S1_2  and  C1_5 
ROOT
HETATM    1  C1  UNL     1      24.916   0.730  53.515  1.00  0.00     0.185 C 
HETATM    2  N2  UNL     1      24.178  -0.374  53.807  1.00  0.00    -0.050 NA
HETATM    3  C2  UNL     1      22.808  -0.389  53.273  1.00  0.00     0.720 C 
HETATM    4  N3  UNL     1      22.055   0.379  54.086  1.00  0.00    -0.093 NA
HETATM    5  C3  UNL     1      21.740   1.432  53.079  1.00  0.00     0.189 C 
HETATM    6  C4  UNL     1      23.009   2.149  52.725  1.00  0.00     0.007 C 
HETATM    7  C5  UNL     1      24.324   2.039  53.076  1.00  0.00     0.044 C 
HETATM    8  C6  UNL     1      21.205   0.541  51.986  1.00  0.00     0.161 A 
HETATM    9  N4  UNL     1      21.843  -0.757  52.302  1.00  0.00    -0.201 N 
HETATM   10  C7  UNL     1      21.634   0.993  50.640  1.00  0.00     0.128 A 
HETATM   11  F1  UNL     1      22.973   1.133  50.481  1.00  0.00    -0.208 F 
HETATM   12  C8  UNL     1      20.880   1.271  49.599  1.00  0.00     0.040 A 
HETATM   13  C9  UNL     1      19.430   1.144  49.693  1.00  0.00     0.002 A 
HETATM   14  C10 UNL     1      18.986   0.745  50.869  1.00  0.00     0.013 A 
HETATM   15  C11 UNL     1      19.725   0.403  52.112  1.00  0.00     0.231 A 
HETATM   16  F2  UNL     1      19.404  -0.854  52.571  1.00  0.00    -0.242 F 
HETATM   17  H6  UNL     1      22.016  -1.818  52.227  1.00  0.00     0.179 HD
ENDROOT
BRANCH   1  18
HETATM   18  S1  UNL     1      26.632   0.738  53.615  1.00  0.00     0.257 S 
HETATM   19  O1  UNL     1      27.179  -0.213  54.611  1.00  0.00    -0.205 OA
HETATM   20  O2  UNL     1      27.150   0.270  52.259  1.00  0.00    -0.205 OA
BRANCH  18  21
HETATM   21  N1  UNL     1      27.330   2.280  53.884  1.00  0.00    -0.224 NA
HETATM   22  H1  UNL     1      26.674   3.001  54.229  1.00  0.00     0.136 HD
HETATM   23  H2  UNL     1      27.961   2.605  53.128  1.00  0.00     0.136 HD
ENDBRANCH  18  21
ENDBRANCH   1  18
TORSDOF 2
ENDMDL
