MODEL 1
REMARK VINA RESULT:      -8.3      0.000      0.000
REMARK  6 active torsions:
REMARK  status: ('A' for Active; 'I' for Inactive)
REMARK    1  A    between atoms: C2_2  and  C3_3 
REMARK    2  A    between atoms: C9_10  and  C10_11 
REMARK    3  A    between atoms: C11_13  and  O2_14 
REMARK    4  A    between atoms: C15_19  and  N2_20 
REMARK    5  A    between atoms: N2_20  and  C16_21 
REMARK    6  A    between atoms: C16_21  and  C17_22 
ROOT
HETATM    1  C3  UNL     1      22.197   2.710  51.306  1.00  0.00     0.191 C 
HETATM    2  O1  UNL     1      22.689   1.731  52.090  1.00  0.00    -0.375 OA
HETATM    3  C4  UNL     1      23.773   0.933  51.684  1.00  0.00     0.183 C 
HETATM    4  C5  UNL     1      24.804   1.915  51.310  1.00  0.00     0.081 C 
HETATM    5  C6  UNL     1      26.151   1.655  50.856  1.00  0.00    -0.014 C 
HETATM    6  C7  UNL     1      26.515   2.863  50.257  1.00  0.00    -0.003 C 
HETATM    7  C8  UNL     1      26.029   4.247  49.931  1.00  0.00     0.009 C 
HETATM    8  C9  UNL     1      25.443   5.440  49.713  1.00  0.00    -0.002 C 
HETATM    9  C11 UNL     1      23.995   5.822  50.063  1.00  0.00     0.273 C 
HETATM   10  N1  UNL     1      23.283   4.603  50.282  1.00  0.00    -0.259 NA
HETATM   11  C12 UNL     1      22.951   4.038  51.363  1.00  0.00     0.046 C 
HETATM   12  C13 UNL     1      23.320   4.672  52.694  1.00  0.00     0.086 C 
HETATM   13  C14 UNL     1      24.332   3.698  53.249  1.00  0.00     0.004 C 
HETATM   14  C15 UNL     1      24.998   2.775  52.526  1.00  0.00     0.011 C 
ENDROOT
BRANCH  14  15
HETATM   15  N2  UNL     1      26.273   2.623  53.191  1.00  0.00    -0.388 N 
HETATM   16  H18 UNL     1      27.064   3.236  52.858  1.00  0.00     0.159 HD
BRANCH  15  17
HETATM   17  C16 UNL     1      26.483   1.677  54.268  1.00  0.00     0.160 C 
BRANCH  17  18
HETATM   18  C17 UNL     1      27.453   0.639  53.925  1.00  0.00    -0.019 A 
HETATM   19  C18 UNL     1      26.955  -0.574  53.439  1.00  0.00     0.010 A 
HETATM   20  C19 UNL     1      27.767  -1.649  53.072  1.00  0.00     0.001 A 
HETATM   21  C20 UNL     1      29.139  -1.522  53.190  1.00  0.00     0.002 A 
HETATM   22  C21 UNL     1      29.655  -0.351  53.661  1.00  0.00     0.024 A 
HETATM   23  C22 UNL     1      28.821   0.686  54.012  1.00  0.00     0.042 A 
HETATM   24 CL1  UNL     1      29.523   2.164  54.614  1.00  0.00    -0.084 Cl
ENDBRANCH  17  18
ENDBRANCH  15  17
ENDBRANCH  14  15
BRANCH   1  25
HETATM   25  C2  UNL     1      21.900   2.342  49.909  1.00  0.00     0.000 C 
HETATM   26  C1  UNL     1      20.736   1.769  49.627  1.00  0.00     0.010 C 
ENDBRANCH   1  25
BRANCH   8  27
HETATM   27  C10 UNL     1      26.491   6.240  49.034  1.00  0.00     0.261 C 
HETATM   28  F1  UNL     1      27.206   5.336  48.271  1.00  0.00    -0.251 F 
ENDBRANCH   8  27
BRANCH   9  29
HETATM   29  O2  UNL     1      23.483   6.361  48.887  1.00  0.00    -0.371 OA
HETATM   30  H14 UNL     1      22.522   6.601  48.957  1.00  0.00     0.212 HD
ENDBRANCH   9  29
TORSDOF 6
ENDMDL
MODEL 2
REMARK VINA RESULT:      -8.3      2.492      4.246
REMARK  6 active torsions:
REMARK  status: ('A' for Active; 'I' for Inactive)
REMARK    1  A    between atoms: C2_2  and  C3_3 
REMARK    2  A    between atoms: C9_10  and  C10_11 
REMARK    3  A    between atoms: C11_13  and  O2_14 
REMARK    4  A    between atoms: C15_19  and  N2_20 
REMARK    5  A    between atoms: N2_20  and  C16_21 
REMARK    6  A    between atoms: C16_21  and  C17_22 
ROOT
HETATM    1  C3  UNL     1      21.917   4.683  49.688  1.00  0.00     0.191 C 
HETATM    2  O1  UNL     1      22.947   5.521  49.916  1.00  0.00    -0.375 OA
HETATM    3  C4  UNL     1      23.395   5.808  51.218  1.00  0.00     0.183 C 
HETATM    4  C5  UNL     1      23.622   4.478  51.805  1.00  0.00     0.081 C 
HETATM    5  C6  UNL     1      24.129   4.167  53.122  1.00  0.00    -0.014 C 
HETATM    6  C7  UNL     1      23.742   2.835  53.298  1.00  0.00    -0.003 C 
HETATM    7  C8  UNL     1      23.023   1.688  52.645  1.00  0.00     0.009 C 
HETATM    8  C9  UNL     1      22.351   0.769  51.928  1.00  0.00    -0.002 C 
HETATM    9  C11 UNL     1      21.685   0.989  50.560  1.00  0.00     0.273 C 
HETATM   10  N1  UNL     1      21.563   2.400  50.376  1.00  0.00    -0.259 NA
HETATM   11  C12 UNL     1      22.267   3.196  49.692  1.00  0.00     0.046 C 
HETATM   12  C13 UNL     1      23.454   2.670  48.903  1.00  0.00     0.086 C 
HETATM   13  C14 UNL     1      24.627   3.283  49.633  1.00  0.00     0.004 C 
HETATM   14  C15 UNL     1      24.585   3.790  50.881  1.00  0.00     0.011 C 
ENDROOT
BRANCH  14  15
HETATM   15  N2  UNL     1      25.907   3.566  51.424  1.00  0.00    -0.388 N 
HETATM   16  H18 UNL     1      26.247   4.248  52.154  1.00  0.00     0.159 HD
BRANCH  15  17
HETATM   17  C16 UNL     1      26.748   2.465  51.001  1.00  0.00     0.160 C 
BRANCH  17  18
HETATM   18  C17 UNL     1      26.857   1.419  52.015  1.00  0.00    -0.019 A 
HETATM   19  C18 UNL     1      26.066   0.277  51.852  1.00  0.00     0.010 A 
HETATM   20  C19 UNL     1      26.071  -0.797  52.743  1.00  0.00     0.001 A 
HETATM   21  C20 UNL     1      26.898  -0.745  53.851  1.00  0.00     0.002 A 
HETATM   22  C21 UNL     1      27.681   0.356  54.037  1.00  0.00     0.024 A 
HETATM   23  C22 UNL     1      27.648   1.395  53.136  1.00  0.00     0.042 A 
HETATM   24 CL1  UNL     1      28.663   2.785  53.416  1.00  0.00    -0.084 Cl
ENDBRANCH  17  18
ENDBRANCH  15  17
ENDBRANCH  14  15
BRANCH   1  25
HETATM   25  C2  UNL     1      20.691   4.929  50.471  1.00  0.00     0.000 C 
HETATM   26  C1  UNL     1      19.659   5.524  49.882  1.00  0.00     0.010 C 
ENDBRANCH   1  25
BRANCH   8  27
HETATM   27  C10 UNL     1      22.372  -0.444  52.781  1.00  0.00     0.261 C 
HETATM   28  F1  UNL     1      22.083   0.001  54.058  1.00  0.00    -0.251 F 
ENDBRANCH   8  27
BRANCH   9  29
HETATM   29  O2  UNL     1      20.390   0.507  50.721  1.00  0.00    -0.371 OA
HETATM   30  H14 UNL     1      20.272  -0.413  50.365  1.00  0.00     0.212 HD
ENDBRANCH   9  29
TORSDOF 6
ENDMDL
MODEL 3
REMARK VINA RESULT:      -8.1      3.851      6.555
REMARK  6 active torsions:
REMARK  status: ('A' for Active; 'I' for Inactive)
REMARK    1  A    between atoms: C2_2  and  C3_3 
REMARK    2  A    between atoms: C9_10  and  C10_11 
REMARK    3  A    between atoms: C11_13  and  O2_14 
REMARK    4  A    between atoms: C15_19  and  N2_20 
REMARK    5  A    between atoms: N2_20  and  C16_21 
REMARK    6  A    between atoms: C16_21  and  C17_22 
ROOT
HETATM    1  C3  UNL     1      24.491   5.217  50.116  1.00  0.00     0.191 C 
HETATM    2  O1  UNL     1      23.449   5.439  49.292  1.00  0.00    -0.375 OA
HETATM    3  C4  UNL     1      22.922   4.423  48.475  1.00  0.00     0.183 C 
HETATM    4  C5  UNL     1      22.661   3.323  49.416  1.00  0.00     0.081 C 
HETATM    5  C6  UNL     1      22.074   2.033  49.130  1.00  0.00    -0.014 C 
HETATM    6  C7  UNL     1      22.450   1.269  50.238  1.00  0.00    -0.003 C 
HETATM    7  C8  UNL     1      23.208   1.309  51.536  1.00  0.00     0.009 C 
HETATM    8  C9  UNL     1      23.923   1.510  52.658  1.00  0.00    -0.002 C 
HETATM    9  C11 UNL     1      24.670   2.797  53.044  1.00  0.00     0.273 C 
HETATM   10  N1  UNL     1      24.803   3.577  51.854  1.00  0.00    -0.259 NA
HETATM   11  C12 UNL     1      24.142   4.578  51.460  1.00  0.00     0.046 C 
HETATM   12  C13 UNL     1      23.005   5.118  52.311  1.00  0.00     0.086 C 
HETATM   13  C14 UNL     1      21.790   4.798  51.471  1.00  0.00     0.004 C 
HETATM   14  C15 UNL     1      21.756   3.901  50.466  1.00  0.00     0.011 C 
ENDROOT
BRANCH  14  15
HETATM   15  N2  UNL     1      20.404   3.388  50.464  1.00  0.00    -0.388 N 
HETATM   16  H18 UNL     1      20.007   3.086  49.534  1.00  0.00     0.159 HD
BRANCH  15  17
HETATM   17  C16 UNL     1      19.607   3.284  51.670  1.00  0.00     0.160 C 
BRANCH  17  18
HETATM   18  C17 UNL     1      19.514   1.912  52.166  1.00  0.00    -0.019 A 
HETATM   19  C18 UNL     1      20.244   1.591  53.315  1.00  0.00     0.010 A 
HETATM   20  C19 UNL     1      20.246   0.322  53.897  1.00  0.00     0.001 A 
HETATM   21  C20 UNL     1      19.492  -0.682  53.317  1.00  0.00     0.002 A 
HETATM   22  C21 UNL     1      18.770  -0.400  52.195  1.00  0.00     0.024 A 
HETATM   23  C22 UNL     1      18.793   0.864  51.652  1.00  0.00     0.042 A 
HETATM   24 CL1  UNL     1      17.859   1.179  50.214  1.00  0.00    -0.084 Cl
ENDBRANCH  17  18
ENDBRANCH  15  17
ENDBRANCH  14  15
BRANCH   1  25
HETATM   25  C2  UNL     1      25.668   4.558  49.519  1.00  0.00     0.000 C 
HETATM   26  C1  UNL     1      26.619   5.307  48.974  1.00  0.00     0.010 C 
ENDBRANCH   1  25
BRANCH   8  27
HETATM   27  C10 UNL     1      23.851   0.213  53.372  1.00  0.00     0.261 C 
HETATM   28  F1  UNL     1      23.023  -0.583  52.603  1.00  0.00    -0.251 F 
ENDBRANCH   8  27
BRANCH   9  29
HETATM   29  O2  UNL     1      25.954   2.370  53.371  1.00  0.00    -0.371 OA
HETATM   30  H14 UNL     1      26.635   3.088  53.281  1.00  0.00     0.212 HD
ENDBRANCH   9  29
TORSDOF 6
ENDMDL
MODEL 4
REMARK VINA RESULT:      -8.0      2.246      2.895
REMARK  6 active torsions:
REMARK  status: ('A' for Active; 'I' for Inactive)
REMARK    1  A    between atoms: C2_2  and  C3_3 
REMARK    2  A    between atoms: C9_10  and  C10_11 
REMARK    3  A    between atoms: C11_13  and  O2_14 
REMARK    4  A    between atoms: C15_19  and  N2_20 
REMARK    5  A    between atoms: N2_20  and  C16_21 
REMARK    6  A    between atoms: C16_21  and  C17_22 
ROOT
HETATM    1  C3  UNL     1      22.159   4.665  48.703  1.00  0.00     0.191 C 
HETATM    2  O1  UNL     1      22.058   3.647  49.580  1.00  0.00    -0.375 OA
HETATM    3  C4  UNL     1      22.992   2.595  49.603  1.00  0.00     0.183 C 
HETATM    4  C5  UNL     1      24.288   3.285  49.701  1.00  0.00     0.081 C 
HETATM    5  C6  UNL     1      25.601   2.692  49.803  1.00  0.00    -0.014 C 
HETATM    6  C7  UNL     1      26.446   3.744  49.439  1.00  0.00    -0.003 C 
HETATM    7  C8  UNL     1      26.469   5.181  49.000  1.00  0.00     0.009 C 
HETATM    8  C9  UNL     1      26.317   6.461  48.615  1.00  0.00    -0.002 C 
HETATM    9  C11 UNL     1      24.983   7.190  48.382  1.00  0.00     0.273 C 
HETATM   10  N1  UNL     1      23.974   6.187  48.259  1.00  0.00    -0.259 NA
HETATM   11  C12 UNL     1      23.123   5.781  49.100  1.00  0.00     0.046 C 
HETATM   12  C13 UNL     1      23.084   6.391  50.491  1.00  0.00     0.086 C 
HETATM   13  C14 UNL     1      23.537   5.243  51.363  1.00  0.00     0.004 C 
HETATM   14  C15 UNL     1      24.191   4.149  50.926  1.00  0.00     0.011 C 
ENDROOT
BRANCH  14  15
HETATM   15  N2  UNL     1      25.030   3.744  52.032  1.00  0.00    -0.388 N 
HETATM   16  H18 UNL     1      26.015   4.123  52.051  1.00  0.00     0.159 HD
BRANCH  15  17
HETATM   17  C16 UNL     1      24.566   2.857  53.080  1.00  0.00     0.160 C 
BRANCH  17  18
HETATM   18  C17 UNL     1      25.296   1.592  53.111  1.00  0.00    -0.019 A 
HETATM   19  C18 UNL     1      26.693   1.654  53.125  1.00  0.00     0.010 A 
HETATM   20  C19 UNL     1      27.515   0.525  53.155  1.00  0.00     0.001 A 
HETATM   21  C20 UNL     1      26.930  -0.728  53.173  1.00  0.00     0.002 A 
HETATM   22  C21 UNL     1      25.569  -0.821  53.160  1.00  0.00     0.024 A 
HETATM   23  C22 UNL     1      24.794   0.315  53.130  1.00  0.00     0.042 A 
HETATM   24 CL1  UNL     1      23.058   0.150  53.109  1.00  0.00    -0.084 Cl
ENDBRANCH  17  18
ENDBRANCH  15  17
ENDBRANCH  14  15
BRANCH   1  25
HETATM   25  C2  UNL     1      22.352   4.292  47.289  1.00  0.00     0.000 C 
HETATM   26  C1  UNL     1      21.298   3.920  46.571  1.00  0.00     0.010 C 
ENDBRANCH   1  25
BRANCH   8  27
HETATM   27  C10 UNL     1      27.704   6.953  48.431  1.00  0.00     0.261 C 
HETATM   28  F1  UNL     1      28.385   5.913  47.828  1.00  0.00    -0.251 F 
ENDBRANCH   8  27
BRANCH   9  29
HETATM   29  O2  UNL     1      25.114   7.762  47.120  1.00  0.00    -0.371 OA
HETATM   30  H14 UNL     1      24.343   7.567  46.524  1.00  0.00     0.212 HD
ENDBRANCH   9  29
TORSDOF 6
ENDMDL
MODEL 5
REMARK VINA RESULT:      -7.9      8.070     11.276
REMARK  6 active torsions:
REMARK  status: ('A' for Active; 'I' for Inactive)
REMARK    1  A    between atoms: C2_2  and  C3_3 
REMARK    2  A    between atoms: C9_10  and  C10_11 
REMARK    3  A    between atoms: C11_13  and  O2_14 
REMARK    4  A    between atoms: C15_19  and  N2_20 
REMARK    5  A    between atoms: N2_20  and  C16_21 
REMARK    6  A    between atoms: C16_21  and  C17_22 
ROOT
HETATM    1  C3  UNL     1      33.326   3.639  47.260  1.00  0.00     0.191 C 
HETATM    2  O1  UNL     1      34.327   3.930  46.406  1.00  0.00    -0.375 OA
HETATM    3  C4  UNL     1      34.079   4.471  45.132  1.00  0.00     0.183 C 
HETATM    4  C5  UNL     1      33.232   5.642  45.413  1.00  0.00     0.081 C 
HETATM    5  C6  UNL     1      32.708   6.602  44.468  1.00  0.00    -0.014 C 
HETATM    6  C7  UNL     1      31.670   7.206  45.183  1.00  0.00    -0.003 C 
HETATM    7  C8  UNL     1      30.946   7.203  46.500  1.00  0.00     0.009 C 
HETATM    8  C9  UNL     1      30.405   7.072  47.726  1.00  0.00    -0.002 C 
HETATM    9  C11 UNL     1      30.804   6.038  48.792  1.00  0.00     0.273 C 
HETATM   10  N1  UNL     1      31.546   5.015  48.126  1.00  0.00    -0.259 NA
HETATM   11  C12 UNL     1      32.793   4.819  48.073  1.00  0.00     0.046 C 
HETATM   12  C13 UNL     1      33.740   5.762  48.796  1.00  0.00     0.086 C 
HETATM   13  C14 UNL     1      34.452   6.448  47.653  1.00  0.00     0.004 C 
HETATM   14  C15 UNL     1      34.017   6.482  46.378  1.00  0.00     0.011 C 
ENDROOT
BRANCH  14  15
HETATM   15  N2  UNL     1      34.499   7.740  45.849  1.00  0.00    -0.388 N 
HETATM   16  H18 UNL     1      34.697   7.780  44.813  1.00  0.00     0.159 HD
BRANCH  15  17
HETATM   17  C16 UNL     1      34.708   8.907  46.681  1.00  0.00     0.160 C 
BRANCH  17  18
HETATM   18  C17 UNL     1      33.674   9.922  46.497  1.00  0.00    -0.019 A 
HETATM   19  C18 UNL     1      32.741  10.087  47.525  1.00  0.00     0.010 A 
HETATM   20  C19 UNL     1      31.703  11.020  47.481  1.00  0.00     0.001 A 
HETATM   21  C20 UNL     1      31.577  11.830  46.368  1.00  0.00     0.002 A 
HETATM   22  C21 UNL     1      32.472  11.693  45.348  1.00  0.00     0.024 A 
HETATM   23  C22 UNL     1      33.482  10.763  45.429  1.00  0.00     0.042 A 
HETATM   24 CL1  UNL     1      34.601  10.617  44.100  1.00  0.00    -0.084 Cl
ENDBRANCH  17  18
ENDBRANCH  15  17
ENDBRANCH  14  15
BRANCH   1  25
HETATM   25  C2  UNL     1      32.212   2.841  46.715  1.00  0.00     0.000 C 
HETATM   26  C1  UNL     1      32.298   1.516  46.738  1.00  0.00     0.010 C 
ENDBRANCH   1  25
BRANCH   8  27
HETATM   27  C10 UNL     1      29.339   8.102  47.765  1.00  0.00     0.261 C 
HETATM   28  F1  UNL     1      29.588   8.844  48.904  1.00  0.00    -0.251 F 
ENDBRANCH   8  27
BRANCH   9  29
HETATM   29  O2  UNL     1      29.601   5.453  49.177  1.00  0.00    -0.371 OA
HETATM   30  H14 UNL     1      29.190   5.895  49.966  1.00  0.00     0.212 HD
ENDBRANCH   9  29
TORSDOF 6
ENDMDL
MODEL 6
REMARK VINA RESULT:      -7.8      1.948      2.328
REMARK  6 active torsions:
REMARK  status: ('A' for Active; 'I' for Inactive)
REMARK    1  A    between atoms: C2_2  and  C3_3 
REMARK    2  A    between atoms: C9_10  and  C10_11 
REMARK    3  A    between atoms: C11_13  and  O2_14 
REMARK    4  A    between atoms: C15_19  and  N2_20 
REMARK    5  A    between atoms: N2_20  and  C16_21 
REMARK    6  A    between atoms: C16_21  and  C17_22 
ROOT
HETATM    1  C3  UNL     1      21.586   4.279  50.405  1.00  0.00     0.191 C 
HETATM    2  O1  UNL     1      21.952   2.992  50.570  1.00  0.00    -0.375 OA
HETATM    3  C4  UNL     1      22.966   2.406  49.793  1.00  0.00     0.183 C 
HETATM    4  C5  UNL     1      24.101   3.330  49.951  1.00  0.00     0.081 C 
HETATM    5  C6  UNL     1      25.431   3.200  49.401  1.00  0.00    -0.014 C 
HETATM    6  C7  UNL     1      25.933   4.502  49.493  1.00  0.00    -0.003 C 
HETATM    7  C8  UNL     1      25.596   5.901  49.928  1.00  0.00     0.009 C 
HETATM    8  C9  UNL     1      25.138   7.090  50.359  1.00  0.00    -0.002 C 
HETATM    9  C11 UNL     1      23.724   7.387  50.884  1.00  0.00     0.273 C 
HETATM   10  N1  UNL     1      22.888   6.306  50.466  1.00  0.00    -0.259 NA
HETATM   11  C12 UNL     1      22.464   5.308  51.115  1.00  0.00     0.046 C 
HETATM   12  C13 UNL     1      22.847   5.136  52.575  1.00  0.00     0.086 C 
HETATM   13  C14 UNL     1      23.739   3.917  52.536  1.00  0.00     0.004 C 
HETATM   14  C15 UNL     1      24.335   3.427  51.431  1.00  0.00     0.011 C 
ENDROOT
BRANCH  14  15
HETATM   15  N2  UNL     1      25.565   2.828  51.900  1.00  0.00    -0.388 N 
HETATM   16  H18 UNL     1      26.440   3.416  51.838  1.00  0.00     0.159 HD
BRANCH  15  17
HETATM   17  C16 UNL     1      25.624   1.483  52.434  1.00  0.00     0.160 C 
BRANCH  17  18
HETATM   18  C17 UNL     1      26.949   1.136  52.941  1.00  0.00    -0.019 A 
HETATM   19  C18 UNL     1      27.760   2.181  53.396  1.00  0.00     0.010 A 
HETATM   20  C19 UNL     1      29.046   1.993  53.906  1.00  0.00     0.001 A 
HETATM   21  C20 UNL     1      29.559   0.711  53.972  1.00  0.00     0.002 A 
HETATM   22  C21 UNL     1      28.793  -0.330  53.536  1.00  0.00     0.024 A 
HETATM   23  C22 UNL     1      27.530  -0.104  53.040  1.00  0.00     0.042 A 
HETATM   24 CL1  UNL     1      26.586  -1.463  52.489  1.00  0.00    -0.084 Cl
ENDBRANCH  17  18
ENDBRANCH  15  17
ENDBRANCH  14  15
BRANCH   1  25
HETATM   25  C2  UNL     1      21.304   4.705  49.021  1.00  0.00     0.000 C 
HETATM   26  C1  UNL     1      20.050   4.964  48.670  1.00  0.00     0.010 C 
ENDBRANCH   1  25
BRANCH   8  27
HETATM   27  C10 UNL     1      26.282   8.013  50.162  1.00  0.00     0.261 C 
HETATM   28  F1  UNL     1      26.308   8.279  48.806  1.00  0.00    -0.251 F 
ENDBRANCH   8  27
BRANCH   9  29
HETATM   29  O2  UNL     1      23.309   8.499  50.157  1.00  0.00    -0.371 OA
HETATM   30  H14 UNL     1      23.556   8.448  49.196  1.00  0.00     0.212 HD
ENDBRANCH   9  29
TORSDOF 6
ENDMDL
MODEL 7
REMARK VINA RESULT:      -7.7      7.244     10.646
REMARK  6 active torsions:
REMARK  status: ('A' for Active; 'I' for Inactive)
REMARK    1  A    between atoms: C2_2  and  C3_3 
REMARK    2  A    between atoms: C9_10  and  C10_11 
REMARK    3  A    between atoms: C11_13  and  O2_14 
REMARK    4  A    between atoms: C15_19  and  N2_20 
REMARK    5  A    between atoms: N2_20  and  C16_21 
REMARK    6  A    between atoms: C16_21  and  C17_22 
ROOT
HETATM    1  C3  UNL     1      32.849   4.111  47.329  1.00  0.00     0.191 C 
HETATM    2  O1  UNL     1      33.895   4.620  46.649  1.00  0.00    -0.375 OA
HETATM    3  C4  UNL     1      33.731   5.254  45.405  1.00  0.00     0.183 C 
HETATM    4  C5  UNL     1      32.695   6.266  45.667  1.00  0.00     0.081 C 
HETATM    5  C6  UNL     1      32.158   7.242  44.746  1.00  0.00    -0.014 C 
HETATM    6  C7  UNL     1      30.962   7.623  45.360  1.00  0.00    -0.003 C 
HETATM    7  C8  UNL     1      30.089   7.386  46.560  1.00  0.00     0.009 C 
HETATM    8  C9  UNL     1      29.425   7.057  47.684  1.00  0.00    -0.002 C 
HETATM    9  C11 UNL     1      29.834   5.979  48.701  1.00  0.00     0.273 C 
HETATM   10  N1  UNL     1      30.795   5.139  48.058  1.00  0.00    -0.259 NA
HETATM   11  C12 UNL     1      32.054   5.117  48.160  1.00  0.00     0.046 C 
HETATM   12  C13 UNL     1      32.756   6.097  49.085  1.00  0.00     0.086 C 
HETATM   13  C14 UNL     1      33.497   6.987  48.115  1.00  0.00     0.004 C 
HETATM   14  C15 UNL     1      33.224   7.097  46.800  1.00  0.00     0.011 C 
ENDROOT
BRANCH  14  15
HETATM   15  N2  UNL     1      33.579   8.456  46.453  1.00  0.00    -0.388 N 
HETATM   16  H18 UNL     1      33.880   8.634  45.457  1.00  0.00     0.159 HD
BRANCH  15  17
HETATM   17  C16 UNL     1      33.533   9.542  47.410  1.00  0.00     0.160 C 
BRANCH  17  18
HETATM   18  C17 UNL     1      32.342  10.375  47.259  1.00  0.00    -0.019 A 
HETATM   19  C18 UNL     1      32.279  11.215  46.143  1.00  0.00     0.010 A 
HETATM   20  C19 UNL     1      31.201  12.061  45.875  1.00  0.00     0.001 A 
HETATM   21  C20 UNL     1      30.132  12.081  46.751  1.00  0.00     0.002 A 
HETATM   22  C21 UNL     1      30.164  11.274  47.850  1.00  0.00     0.024 A 
HETATM   23  C22 UNL     1      31.244  10.453  48.079  1.00  0.00     0.042 A 
HETATM   24 CL1  UNL     1      31.246   9.441  49.499  1.00  0.00    -0.084 Cl
ENDBRANCH  17  18
ENDBRANCH  15  17
ENDBRANCH  14  15
BRANCH   1  25
HETATM   25  C2  UNL     1      31.940   3.233  46.569  1.00  0.00     0.000 C 
HETATM   26  C1  UNL     1      32.107   1.918  46.638  1.00  0.00     0.010 C 
ENDBRANCH   1  25
BRANCH   8  27
HETATM   27  C10 UNL     1      28.224   7.926  47.664  1.00  0.00     0.261 C 
HETATM   28  F1  UNL     1      28.224   8.578  48.883  1.00  0.00    -0.251 F 
ENDBRANCH   8  27
BRANCH   9  29
HETATM   29  O2  UNL     1      28.691   5.202  48.865  1.00  0.00    -0.371 OA
HETATM   30  H14 UNL     1      28.355   4.823  48.010  1.00  0.00     0.212 HD
ENDBRANCH   9  29
TORSDOF 6
ENDMDL
MODEL 8
REMARK VINA RESULT:      -7.6      3.651      6.231
REMARK  6 active torsions:
REMARK  status: ('A' for Active; 'I' for Inactive)
REMARK    1  A    between atoms: C2_2  and  C3_3 
REMARK    2  A    between atoms: C9_10  and  C10_11 
REMARK    3  A    between atoms: C11_13  and  O2_14 
REMARK    4  A    between atoms: C15_19  and  N2_20 
REMARK    5  A    between atoms: N2_20  and  C16_21 
REMARK    6  A    between atoms: C16_21  and  C17_22 
ROOT
HETATM    1  C3  UNL     1      22.735   1.665  52.829  1.00  0.00     0.191 C 
HETATM    2  O1  UNL     1      23.729   2.353  53.426  1.00  0.00    -0.375 OA
HETATM    3  C4  UNL     1      24.987   2.512  52.818  1.00  0.00     0.183 C 
HETATM    4  C5  UNL     1      24.662   3.049  51.487  1.00  0.00     0.081 C 
HETATM    5  C6  UNL     1      25.581   3.444  50.443  1.00  0.00    -0.014 C 
HETATM    6  C7  UNL     1      24.770   3.458  49.305  1.00  0.00    -0.003 C 
HETATM    7  C8  UNL     1      23.371   3.216  48.813  1.00  0.00     0.009 C 
HETATM    8  C9  UNL     1      22.079   2.957  48.536  1.00  0.00    -0.002 C 
HETATM    9  C11 UNL     1      21.019   2.447  49.527  1.00  0.00     0.273 C 
HETATM   10  N1  UNL     1      21.719   1.929  50.659  1.00  0.00    -0.259 NA
HETATM   11  C12 UNL     1      21.926   2.445  51.794  1.00  0.00     0.046 C 
HETATM   12  C13 UNL     1      21.387   3.832  52.105  1.00  0.00     0.086 C 
HETATM   13  C14 UNL     1      22.650   4.654  52.219  1.00  0.00     0.004 C 
HETATM   14  C15 UNL     1      23.857   4.291  51.741  1.00  0.00     0.011 C 
ENDROOT
BRANCH  14  15
HETATM   15  N2  UNL     1      24.513   5.532  51.393  1.00  0.00    -0.388 N 
HETATM   16  H18 UNL     1      25.568   5.544  51.432  1.00  0.00     0.159 HD
BRANCH  15  17
HETATM   17  C16 UNL     1      23.780   6.721  51.008  1.00  0.00     0.160 C 
BRANCH  17  18
HETATM   18  C17 UNL     1      23.731   6.906  49.559  1.00  0.00    -0.019 A 
HETATM   19  C18 UNL     1      24.923   7.244  48.912  1.00  0.00     0.010 A 
HETATM   20  C19 UNL     1      25.020   7.450  47.534  1.00  0.00     0.001 A 
HETATM   21  C20 UNL     1      23.885   7.316  46.756  1.00  0.00     0.002 A 
HETATM   22  C21 UNL     1      22.707   6.988  47.358  1.00  0.00     0.024 A 
HETATM   23  C22 UNL     1      22.652   6.793  48.719  1.00  0.00     0.042 A 
HETATM   24 CL1  UNL     1      21.123   6.379  49.449  1.00  0.00    -0.084 Cl
ENDBRANCH  17  18
ENDBRANCH  15  17
ENDBRANCH  14  15
BRANCH   1  25
HETATM   25  C2  UNL     1      23.084   0.328  52.313  1.00  0.00     0.000 C 
HETATM   26  C1  UNL     1      23.047  -0.711  53.140  1.00  0.00     0.010 C 
ENDBRANCH   1  25
BRANCH   8  27
HETATM   27  C10 UNL     1      21.957   3.228  47.083  1.00  0.00     0.261 C 
HETATM   28  F1  UNL     1      20.952   4.170  46.970  1.00  0.00    -0.251 F 
ENDBRANCH   8  27
BRANCH   9  29
HETATM   29  O2  UNL     1      20.448   1.349  48.892  1.00  0.00    -0.371 OA
HETATM   30  H14 UNL     1      19.699   0.949  49.408  1.00  0.00     0.212 HD
ENDBRANCH   9  29
TORSDOF 6
ENDMDL
MODEL 9
REMARK VINA RESULT:      -7.4      3.906      6.331
REMARK  6 active torsions:
REMARK  status: ('A' for Active; 'I' for Inactive)
REMARK    1  A    between atoms: C2_2  and  C3_3 
REMARK    2  A    between atoms: C9_10  and  C10_11 
REMARK    3  A    between atoms: C11_13  and  O2_14 
REMARK    4  A    between atoms: C15_19  and  N2_20 
REMARK    5  A    between atoms: N2_20  and  C16_21 
REMARK    6  A    between atoms: C16_21  and  C17_22 
ROOT
HETATM    1  C3  UNL     1      19.438   0.272  51.064  1.00  0.00     0.191 C 
HETATM    2  O1  UNL     1      18.662   1.128  50.372  1.00  0.00    -0.375 OA
HETATM    3  C4  UNL     1      18.404   2.431  50.833  1.00  0.00     0.183 C 
HETATM    4  C5  UNL     1      19.745   2.980  51.087  1.00  0.00     0.081 C 
HETATM    5  C6  UNL     1      20.087   4.310  51.537  1.00  0.00    -0.014 C 
HETATM    6  C7  UNL     1      21.394   4.153  52.006  1.00  0.00    -0.003 C 
HETATM    7  C8  UNL     1      22.497   3.151  52.202  1.00  0.00     0.009 C 
HETATM    8  C9  UNL     1      23.374   2.136  52.312  1.00  0.00    -0.002 C 
HETATM    9  C11 UNL     1      23.114   0.663  51.955  1.00  0.00     0.273 C 
HETATM   10  N1  UNL     1      21.698   0.497  51.873  1.00  0.00    -0.259 NA
HETATM   11  C12 UNL     1      20.944   0.439  50.861  1.00  0.00     0.046 C 
HETATM   12  C13 UNL     1      21.536   0.554  49.466  1.00  0.00     0.086 C 
HETATM   13  C14 UNL     1      20.993   1.881  48.990  1.00  0.00     0.004 C 
HETATM   14  C15 UNL     1      20.486   2.842  49.788  1.00  0.00     0.011 C 
ENDROOT
BRANCH  14  15
HETATM   15  N2  UNL     1      20.787   4.088  49.115  1.00  0.00    -0.388 N 
HETATM   16  H18 UNL     1      20.171   4.915  49.340  1.00  0.00     0.159 HD
BRANCH  15  17
HETATM   17  C16 UNL     1      21.877   4.220  48.170  1.00  0.00     0.160 C 
BRANCH  17  18
HETATM   18  C17 UNL     1      23.150   4.526  48.820  1.00  0.00    -0.019 A 
HETATM   19  C18 UNL     1      24.103   3.504  48.883  1.00  0.00     0.010 A 
HETATM   20  C19 UNL     1      25.359   3.658  49.473  1.00  0.00     0.001 A 
HETATM   21  C20 UNL     1      25.693   4.880  50.028  1.00  0.00     0.002 A 
HETATM   22  C21 UNL     1      24.785   5.896  49.982  1.00  0.00     0.024 A 
HETATM   23  C22 UNL     1      23.557   5.705  49.391  1.00  0.00     0.042 A 
HETATM   24 CL1  UNL     1      22.423   7.030  49.358  1.00  0.00    -0.084 Cl
ENDBRANCH  17  18
ENDBRANCH  15  17
ENDBRANCH  14  15
BRANCH   1  25
HETATM   25  C2  UNL     1      19.123   0.116  52.497  1.00  0.00     0.000 C 
HETATM   26  C1  UNL     1      18.294  -0.850  52.873  1.00  0.00     0.010 C 
ENDBRANCH   1  25
BRANCH   8  27
HETATM   27  C10 UNL     1      24.588   2.766  52.887  1.00  0.00     0.261 C 
HETATM   28  F1  UNL     1      24.127   3.828  53.642  1.00  0.00    -0.251 F 
ENDBRANCH   8  27
BRANCH   9  29
HETATM   29  O2  UNL     1      23.521  -0.045  53.082  1.00  0.00    -0.371 OA
HETATM   30  H14 UNL     1      22.987  -0.870  53.234  1.00  0.00     0.212 HD
ENDBRANCH   9  29
TORSDOF 6
ENDMDL
