MODEL 1
REMARK VINA RESULT:      -8.8      0.000      0.000
REMARK  6 active torsions:
REMARK  status: ('A' for Active; 'I' for Inactive)
REMARK    1  A    between atoms: C3_3  and  C4_4 
REMARK    2  A    between atoms: C4_4  and  C5_5 
REMARK    3  A    between atoms: C13_17  and  C14_18 
REMARK       I    between atoms: C14_18  and  N3_20 
REMARK    4  A    between atoms: N3_20  and  C15_21 
REMARK    5  A    between atoms: C15_21  and  C16_22 
REMARK    6  A    between atoms: C16_22  and  N4_23 
ROOT
HETATM    1  C1  UNL     1      26.003   0.158  55.222  1.00  0.00     0.050 C 
HETATM    2  C2  UNL     1      26.018   0.663  53.851  1.00  0.00    -0.036 A 
HETATM    3  C3  UNL     1      25.003   0.573  53.012  1.00  0.00     0.035 A 
HETATM    4  N2  UNL     1      25.303   1.177  51.731  1.00  0.00    -0.373 N 
HETATM    5  C13 UNL     1      26.552   1.748  51.284  1.00  0.00     0.197 A 
HETATM    6  C19 UNL     1      27.549   1.754  52.358  1.00  0.00     0.008 A 
HETATM    7  C20 UNL     1      27.303   1.252  53.542  1.00  0.00     0.007 A 
HETATM    8  H9  UNL     1      24.613   1.259  50.973  1.00  0.00     0.161 HD
ENDROOT
BRANCH   3   9
HETATM    9  C4  UNL     1      23.768  -0.029  53.339  1.00  0.00     0.047 C 
BRANCH   9  10
HETATM   10  C5  UNL     1      22.570  -0.396  53.562  1.00  0.00     0.047 A 
HETATM   11  C6  UNL     1      22.271  -1.176  54.755  1.00  0.00     0.257 A 
HETATM   12  O1  UNL     1      22.729  -1.706  55.779  1.00  0.00    -0.267 OA
HETATM   13  N1  UNL     1      20.877  -1.446  54.750  1.00  0.00    -0.322 N 
HETATM   14  C7  UNL     1      20.315  -0.853  53.590  1.00  0.00     0.046 A 
HETATM   15  H5  UNL     1      20.184  -1.948  55.357  1.00  0.00     0.169 HD
HETATM   16  C8  UNL     1      19.071  -0.738  52.996  1.00  0.00     0.033 A 
HETATM   17  C12 UNL     1      21.284  -0.223  52.860  1.00  0.00     0.009 A 
HETATM   18  C9  UNL     1      18.719  -0.103  51.831  1.00  0.00     0.044 A 
HETATM   19  C10 UNL     1      19.740   0.513  51.144  1.00  0.00     0.117 A 
HETATM   20  F1  UNL     1      19.499   1.162  49.991  1.00  0.00    -0.206 F 
HETATM   21  C11 UNL     1      21.012   0.448  51.662  1.00  0.00     0.057 A 
ENDBRANCH   9  10
ENDBRANCH   3   9
BRANCH   5  22
HETATM   22  C14 UNL     1      26.251   3.132  50.783  1.00  0.00     0.244 C 
HETATM   23  O2  UNL     1      27.106   3.662  50.056  1.00  0.00    -0.271 OA
HETATM   24  N3  UNL     1      25.035   3.797  51.130  1.00  0.00    -0.357 N 
HETATM   25  H11 UNL     1      24.396   3.223  51.758  1.00  0.00     0.162 HD
BRANCH  24  26
HETATM   26  C15 UNL     1      24.688   5.128  50.680  1.00  0.00     0.144 C 
BRANCH  26  27
HETATM   27  C16 UNL     1      23.745   5.787  51.661  1.00  0.00     0.172 C 
BRANCH  27  28
HETATM   28  N4  UNL     1      22.445   5.141  51.619  1.00  0.00    -0.260 N 
HETATM   29  C17 UNL     1      21.485   5.442  50.729  1.00  0.00     0.135 A 
HETATM   30  C18 UNL     1      20.383   4.636  50.979  1.00  0.00     0.161 A 
HETATM   31  N5  UNL     1      20.741   3.865  52.039  1.00  0.00    -0.143 NA
HETATM   32  N6  UNL     1      21.978   4.189  52.400  1.00  0.00    -0.067 NA
ENDBRANCH  27  28
ENDBRANCH  26  27
ENDBRANCH  24  26
ENDBRANCH   5  22
TORSDOF 6
ENDMDL
MODEL 2
REMARK VINA RESULT:      -8.8      2.295      4.954
REMARK  6 active torsions:
REMARK  status: ('A' for Active; 'I' for Inactive)
REMARK    1  A    between atoms: C3_3  and  C4_4 
REMARK    2  A    between atoms: C4_4  and  C5_5 
REMARK    3  A    between atoms: C13_17  and  C14_18 
REMARK       I    between atoms: C14_18  and  N3_20 
REMARK    4  A    between atoms: N3_20  and  C15_21 
REMARK    5  A    between atoms: C15_21  and  C16_22 
REMARK    6  A    between atoms: C16_22  and  N4_23 
ROOT
HETATM    1  C1  UNL     1      21.600   1.509  48.728  1.00  0.00     0.050 C 
HETATM    2  C2  UNL     1      22.608   2.002  49.664  1.00  0.00    -0.036 A 
HETATM    3  C3  UNL     1      22.617   1.739  50.957  1.00  0.00     0.035 A 
HETATM    4  N2  UNL     1      23.745   2.349  51.628  1.00  0.00    -0.373 N 
HETATM    5  C13 UNL     1      24.743   3.231  51.072  1.00  0.00     0.197 A 
HETATM    6  C19 UNL     1      24.560   3.399  49.627  1.00  0.00     0.008 A 
HETATM    7  C20 UNL     1      23.574   2.832  48.978  1.00  0.00     0.007 A 
HETATM    8  H9  UNL     1      23.954   2.201  52.625  1.00  0.00     0.161 HD
ENDROOT
BRANCH   3   9
HETATM    9  C4  UNL     1      21.645   0.941  51.600  1.00  0.00     0.047 C 
BRANCH   9  10
HETATM   10  C5  UNL     1      20.878   0.257  52.352  1.00  0.00     0.047 A 
HETATM   11  C6  UNL     1      21.391  -0.267  53.610  1.00  0.00     0.257 A 
HETATM   12  O1  UNL     1      22.371  -0.350  54.366  1.00  0.00    -0.267 OA
HETATM   13  N1  UNL     1      20.337  -0.983  54.236  1.00  0.00    -0.322 N 
HETATM   14  C7  UNL     1      19.194  -0.910  53.398  1.00  0.00     0.046 A 
HETATM   15  H5  UNL     1      20.189  -1.528  55.120  1.00  0.00     0.169 HD
HETATM   16  C8  UNL     1      17.887  -1.366  53.402  1.00  0.00     0.033 A 
HETATM   17  C12 UNL     1      19.473  -0.186  52.273  1.00  0.00     0.009 A 
HETATM   18  C9  UNL     1      16.900  -1.186  52.465  1.00  0.00     0.044 A 
HETATM   19  C10 UNL     1      17.245  -0.446  51.356  1.00  0.00     0.117 A 
HETATM   20  F1  UNL     1      16.349  -0.212  50.381  1.00  0.00    -0.206 F 
HETATM   21  C11 UNL     1      18.526   0.046  51.269  1.00  0.00     0.057 A 
ENDBRANCH   9  10
ENDBRANCH   3   9
BRANCH   5  22
HETATM   22  C14 UNL     1      26.087   2.649  51.409  1.00  0.00     0.244 C 
HETATM   23  O2  UNL     1      26.817   2.338  50.456  1.00  0.00    -0.271 OA
HETATM   24  N3  UNL     1      26.495   2.468  52.766  1.00  0.00    -0.357 N 
HETATM   25  H11 UNL     1      25.769   2.779  53.478  1.00  0.00     0.162 HD
BRANCH  24  26
HETATM   26  C15 UNL     1      27.774   1.913  53.155  1.00  0.00     0.144 C 
BRANCH  26  27
HETATM   27  C16 UNL     1      27.589   0.862  54.226  1.00  0.00     0.172 C 
BRANCH  27  28
HETATM   28  N4  UNL     1      27.622  -0.465  53.638  1.00  0.00    -0.260 N 
HETATM   29  C17 UNL     1      26.656  -0.960  52.847  1.00  0.00     0.135 A 
HETATM   30  C18 UNL     1      27.014  -2.247  52.467  1.00  0.00     0.161 A 
HETATM   31  N5  UNL     1      28.213  -2.473  53.064  1.00  0.00    -0.143 NA
HETATM   32  N6  UNL     1      28.552  -1.391  53.757  1.00  0.00    -0.067 NA
ENDBRANCH  27  28
ENDBRANCH  26  27
ENDBRANCH  24  26
ENDBRANCH   5  22
TORSDOF 6
ENDMDL
MODEL 3
REMARK VINA RESULT:      -8.7      3.714      5.456
REMARK  6 active torsions:
REMARK  status: ('A' for Active; 'I' for Inactive)
REMARK    1  A    between atoms: C3_3  and  C4_4 
REMARK    2  A    between atoms: C4_4  and  C5_5 
REMARK    3  A    between atoms: C13_17  and  C14_18 
REMARK       I    between atoms: C14_18  and  N3_20 
REMARK    4  A    between atoms: N3_20  and  C15_21 
REMARK    5  A    between atoms: C15_21  and  C16_22 
REMARK    6  A    between atoms: C16_22  and  N4_23 
ROOT
HETATM    1  C1  UNL     1      22.678   2.203  49.599  1.00  0.00     0.050 C 
HETATM    2  C2  UNL     1      23.800   3.116  49.806  1.00  0.00    -0.036 A 
HETATM    3  C3  UNL     1      24.765   2.924  50.686  1.00  0.00     0.035 A 
HETATM    4  N2  UNL     1      25.748   3.987  50.653  1.00  0.00    -0.373 N 
HETATM    5  C13 UNL     1      25.727   5.197  49.867  1.00  0.00     0.197 A 
HETATM    6  C19 UNL     1      24.579   5.222  48.956  1.00  0.00     0.008 A 
HETATM    7  C20 UNL     1      23.690   4.262  48.929  1.00  0.00     0.007 A 
HETATM    8  H9  UNL     1      26.605   3.977  51.222  1.00  0.00     0.161 HD
ENDROOT
BRANCH   3   9
HETATM    9  C4  UNL     1      24.831   1.804  51.543  1.00  0.00     0.047 C 
BRANCH   9  10
HETATM   10  C5  UNL     1      24.752   0.896  52.432  1.00  0.00     0.047 A 
HETATM   11  C6  UNL     1      25.945   0.144  52.793  1.00  0.00     0.257 A 
HETATM   12  O1  UNL     1      27.158  -0.022  52.590  1.00  0.00    -0.267 OA
HETATM   13  N1  UNL     1      25.572  -0.792  53.793  1.00  0.00    -0.322 N 
HETATM   14  C7  UNL     1      24.187  -0.633  54.055  1.00  0.00     0.046 A 
HETATM   15  H5  UNL     1      26.036  -1.540  54.366  1.00  0.00     0.169 HD
HETATM   16  C8  UNL     1      23.226  -1.197  54.876  1.00  0.00     0.033 A 
HETATM   17  C12 UNL     1      23.664   0.356  53.269  1.00  0.00     0.009 A 
HETATM   18  C9  UNL     1      21.891  -0.895  54.985  1.00  0.00     0.044 A 
HETATM   19  C10 UNL     1      21.427   0.111  54.167  1.00  0.00     0.117 A 
HETATM   20  F1  UNL     1      20.135   0.481  54.199  1.00  0.00    -0.206 F 
HETATM   21  C11 UNL     1      22.315   0.726  53.318  1.00  0.00     0.057 A 
ENDBRANCH   9  10
ENDBRANCH   3   9
BRANCH   5  22
HETATM   22  C14 UNL     1      27.036   5.270  49.132  1.00  0.00     0.244 C 
HETATM   23  O2  UNL     1      27.532   4.194  48.765  1.00  0.00    -0.271 OA
HETATM   24  N3  UNL     1      27.670   6.524  48.873  1.00  0.00    -0.357 N 
HETATM   25  H11 UNL     1      27.131   7.363  49.244  1.00  0.00     0.162 HD
BRANCH  24  26
HETATM   26  C15 UNL     1      28.929   6.660  48.171  1.00  0.00     0.144 C 
BRANCH  26  27
HETATM   27  C16 UNL     1      29.634   7.929  48.594  1.00  0.00     0.172 C 
BRANCH  27  28
HETATM   28  N4  UNL     1      28.668   8.989  48.821  1.00  0.00    -0.260 N 
HETATM   29  C17 UNL     1      28.265   9.852  47.874  1.00  0.00     0.135 A 
HETATM   30  C18 UNL     1      27.342  10.724  48.436  1.00  0.00     0.161 A 
HETATM   31  N5  UNL     1      27.229  10.333  49.732  1.00  0.00    -0.143 NA
HETATM   32  N6  UNL     1      28.032   9.294  49.934  1.00  0.00    -0.067 NA
ENDBRANCH  27  28
ENDBRANCH  26  27
ENDBRANCH  24  26
ENDBRANCH   5  22
TORSDOF 6
ENDMDL
MODEL 4
REMARK VINA RESULT:      -8.7      3.837      6.148
REMARK  6 active torsions:
REMARK  status: ('A' for Active; 'I' for Inactive)
REMARK    1  A    between atoms: C3_3  and  C4_4 
REMARK    2  A    between atoms: C4_4  and  C5_5 
REMARK    3  A    between atoms: C13_17  and  C14_18 
REMARK       I    between atoms: C14_18  and  N3_20 
REMARK    4  A    between atoms: N3_20  and  C15_21 
REMARK    5  A    between atoms: C15_21  and  C16_22 
REMARK    6  A    between atoms: C16_22  and  N4_23 
ROOT
HETATM    1  C1  UNL     1      22.631   2.234  49.663  1.00  0.00     0.050 C 
HETATM    2  C2  UNL     1      23.748   3.164  49.814  1.00  0.00    -0.036 A 
HETATM    3  C3  UNL     1      24.757   2.987  50.647  1.00  0.00     0.035 A 
HETATM    4  N2  UNL     1      25.721   4.064  50.566  1.00  0.00    -0.373 N 
HETATM    5  C13 UNL     1      25.644   5.274  49.783  1.00  0.00     0.197 A 
HETATM    6  C19 UNL     1      24.453   5.280  48.928  1.00  0.00     0.008 A 
HETATM    7  C20 UNL     1      23.578   4.307  48.944  1.00  0.00     0.007 A 
HETATM    8  H9  UNL     1      26.605   4.068  51.093  1.00  0.00     0.161 HD
ENDROOT
BRANCH   3   9
HETATM    9  C4  UNL     1      24.882   1.869  51.500  1.00  0.00     0.047 C 
BRANCH   9  10
HETATM   10  C5  UNL     1      24.874   0.968  52.400  1.00  0.00     0.047 A 
HETATM   11  C6  UNL     1      26.118   0.297  52.750  1.00  0.00     0.257 A 
HETATM   12  O1  UNL     1      27.336   0.206  52.530  1.00  0.00    -0.267 OA
HETATM   13  N1  UNL     1      25.820  -0.649  53.766  1.00  0.00    -0.322 N 
HETATM   14  C7  UNL     1      24.431  -0.576  54.047  1.00  0.00     0.046 A 
HETATM   15  H5  UNL     1      26.339  -1.359  54.339  1.00  0.00     0.169 HD
HETATM   16  C8  UNL     1      23.520  -1.190  54.888  1.00  0.00     0.033 A 
HETATM   17  C12 UNL     1      23.835   0.369  53.258  1.00  0.00     0.009 A 
HETATM   18  C9  UNL     1      22.170  -0.973  55.014  1.00  0.00     0.044 A 
HETATM   19  C10 UNL     1      21.632  -0.008  54.193  1.00  0.00     0.117 A 
HETATM   20  F1  UNL     1      20.319   0.279  54.240  1.00  0.00    -0.206 F 
HETATM   21  C11 UNL     1      22.466   0.653  53.323  1.00  0.00     0.057 A 
ENDBRANCH   9  10
ENDBRANCH   3   9
BRANCH   5  22
HETATM   22  C14 UNL     1      26.914   5.366  48.985  1.00  0.00     0.244 C 
HETATM   23  O2  UNL     1      27.567   4.319  48.848  1.00  0.00    -0.271 OA
HETATM   24  N3  UNL     1      27.342   6.604  48.415  1.00  0.00    -0.357 N 
HETATM   25  H11 UNL     1      26.685   7.418  48.612  1.00  0.00     0.162 HD
BRANCH  24  26
HETATM   26  C15 UNL     1      28.554   6.757  47.638  1.00  0.00     0.144 C 
BRANCH  26  27
HETATM   27  C16 UNL     1      29.642   7.388  48.477  1.00  0.00     0.172 C 
BRANCH  27  28
HETATM   28  N4  UNL     1      30.778   6.489  48.583  1.00  0.00    -0.260 N 
HETATM   29  C17 UNL     1      31.997   6.866  49.003  1.00  0.00     0.135 A 
HETATM   30  C18 UNL     1      32.834   5.759  48.979  1.00  0.00     0.161 A 
HETATM   31  N5  UNL     1      32.058   4.737  48.533  1.00  0.00    -0.143 NA
HETATM   32  N6  UNL     1      30.835   5.203  48.304  1.00  0.00    -0.067 NA
ENDBRANCH  27  28
ENDBRANCH  26  27
ENDBRANCH  24  26
ENDBRANCH   5  22
TORSDOF 6
ENDMDL
MODEL 5
REMARK VINA RESULT:      -8.6      5.393     10.217
REMARK  6 active torsions:
REMARK  status: ('A' for Active; 'I' for Inactive)
REMARK    1  A    between atoms: C3_3  and  C4_4 
REMARK    2  A    between atoms: C4_4  and  C5_5 
REMARK    3  A    between atoms: C13_17  and  C14_18 
REMARK       I    between atoms: C14_18  and  N3_20 
REMARK    4  A    between atoms: N3_20  and  C15_21 
REMARK    5  A    between atoms: C15_21  and  C16_22 
REMARK    6  A    between atoms: C16_22  and  N4_23 
ROOT
HETATM    1  C1  UNL     1      26.516   7.436  48.078  1.00  0.00     0.050 C 
HETATM    2  C2  UNL     1      26.543   6.072  48.600  1.00  0.00    -0.036 A 
HETATM    3  C3  UNL     1      27.621   5.312  48.645  1.00  0.00     0.035 A 
HETATM    4  N2  UNL     1      27.348   4.016  49.229  1.00  0.00    -0.373 N 
HETATM    5  C13 UNL     1      26.077   3.479  49.653  1.00  0.00     0.197 A 
HETATM    6  C19 UNL     1      25.008   4.473  49.523  1.00  0.00     0.008 A 
HETATM    7  C20 UNL     1      25.223   5.669  49.036  1.00  0.00     0.007 A 
HETATM    8  H9  UNL     1      28.079   3.313  49.405  1.00  0.00     0.161 HD
ENDROOT
BRANCH   3   9
HETATM    9  C4  UNL     1      28.892   5.729  48.191  1.00  0.00     0.047 C 
BRANCH   9  10
HETATM   10  C5  UNL     1      30.104   6.051  47.970  1.00  0.00     0.047 A 
HETATM   11  C6  UNL     1      30.523   7.432  48.165  1.00  0.00     0.257 A 
HETATM   12  O1  UNL     1      30.175   8.577  48.494  1.00  0.00    -0.267 OA
HETATM   13  N1  UNL     1      31.905   7.507  47.848  1.00  0.00    -0.322 N 
HETATM   14  C7  UNL     1      32.342   6.212  47.466  1.00  0.00     0.046 A 
HETATM   15  H5  UNL     1      32.655   8.240  47.825  1.00  0.00     0.169 HD
HETATM   16  C8  UNL     1      33.515   5.605  47.053  1.00  0.00     0.033 A 
HETATM   17  C12 UNL     1      31.306   5.323  47.524  1.00  0.00     0.009 A 
HETATM   18  C9  UNL     1      33.744   4.294  46.716  1.00  0.00     0.044 A 
HETATM   19  C10 UNL     1      32.660   3.450  46.796  1.00  0.00     0.117 A 
HETATM   20  F1  UNL     1      32.780   2.146  46.487  1.00  0.00    -0.206 F 
HETATM   21  C11 UNL     1      31.452   3.969  47.198  1.00  0.00     0.057 A 
ENDBRANCH   9  10
ENDBRANCH   3   9
BRANCH   5  22
HETATM   22  C14 UNL     1      26.246   3.011  51.071  1.00  0.00     0.244 C 
HETATM   23  O2  UNL     1      27.402   2.759  51.444  1.00  0.00    -0.271 OA
HETATM   24  N3  UNL     1      25.122   2.865  51.941  1.00  0.00    -0.357 N 
HETATM   25  H11 UNL     1      24.193   3.116  51.488  1.00  0.00     0.162 HD
BRANCH  24  26
HETATM   26  C15 UNL     1      25.219   2.419  53.315  1.00  0.00     0.144 C 
BRANCH  26  27
HETATM   27  C16 UNL     1      25.170   0.909  53.384  1.00  0.00     0.172 C 
BRANCH  27  28
HETATM   28  N4  UNL     1      26.461   0.383  53.786  1.00  0.00    -0.260 N 
HETATM   29  C17 UNL     1      27.245  -0.369  52.996  1.00  0.00     0.135 A 
HETATM   30  C18 UNL     1      28.397  -0.695  53.698  1.00  0.00     0.161 A 
HETATM   31  N5  UNL     1      28.249  -0.107  54.914  1.00  0.00    -0.143 NA
HETATM   32  N6  UNL     1      27.084   0.530  54.938  1.00  0.00    -0.067 NA
ENDBRANCH  27  28
ENDBRANCH  26  27
ENDBRANCH  24  26
ENDBRANCH   5  22
TORSDOF 6
ENDMDL
MODEL 6
REMARK VINA RESULT:      -8.6      3.096      5.951
REMARK  6 active torsions:
REMARK  status: ('A' for Active; 'I' for Inactive)
REMARK    1  A    between atoms: C3_3  and  C4_4 
REMARK    2  A    between atoms: C4_4  and  C5_5 
REMARK    3  A    between atoms: C13_17  and  C14_18 
REMARK       I    between atoms: C14_18  and  N3_20 
REMARK    4  A    between atoms: N3_20  and  C15_21 
REMARK    5  A    between atoms: C15_21  and  C16_22 
REMARK    6  A    between atoms: C16_22  and  N4_23 
ROOT
HETATM    1  C1  UNL     1      21.792   0.769  50.707  1.00  0.00     0.050 C 
HETATM    2  C2  UNL     1      21.960   2.120  51.235  1.00  0.00    -0.036 A 
HETATM    3  C3  UNL     1      22.882   2.468  52.114  1.00  0.00     0.035 A 
HETATM    4  N2  UNL     1      22.818   3.877  52.439  1.00  0.00    -0.373 N 
HETATM    5  C13 UNL     1      21.851   4.852  51.994  1.00  0.00     0.197 A 
HETATM    6  C19 UNL     1      20.914   4.272  51.028  1.00  0.00     0.008 A 
HETATM    7  C20 UNL     1      20.964   3.010  50.679  1.00  0.00     0.007 A 
HETATM    8  H9  UNL     1      23.496   4.343  53.056  1.00  0.00     0.161 HD
ENDROOT
BRANCH   3   9
HETATM    9  C4  UNL     1      23.827   1.568  52.654  1.00  0.00     0.047 C 
BRANCH   9  10
HETATM   10  C5  UNL     1      24.690   0.890  53.300  1.00  0.00     0.047 A 
HETATM   11  C6  UNL     1      24.290  -0.359  53.932  1.00  0.00     0.257 A 
HETATM   12  O1  UNL     1      23.362  -1.155  54.143  1.00  0.00    -0.267 OA
HETATM   13  N1  UNL     1      25.436  -0.896  54.577  1.00  0.00    -0.322 N 
HETATM   14  C7  UNL     1      26.523  -0.011  54.357  1.00  0.00     0.046 A 
HETATM   15  H5  UNL     1      25.677  -1.742  55.148  1.00  0.00     0.169 HD
HETATM   16  C8  UNL     1      27.864   0.070  54.689  1.00  0.00     0.033 A 
HETATM   17  C12 UNL     1      26.123   1.059  53.607  1.00  0.00     0.009 A 
HETATM   18  C9  UNL     1      28.782   1.041  54.372  1.00  0.00     0.044 A 
HETATM   19  C10 UNL     1      28.315   2.091  53.614  1.00  0.00     0.117 A 
HETATM   20  F1  UNL     1      29.135   3.093  53.250  1.00  0.00    -0.206 F 
HETATM   21  C11 UNL     1      26.993   2.092  53.239  1.00  0.00     0.057 A 
ENDBRANCH   9  10
ENDBRANCH   3   9
BRANCH   5  22
HETATM   22  C14 UNL     1      22.620   6.006  51.415  1.00  0.00     0.244 C 
HETATM   23  O2  UNL     1      21.955   6.939  50.938  1.00  0.00    -0.271 OA
HETATM   24  N3  UNL     1      24.048   6.019  51.418  1.00  0.00    -0.357 N 
HETATM   25  H11 UNL     1      24.485   5.155  51.859  1.00  0.00     0.162 HD
BRANCH  24  26
HETATM   26  C15 UNL     1      24.845   7.100  50.876  1.00  0.00     0.144 C 
BRANCH  26  27
HETATM   27  C16 UNL     1      25.069   6.897  49.394  1.00  0.00     0.172 C 
BRANCH  27  28
HETATM   28  N4  UNL     1      26.129   5.930  49.174  1.00  0.00    -0.260 N 
HETATM   29  C17 UNL     1      27.242   6.184  48.467  1.00  0.00     0.135 A 
HETATM   30  C18 UNL     1      28.031   5.042  48.461  1.00  0.00     0.161 A 
HETATM   31  N5  UNL     1      27.337   4.127  49.187  1.00  0.00    -0.143 NA
HETATM   32  N6  UNL     1      26.204   4.685  49.600  1.00  0.00    -0.067 NA
ENDBRANCH  27  28
ENDBRANCH  26  27
ENDBRANCH  24  26
ENDBRANCH   5  22
TORSDOF 6
ENDMDL
MODEL 7
REMARK VINA RESULT:      -8.5      4.264      7.108
REMARK  6 active torsions:
REMARK  status: ('A' for Active; 'I' for Inactive)
REMARK    1  A    between atoms: C3_3  and  C4_4 
REMARK    2  A    between atoms: C4_4  and  C5_5 
REMARK    3  A    between atoms: C13_17  and  C14_18 
REMARK       I    between atoms: C14_18  and  N3_20 
REMARK    4  A    between atoms: N3_20  and  C15_21 
REMARK    5  A    between atoms: C15_21  and  C16_22 
REMARK    6  A    between atoms: C16_22  and  N4_23 
ROOT
HETATM    1  C1  UNL     1      22.991   3.695  49.087  1.00  0.00     0.050 C 
HETATM    2  C2  UNL     1      24.168   4.545  49.253  1.00  0.00    -0.036 A 
HETATM    3  C3  UNL     1      25.179   4.270  50.056  1.00  0.00     0.035 A 
HETATM    4  N2  UNL     1      26.209   5.286  49.999  1.00  0.00    -0.373 N 
HETATM    5  C13 UNL     1      26.195   6.530  49.266  1.00  0.00     0.197 A 
HETATM    6  C19 UNL     1      24.991   6.648  48.438  1.00  0.00     0.008 A 
HETATM    7  C20 UNL     1      24.056   5.732  48.433  1.00  0.00     0.007 A 
HETATM    8  H9  UNL     1      27.100   5.212  50.507  1.00  0.00     0.161 HD
ENDROOT
BRANCH   3   9
HETATM    9  C4  UNL     1      25.247   3.112  50.860  1.00  0.00     0.047 C 
BRANCH   9  10
HETATM   10  C5  UNL     1      25.385   2.193  51.731  1.00  0.00     0.047 A 
HETATM   11  C6  UNL     1      26.691   1.970  52.335  1.00  0.00     0.257 A 
HETATM   12  O1  UNL     1      27.878   2.326  52.379  1.00  0.00    -0.267 OA
HETATM   13  N1  UNL     1      26.557   0.898  53.256  1.00  0.00    -0.322 N 
HETATM   14  C7  UNL     1      25.207   0.461  53.235  1.00  0.00     0.046 A 
HETATM   15  H5  UNL     1      27.170   0.369  53.923  1.00  0.00     0.169 HD
HETATM   16  C8  UNL     1      24.428  -0.498  53.857  1.00  0.00     0.033 A 
HETATM   17  C12 UNL     1      24.481   1.202  52.344  1.00  0.00     0.009 A 
HETATM   18  C9  UNL     1      23.093  -0.775  53.694  1.00  0.00     0.044 A 
HETATM   19  C10 UNL     1      22.419   0.007  52.783  1.00  0.00     0.117 A 
HETATM   20  F1  UNL     1      21.108  -0.185  52.551  1.00  0.00    -0.206 F 
HETATM   21  C11 UNL     1      23.116   0.986  52.117  1.00  0.00     0.057 A 
ENDBRANCH   9  10
ENDBRANCH   3   9
BRANCH   5  22
HETATM   22  C14 UNL     1      27.453   6.575  48.446  1.00  0.00     0.244 C 
HETATM   23  O2  UNL     1      27.482   7.386  47.508  1.00  0.00    -0.271 OA
HETATM   24  N3  UNL     1      28.559   5.720  48.741  1.00  0.00    -0.357 N 
HETATM   25  H11 UNL     1      28.396   5.077  49.572  1.00  0.00     0.162 HD
BRANCH  24  26
HETATM   26  C15 UNL     1      29.797   5.716  47.990  1.00  0.00     0.144 C 
BRANCH  26  27
HETATM   27  C16 UNL     1      30.951   6.135  48.872  1.00  0.00     0.172 C 
BRANCH  27  28
HETATM   28  N4  UNL     1      32.147   5.391  48.521  1.00  0.00    -0.260 N 
HETATM   29  C17 UNL     1      33.393   5.885  48.613  1.00  0.00     0.135 A 
HETATM   30  C18 UNL     1      34.287   4.907  48.199  1.00  0.00     0.161 A 
HETATM   31  N5  UNL     1      33.516   3.839  47.866  1.00  0.00    -0.143 NA
HETATM   32  N6  UNL     1      32.242   4.157  48.069  1.00  0.00    -0.067 NA
ENDBRANCH  27  28
ENDBRANCH  26  27
ENDBRANCH  24  26
ENDBRANCH   5  22
TORSDOF 6
ENDMDL
MODEL 8
REMARK VINA RESULT:      -8.4      5.249     10.168
REMARK  6 active torsions:
REMARK  status: ('A' for Active; 'I' for Inactive)
REMARK    1  A    between atoms: C3_3  and  C4_4 
REMARK    2  A    between atoms: C4_4  and  C5_5 
REMARK    3  A    between atoms: C13_17  and  C14_18 
REMARK       I    between atoms: C14_18  and  N3_20 
REMARK    4  A    between atoms: N3_20  and  C15_21 
REMARK    5  A    between atoms: C15_21  and  C16_22 
REMARK    6  A    between atoms: C16_22  and  N4_23 
ROOT
HETATM    1  C1  UNL     1      25.921   7.079  48.266  1.00  0.00     0.050 C 
HETATM    2  C2  UNL     1      26.097   5.705  48.729  1.00  0.00    -0.036 A 
HETATM    3  C3  UNL     1      27.254   5.069  48.755  1.00  0.00     0.035 A 
HETATM    4  N2  UNL     1      27.124   3.726  49.279  1.00  0.00    -0.373 N 
HETATM    5  C13 UNL     1      25.918   3.032  49.665  1.00  0.00     0.197 A 
HETATM    6  C19 UNL     1      24.745   3.905  49.565  1.00  0.00     0.008 A 
HETATM    7  C20 UNL     1      24.828   5.138  49.132  1.00  0.00     0.007 A 
HETATM    8  H9  UNL     1      27.927   3.103  49.434  1.00  0.00     0.161 HD
ENDROOT
BRANCH   3   9
HETATM    9  C4  UNL     1      28.472   5.645  48.334  1.00  0.00     0.047 C 
BRANCH   9  10
HETATM   10  C5  UNL     1      29.591   6.226  48.152  1.00  0.00     0.047 A 
HETATM   11  C6  UNL     1      30.756   5.434  47.783  1.00  0.00     0.257 A 
HETATM   12  O1  UNL     1      31.192   4.299  47.536  1.00  0.00    -0.267 OA
HETATM   13  N1  UNL     1      31.852   6.326  47.648  1.00  0.00    -0.322 N 
HETATM   14  C7  UNL     1      31.391   7.639  47.924  1.00  0.00     0.046 A 
HETATM   15  H5  UNL     1      32.872   6.268  47.407  1.00  0.00     0.169 HD
HETATM   16  C8  UNL     1      31.912   8.921  47.971  1.00  0.00     0.033 A 
HETATM   17  C12 UNL     1      30.059   7.623  48.227  1.00  0.00     0.009 A 
HETATM   18  C9  UNL     1      31.282  10.104  48.270  1.00  0.00     0.044 A 
HETATM   19  C10 UNL     1      29.940  10.019  48.565  1.00  0.00     0.117 A 
HETATM   20  F1  UNL     1      29.233  11.121  48.870  1.00  0.00    -0.206 F 
HETATM   21  C11 UNL     1      29.341   8.782  48.542  1.00  0.00     0.057 A 
ENDBRANCH   9  10
ENDBRANCH   3   9
BRANCH   5  22
HETATM   22  C14 UNL     1      26.128   2.524  51.063  1.00  0.00     0.244 C 
HETATM   23  O2  UNL     1      27.246   2.716  51.567  1.00  0.00    -0.271 OA
HETATM   24  N3  UNL     1      25.085   1.853  51.772  1.00  0.00    -0.357 N 
HETATM   25  H11 UNL     1      24.181   1.759  51.218  1.00  0.00     0.162 HD
BRANCH  24  26
HETATM   26  C15 UNL     1      25.225   1.341  53.118  1.00  0.00     0.144 C 
BRANCH  26  27
HETATM   27  C16 UNL     1      25.342  -0.166  53.100  1.00  0.00     0.172 C 
BRANCH  27  28
HETATM   28  N4  UNL     1      26.712  -0.567  53.370  1.00  0.00    -0.260 N 
HETATM   29  C17 UNL     1      27.618   0.217  53.977  1.00  0.00     0.135 A 
HETATM   30  C18 UNL     1      28.814  -0.481  54.070  1.00  0.00     0.161 A 
HETATM   31  N5  UNL     1      28.565  -1.688  53.499  1.00  0.00    -0.143 NA
HETATM   32  N6  UNL     1      27.301  -1.711  53.090  1.00  0.00    -0.067 NA
ENDBRANCH  27  28
ENDBRANCH  26  27
ENDBRANCH  24  26
ENDBRANCH   5  22
TORSDOF 6
ENDMDL
MODEL 9
REMARK VINA RESULT:      -8.4      2.763      3.859
REMARK  6 active torsions:
REMARK  status: ('A' for Active; 'I' for Inactive)
REMARK    1  A    between atoms: C3_3  and  C4_4 
REMARK    2  A    between atoms: C4_4  and  C5_5 
REMARK    3  A    between atoms: C13_17  and  C14_18 
REMARK       I    between atoms: C14_18  and  N3_20 
REMARK    4  A    between atoms: N3_20  and  C15_21 
REMARK    5  A    between atoms: C15_21  and  C16_22 
REMARK    6  A    between atoms: C16_22  and  N4_23 
ROOT
HETATM    1  C1  UNL     1      25.849  -0.120  53.255  1.00  0.00     0.050 C 
HETATM    2  C2  UNL     1      25.368   0.930  52.360  1.00  0.00    -0.036 A 
HETATM    3  C3  UNL     1      24.095   1.217  52.163  1.00  0.00     0.035 A 
HETATM    4  N2  UNL     1      23.923   2.315  51.236  1.00  0.00    -0.373 N 
HETATM    5  C13 UNL     1      24.938   3.018  50.488  1.00  0.00     0.197 A 
HETATM    6  C19 UNL     1      26.281   2.554  50.845  1.00  0.00     0.008 A 
HETATM    7  C20 UNL     1      26.479   1.589  51.709  1.00  0.00     0.007 A 
HETATM    8  H9  UNL     1      23.005   2.721  51.009  1.00  0.00     0.161 HD
ENDROOT
BRANCH   3   9
HETATM    9  C4  UNL     1      23.033   0.538  52.800  1.00  0.00     0.047 C 
BRANCH   9  10
HETATM   10  C5  UNL     1      21.968  -0.035  53.199  1.00  0.00     0.047 A 
HETATM   11  C6  UNL     1      21.990  -0.799  54.439  1.00  0.00     0.257 A 
HETATM   12  O1  UNL     1      22.675  -1.185  55.398  1.00  0.00    -0.267 OA
HETATM   13  N1  UNL     1      20.686  -1.325  54.638  1.00  0.00    -0.322 N 
HETATM   14  C7  UNL     1      19.868  -0.904  53.558  1.00  0.00     0.046 A 
HETATM   15  H5  UNL     1      20.190  -1.918  55.348  1.00  0.00     0.169 HD
HETATM   16  C8  UNL     1      18.555  -1.051  53.145  1.00  0.00     0.033 A 
HETATM   17  C12 UNL     1      20.590  -0.139  52.684  1.00  0.00     0.009 A 
HETATM   18  C9  UNL     1      17.933  -0.550  52.029  1.00  0.00     0.044 A 
HETATM   19  C10 UNL     1      18.715   0.212  51.190  1.00  0.00     0.117 A 
HETATM   20  F1  UNL     1      18.199   0.750  50.070  1.00  0.00    -0.206 F 
HETATM   21  C11 UNL     1      20.034   0.411  51.523  1.00  0.00     0.057 A 
ENDBRANCH   9  10
ENDBRANCH   3   9
BRANCH   5  22
HETATM   22  C14 UNL     1      24.753   4.484  50.762  1.00  0.00     0.244 C 
HETATM   23  O2  UNL     1      23.793   4.803  51.480  1.00  0.00    -0.271 OA
HETATM   24  N3  UNL     1      25.647   5.457  50.216  1.00  0.00    -0.357 N 
HETATM   25  H11 UNL     1      26.423   5.041  49.621  1.00  0.00     0.162 HD
BRANCH  24  26
HETATM   26  C15 UNL     1      25.522   6.881  50.443  1.00  0.00     0.144 C 
BRANCH  26  27
HETATM   27  C16 UNL     1      25.817   7.645  49.171  1.00  0.00     0.172 C 
BRANCH  27  28
HETATM   28  N4  UNL     1      27.172   8.165  49.200  1.00  0.00    -0.260 N 
HETATM   29  C17 UNL     1      28.190   7.647  48.494  1.00  0.00     0.135 A 
HETATM   30  C18 UNL     1      29.334   8.388  48.760  1.00  0.00     0.161 A 
HETATM   31  N5  UNL     1      28.939   9.345  49.639  1.00  0.00    -0.143 NA
HETATM   32  N6  UNL     1      27.643   9.188  49.884  1.00  0.00    -0.067 NA
ENDBRANCH  27  28
ENDBRANCH  26  27
ENDBRANCH  24  26
ENDBRANCH   5  22
TORSDOF 6
ENDMDL
