MODEL 1
REMARK VINA RESULT:      -9.6      0.000      0.000
REMARK  4 active torsions:
REMARK  status: ('A' for Active; 'I' for Inactive)
REMARK    1  A    between atoms: N1_1  and  C1_2 
REMARK    2  A    between atoms: N2_10  and  C9_11 
REMARK    3  A    between atoms: C12_14  and  O1_15 
REMARK    4  A    between atoms: O1_15  and  C13_16 
ROOT
HETATM    1  C9  UNL     1      22.478  -0.133  53.562  1.00  0.00     0.059 A 
HETATM    2  C10 UNL     1      21.796  -1.129  54.230  1.00  0.00     0.034 A 
HETATM    3  C11 UNL     1      20.422  -1.231  54.254  1.00  0.00     0.041 A 
HETATM    4  C12 UNL     1      19.677  -0.289  53.578  1.00  0.00     0.097 A 
HETATM    5  C20 UNL     1      20.273   0.741  52.884  1.00  0.00     0.070 A 
HETATM    6 CL1  UNL     1      19.355   1.938  52.026  1.00  0.00    -0.081 Cl
HETATM    7  C21 UNL     1      21.649   0.766  52.914  1.00  0.00     0.058 A 
ENDROOT
BRANCH   1   8
HETATM    8  N2  UNL     1      23.889   0.004  53.515  1.00  0.00    -0.246 N 
HETATM    9  C8  UNL     1      24.721  -0.778  54.360  1.00  0.00     0.116 A 
HETATM   10  C7  UNL     1      26.029  -0.609  54.274  1.00  0.00     0.010 A 
HETATM   11  C6  UNL     1      26.739   0.329  53.369  1.00  0.00     0.048 A 
HETATM   12  C1  UNL     1      27.659   1.248  54.132  1.00  0.00     0.239 C 
HETATM   13  C5  UNL     1      27.572  -0.467  52.359  1.00  0.00     0.048 C 
HETATM   14  C22 UNL     1      25.714   1.050  52.573  1.00  0.00     0.128 A 
HETATM   15  C2  UNL     1      29.115   0.838  53.986  1.00  0.00     0.063 C 
HETATM   16  C3  UNL     1      29.256  -0.644  54.005  1.00  0.00    -0.028 C 
HETATM   17  C4  UNL     1      28.477  -1.349  53.182  1.00  0.00    -0.029 C 
HETATM   18  N3  UNL     1      24.433   0.918  52.625  1.00  0.00    -0.183 NA
BRANCH  12  19
HETATM   19  N1  UNL     1      27.567   2.620  53.702  1.00  0.00     0.084 N 
HETATM   20  H1  UNL     1      28.313   2.920  53.066  1.00  0.00     0.313 HD
HETATM   21  H2  UNL     1      26.599   2.889  53.415  1.00  0.00     0.313 HD
ENDBRANCH  12  19
ENDBRANCH   1   8
BRANCH   4  22
HETATM   22  O1  UNL     1      18.281  -0.330  53.559  1.00  0.00    -0.313 OA
BRANCH  22  23
HETATM   23  C13 UNL     1      17.671  -1.462  53.053  1.00  0.00     0.053 C 
HETATM   24  C14 UNL     1      17.755  -2.571  53.744  1.00  0.00     0.013 C 
HETATM   25  C15 UNL     1      17.201  -3.937  53.451  1.00  0.00     0.100 C 
HETATM   26  C16 UNL     1      15.936  -3.859  52.665  1.00  0.00     0.108 C 
HETATM   27  F1  UNL     1      15.623  -5.075  52.128  1.00  0.00    -0.210 F 
HETATM   28  C17 UNL     1      15.108  -2.867  52.411  1.00  0.00     0.008 C 
HETATM   29  C18 UNL     1      15.563  -1.752  51.884  1.00  0.00    -0.005 C 
HETATM   30  C19 UNL     1      16.967  -1.287  51.741  1.00  0.00     0.092 C 
ENDBRANCH  22  23
ENDBRANCH   4  22
TORSDOF 4
ENDMDL
MODEL 2
REMARK VINA RESULT:      -9.6      6.222      9.307
REMARK  4 active torsions:
REMARK  status: ('A' for Active; 'I' for Inactive)
REMARK    1  A    between atoms: N1_1  and  C1_2 
REMARK    2  A    between atoms: N2_10  and  C9_11 
REMARK    3  A    between atoms: C12_14  and  O1_15 
REMARK    4  A    between atoms: O1_15  and  C13_16 
ROOT
HETATM    1  C9  UNL     1      25.631   3.623  50.727  1.00  0.00     0.059 A 
HETATM    2  C10 UNL     1      26.625   2.668  50.681  1.00  0.00     0.034 A 
HETATM    3  C11 UNL     1      26.540   1.444  51.308  1.00  0.00     0.041 A 
HETATM    4  C12 UNL     1      25.402   1.147  52.026  1.00  0.00     0.097 A 
HETATM    5  C20 UNL     1      24.358   2.041  52.127  1.00  0.00     0.070 A 
HETATM    6 CL1  UNL     1      22.916   1.688  53.026  1.00  0.00    -0.081 Cl
HETATM    7  C21 UNL     1      24.529   3.238  51.470  1.00  0.00     0.058 A 
ENDROOT
BRANCH   1   8
HETATM    8  N2  UNL     1      25.684   4.892  50.095  1.00  0.00    -0.246 N 
HETATM    9  C8  UNL     1      26.577   5.126  49.016  1.00  0.00     0.116 A 
HETATM   10  C7  UNL     1      26.584   6.328  48.464  1.00  0.00     0.010 A 
HETATM   11  C6  UNL     1      25.741   7.483  48.859  1.00  0.00     0.048 A 
HETATM   12  C1  UNL     1      26.576   8.699  49.172  1.00  0.00     0.239 C 
HETATM   13  C5  UNL     1      24.783   7.832  47.714  1.00  0.00     0.048 C 
HETATM   14  C22 UNL     1      24.883   7.051  49.990  1.00  0.00     0.128 A 
HETATM   15  C2  UNL     1      26.527   9.723  48.050  1.00  0.00     0.063 C 
HETATM   16  C3  UNL     1      26.540   9.055  46.720  1.00  0.00    -0.028 C 
HETATM   17  C4  UNL     1      25.657   8.077  46.511  1.00  0.00    -0.029 C 
HETATM   18  N3  UNL     1      24.844   5.893  50.558  1.00  0.00    -0.183 NA
BRANCH  12  19
HETATM   19  N1  UNL     1      26.155   9.375  50.373  1.00  0.00     0.084 N 
HETATM   20  H1  UNL     1      26.466  10.350  50.446  1.00  0.00     0.313 HD
HETATM   21  H2  UNL     1      25.149   9.208  50.599  1.00  0.00     0.313 HD
ENDBRANCH  12  19
ENDBRANCH   1   8
BRANCH   4  22
HETATM   22  O1  UNL     1      25.246  -0.073  52.688  1.00  0.00    -0.313 OA
BRANCH  22  23
HETATM   23  C13 UNL     1      26.381  -0.710  53.151  1.00  0.00     0.053 C 
HETATM   24  C14 UNL     1      26.807  -1.765  52.502  1.00  0.00     0.013 C 
HETATM   25  C15 UNL     1      27.994  -2.649  52.766  1.00  0.00     0.100 C 
HETATM   26  C16 UNL     1      29.110  -1.892  53.403  1.00  0.00     0.108 C 
HETATM   27  F1  UNL     1      30.034  -2.747  53.932  1.00  0.00    -0.210 F 
HETATM   28  C17 UNL     1      29.347  -0.604  53.537  1.00  0.00     0.008 C 
HETATM   29  C18 UNL     1      28.441   0.176  54.084  1.00  0.00    -0.005 C 
HETATM   30  C19 UNL     1      27.010  -0.108  54.371  1.00  0.00     0.092 C 
ENDBRANCH  22  23
ENDBRANCH   4  22
TORSDOF 4
ENDMDL
MODEL 3
REMARK VINA RESULT:      -9.5      3.676      4.882
REMARK  4 active torsions:
REMARK  status: ('A' for Active; 'I' for Inactive)
REMARK    1  A    between atoms: N1_1  and  C1_2 
REMARK    2  A    between atoms: N2_10  and  C9_11 
REMARK    3  A    between atoms: C12_14  and  O1_15 
REMARK    4  A    between atoms: O1_15  and  C13_16 
ROOT
HETATM    1  C9  UNL     1      23.280   1.214  52.912  1.00  0.00     0.059 A 
HETATM    2  C10 UNL     1      22.972   2.480  52.459  1.00  0.00     0.034 A 
HETATM    3  C11 UNL     1      21.685   2.927  52.252  1.00  0.00     0.041 A 
HETATM    4  C12 UNL     1      20.639   2.068  52.508  1.00  0.00     0.097 A 
HETATM    5  C20 UNL     1      20.852   0.785  52.963  1.00  0.00     0.070 A 
HETATM    6 CL1  UNL     1      19.549  -0.314  53.291  1.00  0.00    -0.081 Cl
HETATM    7  C21 UNL     1      22.167   0.423  53.141  1.00  0.00     0.058 A 
ENDROOT
BRANCH   1   8
HETATM    8  N2  UNL     1      24.591   0.720  53.136  1.00  0.00    -0.246 N 
HETATM    9  C8  UNL     1      25.712   1.340  52.524  1.00  0.00     0.116 A 
HETATM   10  C7  UNL     1      26.911   0.838  52.768  1.00  0.00     0.010 A 
HETATM   11  C6  UNL     1      27.218  -0.329  53.631  1.00  0.00     0.048 A 
HETATM   12  C1  UNL     1      28.009  -1.376  52.890  1.00  0.00     0.239 C 
HETATM   13  C5  UNL     1      28.035   0.133  54.843  1.00  0.00     0.048 C 
HETATM   14  C22 UNL     1      25.934  -0.837  54.177  1.00  0.00     0.128 A 
HETATM   15  C2  UNL     1      29.476  -1.364  53.289  1.00  0.00     0.063 C 
HETATM   16  C3  UNL     1      29.963   0.028  53.483  1.00  0.00    -0.028 C 
HETATM   17  C4  UNL     1      29.247   0.828  54.276  1.00  0.00    -0.029 C 
HETATM   18  N3  UNL     1      24.747  -0.380  53.966  1.00  0.00    -0.183 NA
BRANCH  12  19
HETATM   19  N1  UNL     1      27.525  -2.714  53.120  1.00  0.00     0.084 N 
HETATM   20  H1  UNL     1      27.223  -3.211  52.275  1.00  0.00     0.313 HD
HETATM   21  H2  UNL     1      28.138  -3.260  53.766  1.00  0.00     0.313 HD
ENDBRANCH  12  19
ENDBRANCH   1   8
BRANCH   4  22
HETATM   22  O1  UNL     1      19.308   2.452  52.321  1.00  0.00    -0.313 OA
BRANCH  22  23
HETATM   23  C13 UNL     1      18.911   2.816  51.050  1.00  0.00     0.053 C 
HETATM   24  C14 UNL     1      18.481   4.039  50.862  1.00  0.00     0.013 C 
HETATM   25  C15 UNL     1      17.991   4.711  49.610  1.00  0.00     0.100 C 
HETATM   26  C16 UNL     1      18.652   4.155  48.394  1.00  0.00     0.108 C 
HETATM   27  F1  UNL     1      17.980   4.524  47.265  1.00  0.00    -0.210 F 
HETATM   28  C17 UNL     1      19.722   3.405  48.229  1.00  0.00     0.008 C 
HETATM   29  C18 UNL     1      19.827   2.262  48.870  1.00  0.00    -0.005 C 
HETATM   30  C19 UNL     1      19.018   1.746  50.005  1.00  0.00     0.092 C 
ENDBRANCH  22  23
ENDBRANCH   4  22
TORSDOF 4
ENDMDL
MODEL 4
REMARK VINA RESULT:      -9.3      2.689      3.514
REMARK  4 active torsions:
REMARK  status: ('A' for Active; 'I' for Inactive)
REMARK    1  A    between atoms: N1_1  and  C1_2 
REMARK    2  A    between atoms: N2_10  and  C9_11 
REMARK    3  A    between atoms: C12_14  and  O1_15 
REMARK    4  A    between atoms: O1_15  and  C13_16 
ROOT
HETATM    1  C9  UNL     1      23.125   1.097  53.038  1.00  0.00     0.059 A 
HETATM    2  C10 UNL     1      21.993   0.478  53.526  1.00  0.00     0.034 A 
HETATM    3  C11 UNL     1      20.714   0.946  53.316  1.00  0.00     0.041 A 
HETATM    4  C12 UNL     1      20.545   2.097  52.579  1.00  0.00     0.097 A 
HETATM    5  C20 UNL     1      21.618   2.782  52.052  1.00  0.00     0.070 A 
HETATM    6 CL1  UNL     1      21.428   4.235  51.121  1.00  0.00    -0.081 Cl
HETATM    7  C21 UNL     1      22.858   2.244  52.311  1.00  0.00     0.058 A 
ENDROOT
BRANCH   1   8
HETATM    8  N2  UNL     1      24.456   0.645  53.235  1.00  0.00    -0.246 N 
HETATM    9  C8  UNL     1      25.547   1.324  52.632  1.00  0.00     0.116 A 
HETATM   10  C7  UNL     1      26.766   0.859  52.850  1.00  0.00     0.010 A 
HETATM   11  C6  UNL     1      27.123  -0.322  53.674  1.00  0.00     0.048 A 
HETATM   12  C1  UNL     1      27.945  -1.317  52.893  1.00  0.00     0.239 C 
HETATM   13  C5  UNL     1      27.936   0.132  54.892  1.00  0.00     0.048 C 
HETATM   14  C22 UNL     1      25.865  -0.893  54.215  1.00  0.00     0.128 A 
HETATM   15  C2  UNL     1      29.414  -1.263  53.280  1.00  0.00     0.063 C 
HETATM   16  C3  UNL     1      29.852   0.140  53.512  1.00  0.00    -0.028 C 
HETATM   17  C4  UNL     1      29.116   0.888  54.336  1.00  0.00    -0.029 C 
HETATM   18  N3  UNL     1      24.660  -0.474  54.029  1.00  0.00    -0.183 NA
BRANCH  12  19
HETATM   19  N1  UNL     1      27.512  -2.677  53.087  1.00  0.00     0.084 N 
HETATM   20  H1  UNL     1      26.547  -2.776  53.422  1.00  0.00     0.313 HD
HETATM   21  H2  UNL     1      27.776  -3.302  52.292  1.00  0.00     0.313 HD
ENDBRANCH  12  19
ENDBRANCH   1   8
BRANCH   4  22
HETATM   22  O1  UNL     1      19.279   2.630  52.325  1.00  0.00    -0.313 OA
BRANCH  22  23
HETATM   23  C13 UNL     1      18.553   2.105  51.273  1.00  0.00     0.053 C 
HETATM   24  C14 UNL     1      18.238   0.834  51.312  1.00  0.00     0.013 C 
HETATM   25  C15 UNL     1      17.467  -0.001  50.328  1.00  0.00     0.100 C 
HETATM   26  C16 UNL     1      16.448   0.808  49.601  1.00  0.00     0.108 C 
HETATM   27  F1  UNL     1      15.992   0.139  48.501  1.00  0.00    -0.210 F 
HETATM   28  C17 UNL     1      15.935   2.000  49.825  1.00  0.00     0.008 C 
HETATM   29  C18 UNL     1      16.729   3.039  49.969  1.00  0.00    -0.005 C 
HETATM   30  C19 UNL     1      18.199   3.072  50.183  1.00  0.00     0.092 C 
ENDBRANCH  22  23
ENDBRANCH   4  22
TORSDOF 4
ENDMDL
MODEL 5
REMARK VINA RESULT:      -9.2      3.277      4.172
REMARK  4 active torsions:
REMARK  status: ('A' for Active; 'I' for Inactive)
REMARK    1  A    between atoms: N1_1  and  C1_2 
REMARK    2  A    between atoms: N2_10  and  C9_11 
REMARK    3  A    between atoms: C12_14  and  O1_15 
REMARK    4  A    between atoms: O1_15  and  C13_16 
ROOT
HETATM    1  C9  UNL     1      23.522   1.627  51.971  1.00  0.00     0.059 A 
HETATM    2  C10 UNL     1      22.824   2.613  52.636  1.00  0.00     0.034 A 
HETATM    3  C11 UNL     1      21.648   3.164  52.174  1.00  0.00     0.041 A 
HETATM    4  C12 UNL     1      21.133   2.712  50.978  1.00  0.00     0.097 A 
HETATM    5  C20 UNL     1      21.763   1.730  50.245  1.00  0.00     0.070 A 
HETATM    6 CL1  UNL     1      21.132   1.147  48.737  1.00  0.00    -0.081 Cl
HETATM    7  C21 UNL     1      22.930   1.238  50.782  1.00  0.00     0.058 A 
ENDROOT
BRANCH   1   8
HETATM    8  N2  UNL     1      24.733   1.037  52.416  1.00  0.00    -0.246 N 
HETATM    9  C8  UNL     1      25.986   1.531  51.967  1.00  0.00     0.116 A 
HETATM   10  C7  UNL     1      27.083   0.944  52.415  1.00  0.00     0.010 A 
HETATM   11  C6  UNL     1      27.147  -0.200  53.358  1.00  0.00     0.048 A 
HETATM   12  C1  UNL     1      27.946  -1.345  52.788  1.00  0.00     0.239 C 
HETATM   13  C5  UNL     1      27.806   0.252  54.666  1.00  0.00     0.048 C 
HETATM   14  C22 UNL     1      25.754  -0.572  53.712  1.00  0.00     0.128 A 
HETATM   15  C2  UNL     1      29.329  -1.436  53.413  1.00  0.00     0.063 C 
HETATM   16  C3  UNL     1      29.903  -0.080  53.632  1.00  0.00    -0.028 C 
HETATM   17  C4  UNL     1      29.149   0.815  54.272  1.00  0.00    -0.029 C 
HETATM   18  N3  UNL     1      24.660  -0.029  53.299  1.00  0.00    -0.183 NA
BRANCH  12  19
HETATM   19  N1  UNL     1      27.314  -2.625  52.987  1.00  0.00     0.084 N 
HETATM   20  H1  UNL     1      27.443  -3.290  52.217  1.00  0.00     0.313 HD
HETATM   21  H2  UNL     1      27.476  -3.011  53.944  1.00  0.00     0.313 HD
ENDBRANCH  12  19
ENDBRANCH   1   8
BRANCH   4  22
HETATM   22  O1  UNL     1      19.946   3.224  50.448  1.00  0.00    -0.313 OA
BRANCH  22  23
HETATM   23  C13 UNL     1      18.766   2.942  51.108  1.00  0.00     0.053 C 
HETATM   24  C14 UNL     1      17.884   3.902  51.235  1.00  0.00     0.013 C 
HETATM   25  C15 UNL     1      16.532   3.892  51.892  1.00  0.00     0.100 C 
HETATM   26  C16 UNL     1      15.892   2.548  51.810  1.00  0.00     0.108 C 
HETATM   27  F1  UNL     1      14.840   2.458  52.676  1.00  0.00    -0.210 F 
HETATM   28  C17 UNL     1      16.153   1.483  51.081  1.00  0.00     0.008 C 
HETATM   29  C18 UNL     1      17.360   0.962  51.090  1.00  0.00    -0.005 C 
HETATM   30  C19 UNL     1      18.626   1.538  51.614  1.00  0.00     0.092 C 
ENDBRANCH  22  23
ENDBRANCH   4  22
TORSDOF 4
ENDMDL
MODEL 6
REMARK VINA RESULT:      -9.2      7.060     10.802
REMARK  4 active torsions:
REMARK  status: ('A' for Active; 'I' for Inactive)
REMARK    1  A    between atoms: N1_1  and  C1_2 
REMARK    2  A    between atoms: N2_10  and  C9_11 
REMARK    3  A    between atoms: C12_14  and  O1_15 
REMARK    4  A    between atoms: O1_15  and  C13_16 
ROOT
HETATM    1  C9  UNL     1      25.767   3.629  50.566  1.00  0.00     0.059 A 
HETATM    2  C10 UNL     1      26.822   3.699  49.682  1.00  0.00     0.034 A 
HETATM    3  C11 UNL     1      27.038   4.759  48.828  1.00  0.00     0.041 A 
HETATM    4  C12 UNL     1      26.153   5.815  48.852  1.00  0.00     0.097 A 
HETATM    5  C20 UNL     1      25.070   5.832  49.703  1.00  0.00     0.070 A 
HETATM    6 CL1  UNL     1      23.943   7.152  49.748  1.00  0.00    -0.081 Cl
HETATM    7  C21 UNL     1      24.932   4.733  50.519  1.00  0.00     0.058 A 
ENDROOT
BRANCH   1   8
HETATM    8  N2  UNL     1      25.514   2.555  51.458  1.00  0.00    -0.246 N 
HETATM    9  C8  UNL     1      24.470   2.640  52.416  1.00  0.00     0.116 A 
HETATM   10  C7  UNL     1      24.279   1.609  53.221  1.00  0.00     0.010 A 
HETATM   11  C6  UNL     1      25.055   0.344  53.232  1.00  0.00     0.048 A 
HETATM   12  C1  UNL     1      25.622   0.051  54.598  1.00  0.00     0.239 C 
HETATM   13  C5  UNL     1      24.143  -0.818  52.823  1.00  0.00     0.048 C 
HETATM   14  C22 UNL     1      26.090   0.440  52.172  1.00  0.00     0.128 A 
HETATM   15  C2  UNL     1      24.841  -1.040  55.312  1.00  0.00     0.063 C 
HETATM   16  C3  UNL     1      23.381  -0.903  55.056  1.00  0.00    -0.028 C 
HETATM   17  C4  UNL     1      22.985  -0.787  53.788  1.00  0.00    -0.029 C 
HETATM   18  N3  UNL     1      26.311   1.424  51.368  1.00  0.00    -0.183 NA
BRANCH  12  19
HETATM   19  N1  UNL     1      26.996  -0.380  54.555  1.00  0.00     0.084 N 
HETATM   20  H1  UNL     1      27.538  -0.167  55.399  1.00  0.00     0.313 HD
HETATM   21  H2  UNL     1      27.104  -1.351  54.187  1.00  0.00     0.313 HD
ENDBRANCH  12  19
ENDBRANCH   1   8
BRANCH   4  22
HETATM   22  O1  UNL     1      26.308   6.924  48.016  1.00  0.00    -0.313 OA
BRANCH  22  23
HETATM   23  C13 UNL     1      27.444   7.696  48.165  1.00  0.00     0.053 C 
HETATM   24  C14 UNL     1      27.539   8.459  49.225  1.00  0.00     0.013 C 
HETATM   25  C15 UNL     1      28.638   9.392  49.651  1.00  0.00     0.100 C 
HETATM   26  C16 UNL     1      29.971   8.921  49.177  1.00  0.00     0.108 C 
HETATM   27  F1  UNL     1      30.900   9.917  49.275  1.00  0.00    -0.210 F 
HETATM   28  C17 UNL     1      30.388   7.765  48.703  1.00  0.00     0.008 C 
HETATM   29  C18 UNL     1      29.775   7.218  47.677  1.00  0.00    -0.005 C 
HETATM   30  C19 UNL     1      28.463   7.569  47.072  1.00  0.00     0.092 C 
ENDBRANCH  22  23
ENDBRANCH   4  22
TORSDOF 4
ENDMDL
MODEL 7
REMARK VINA RESULT:      -9.2      7.310     10.268
REMARK  4 active torsions:
REMARK  status: ('A' for Active; 'I' for Inactive)
REMARK    1  A    between atoms: N1_1  and  C1_2 
REMARK    2  A    between atoms: N2_10  and  C9_11 
REMARK    3  A    between atoms: C12_14  and  O1_15 
REMARK    4  A    between atoms: O1_15  and  C13_16 
ROOT
HETATM    1  C9  UNL     1      26.088   5.071  49.350  1.00  0.00     0.059 A 
HETATM    2  C10 UNL     1      26.801   3.891  49.296  1.00  0.00     0.034 A 
HETATM    3  C11 UNL     1      26.506   2.782  50.060  1.00  0.00     0.041 A 
HETATM    4  C12 UNL     1      25.441   2.847  50.931  1.00  0.00     0.097 A 
HETATM    5  C20 UNL     1      24.673   3.984  51.052  1.00  0.00     0.070 A 
HETATM    6 CL1  UNL     1      23.327   4.087  52.144  1.00  0.00    -0.081 Cl
HETATM    7  C21 UNL     1      25.039   5.042  50.252  1.00  0.00     0.058 A 
ENDROOT
BRANCH   1   8
HETATM    8  N2  UNL     1      26.364   6.230  48.579  1.00  0.00    -0.246 N 
HETATM    9  C8  UNL     1      27.692   6.538  48.184  1.00  0.00     0.116 A 
HETATM   10  C7  UNL     1      27.890   7.631  47.467  1.00  0.00     0.010 A 
HETATM   11  C6  UNL     1      26.851   8.591  47.020  1.00  0.00     0.048 A 
HETATM   12  C1  UNL     1      27.174  10.000  47.451  1.00  0.00     0.239 C 
HETATM   13  C5  UNL     1      26.751   8.561  45.491  1.00  0.00     0.048 C 
HETATM   14  C22 UNL     1      25.542   8.106  47.523  1.00  0.00     0.128 A 
HETATM   15  C2  UNL     1      27.695  10.839  46.296  1.00  0.00     0.063 C 
HETATM   16  C3  UNL     1      28.592  10.038  45.419  1.00  0.00    -0.028 C 
HETATM   17  C4  UNL     1      28.140   8.860  44.985  1.00  0.00    -0.029 C 
HETATM   18  N3  UNL     1      25.304   7.051  48.224  1.00  0.00    -0.183 NA
BRANCH  12  19
HETATM   19  N1  UNL     1      26.035  10.696  47.993  1.00  0.00     0.084 N 
HETATM   20  H1  UNL     1      25.966  11.682  47.718  1.00  0.00     0.313 HD
HETATM   21  H2  UNL     1      25.150  10.146  47.913  1.00  0.00     0.313 HD
ENDBRANCH  12  19
ENDBRANCH   1   8
BRANCH   4  22
HETATM   22  O1  UNL     1      25.083   1.763  51.737  1.00  0.00    -0.313 OA
BRANCH  22  23
HETATM   23  C13 UNL     1      26.056   1.203  52.542  1.00  0.00     0.053 C 
HETATM   24  C14 UNL     1      26.470  -0.008  52.263  1.00  0.00     0.013 C 
HETATM   25  C15 UNL     1      27.500  -0.860  52.948  1.00  0.00     0.100 C 
HETATM   26  C16 UNL     1      28.571  -0.030  53.572  1.00  0.00     0.108 C 
HETATM   27  F1  UNL     1      29.305  -0.770  54.455  1.00  0.00    -0.210 F 
HETATM   28  C17 UNL     1      28.916   1.232  53.425  1.00  0.00     0.008 C 
HETATM   29  C18 UNL     1      28.019   2.179  53.587  1.00  0.00    -0.005 C 
HETATM   30  C19 UNL     1      26.539   2.066  53.670  1.00  0.00     0.092 C 
ENDBRANCH  22  23
ENDBRANCH   4  22
TORSDOF 4
ENDMDL
MODEL 8
REMARK VINA RESULT:      -9.2      6.408      8.342
REMARK  4 active torsions:
REMARK  status: ('A' for Active; 'I' for Inactive)
REMARK    1  A    between atoms: N1_1  and  C1_2 
REMARK    2  A    between atoms: N2_10  and  C9_11 
REMARK    3  A    between atoms: C12_14  and  O1_15 
REMARK    4  A    between atoms: O1_15  and  C13_16 
ROOT
HETATM    1  C9  UNL     1      25.641   5.053  49.595  1.00  0.00     0.059 A 
HETATM    2  C10 UNL     1      25.647   3.688  49.396  1.00  0.00     0.034 A 
HETATM    3  C11 UNL     1      24.664   2.842  49.862  1.00  0.00     0.041 A 
HETATM    4  C12 UNL     1      23.611   3.380  50.569  1.00  0.00     0.097 A 
HETATM    5  C20 UNL     1      23.522   4.732  50.817  1.00  0.00     0.070 A 
HETATM    6 CL1  UNL     1      22.205   5.431  51.706  1.00  0.00    -0.081 Cl
HETATM    7  C21 UNL     1      24.547   5.501  50.315  1.00  0.00     0.058 A 
ENDROOT
BRANCH   1   8
HETATM    8  N2  UNL     1      26.635   5.953  49.131  1.00  0.00    -0.246 N 
HETATM    9  C8  UNL     1      27.795   5.472  48.469  1.00  0.00     0.116 A 
HETATM   10  C7  UNL     1      28.688   6.356  48.058  1.00  0.00     0.010 A 
HETATM   11  C6  UNL     1      28.607   7.829  48.217  1.00  0.00     0.048 A 
HETATM   12  C1  UNL     1      29.827   8.381  48.908  1.00  0.00     0.239 C 
HETATM   13  C5  UNL     1      28.489   8.486  46.836  1.00  0.00     0.048 C 
HETATM   14  C22 UNL     1      27.338   8.138  48.923  1.00  0.00     0.128 A 
HETATM   15  C2  UNL     1      30.768   9.068  47.932  1.00  0.00     0.063 C 
HETATM   16  C3  UNL     1      30.837   8.323  46.646  1.00  0.00    -0.028 C 
HETATM   17  C4  UNL     1      29.685   8.005  46.053  1.00  0.00    -0.029 C 
HETATM   18  N3  UNL     1      26.442   7.310  49.341  1.00  0.00    -0.183 NA
BRANCH  12  19
HETATM   19  N1  UNL     1      29.506   9.347  49.928  1.00  0.00     0.084 N 
HETATM   20  H1  UNL     1      29.631  10.326  49.646  1.00  0.00     0.313 HD
HETATM   21  H2  UNL     1      28.608   9.134  50.417  1.00  0.00     0.313 HD
ENDBRANCH  12  19
ENDBRANCH   1   8
BRANCH   4  22
HETATM   22  O1  UNL     1      22.578   2.584  51.072  1.00  0.00    -0.313 OA
BRANCH  22  23
HETATM   23  C13 UNL     1      22.860   1.753  52.139  1.00  0.00     0.053 C 
HETATM   24  C14 UNL     1      22.192   0.631  52.244  1.00  0.00     0.013 C 
HETATM   25  C15 UNL     1      22.280  -0.454  53.280  1.00  0.00     0.100 C 
HETATM   26  C16 UNL     1      23.657  -0.565  53.841  1.00  0.00     0.108 C 
HETATM   27  F1  UNL     1      23.654  -1.305  54.989  1.00  0.00    -0.210 F 
HETATM   28  C17 UNL     1      24.821  -0.097  53.441  1.00  0.00     0.008 C 
HETATM   29  C18 UNL     1      24.965   1.190  53.212  1.00  0.00    -0.005 C 
HETATM   30  C19 UNL     1      23.923   2.241  53.078  1.00  0.00     0.092 C 
ENDBRANCH  22  23
ENDBRANCH   4  22
TORSDOF 4
ENDMDL
MODEL 9
REMARK VINA RESULT:      -9.0      3.202      3.952
REMARK  4 active torsions:
REMARK  status: ('A' for Active; 'I' for Inactive)
REMARK    1  A    between atoms: N1_1  and  C1_2 
REMARK    2  A    between atoms: N2_10  and  C9_11 
REMARK    3  A    between atoms: C12_14  and  O1_15 
REMARK    4  A    between atoms: O1_15  and  C13_16 
ROOT
HETATM    1  C9  UNL     1      21.099   0.404  51.772  1.00  0.00     0.059 A 
HETATM    2  C10 UNL     1      20.540   0.963  50.642  1.00  0.00     0.034 A 
HETATM    3  C11 UNL     1      19.199   0.887  50.332  1.00  0.00     0.041 A 
HETATM    4  C12 UNL     1      18.361   0.215  51.195  1.00  0.00     0.097 A 
HETATM    5  C20 UNL     1      18.831  -0.374  52.348  1.00  0.00     0.070 A 
HETATM    6 CL1  UNL     1      17.792  -1.225  53.447  1.00  0.00    -0.081 Cl
HETATM    7  C21 UNL     1      20.182  -0.249  52.576  1.00  0.00     0.058 A 
ENDROOT
BRANCH   1   8
HETATM    8  N2  UNL     1      22.473   0.463  52.122  1.00  0.00    -0.246 N 
HETATM    9  C8  UNL     1      23.015  -0.435  53.079  1.00  0.00     0.116 A 
HETATM   10  C7  UNL     1      24.302  -0.336  53.366  1.00  0.00     0.010 A 
HETATM   11  C6  UNL     1      25.262   0.635  52.783  1.00  0.00     0.048 A 
HETATM   12  C1  UNL     1      25.967   1.430  53.853  1.00  0.00     0.239 C 
HETATM   13  C5  UNL     1      26.315  -0.119  51.962  1.00  0.00     0.048 C 
HETATM   14  C22 UNL     1      24.519   1.479  51.814  1.00  0.00     0.128 A 
HETATM   15  C2  UNL     1      27.394   0.950  54.065  1.00  0.00     0.063 C 
HETATM   16  C3  UNL     1      27.476  -0.533  53.976  1.00  0.00    -0.028 C 
HETATM   17  C4  UNL     1      26.931  -1.119  52.908  1.00  0.00    -0.029 C 
HETATM   18  N3  UNL     1      23.269   1.417  51.505  1.00  0.00    -0.183 NA
BRANCH  12  19
HETATM   19  N1  UNL     1      26.040   2.836  53.550  1.00  0.00     0.084 N 
HETATM   20  H1  UNL     1      25.545   3.117  52.696  1.00  0.00     0.313 HD
HETATM   21  H2  UNL     1      25.868   3.439  54.386  1.00  0.00     0.313 HD
ENDBRANCH  12  19
ENDBRANCH   1   8
BRANCH   4  22
HETATM   22  O1  UNL     1      16.991   0.097  50.946  1.00  0.00    -0.313 OA
BRANCH  22  23
HETATM   23  C13 UNL     1      16.180   1.171  51.260  1.00  0.00     0.053 C 
HETATM   24  C14 UNL     1      15.402   1.074  52.309  1.00  0.00     0.013 C 
HETATM   25  C15 UNL     1      14.428   2.063  52.886  1.00  0.00     0.100 C 
HETATM   26  C16 UNL     1      14.860   3.468  52.635  1.00  0.00     0.108 C 
HETATM   27  F1  UNL     1      13.832   4.338  52.861  1.00  0.00    -0.210 F 
HETATM   28  C17 UNL     1      16.006   3.990  52.251  1.00  0.00     0.008 C 
HETATM   29  C18 UNL     1      16.585   3.563  51.151  1.00  0.00    -0.005 C 
HETATM   30  C19 UNL     1      16.285   2.353  50.342  1.00  0.00     0.092 C 
ENDBRANCH  22  23
ENDBRANCH   4  22
TORSDOF 4
ENDMDL
