MODEL 1
REMARK VINA RESULT:      -7.4      0.000      0.000
REMARK  5 active torsions:
REMARK  status: ('A' for Active; 'I' for Inactive)
REMARK    1  A    between atoms: O1_2  and  C2_3 
REMARK    2  A    between atoms: C4_5  and  N1_6 
REMARK    3  A    between atoms: N1_6  and  C5_7 
REMARK    4  A    between atoms: C13_18  and  O2_19 
REMARK    5  A    between atoms: C15_21  and  O3_22 
ROOT
HETATM    1  N1  UNL     1      26.403   2.180  50.817  1.00  0.00    -0.338 N 
HETATM    2  H5  UNL     1      26.398   1.314  50.229  1.00  0.00     0.167 HD
ENDROOT
BRANCH   1   3
HETATM    3  C4  UNL     1      25.992   3.468  50.376  1.00  0.00     0.068 A 
HETATM    4  C3  UNL     1      26.886   4.101  49.391  1.00  0.00     0.067 A 
HETATM    5  C2  UNL     1      26.366   5.287  49.083  1.00  0.00     0.083 A 
HETATM    6  C15 UNL     1      25.099   5.532  49.834  1.00  0.00     0.236 A 
HETATM    7  C13 UNL     1      24.979   4.283  50.627  1.00  0.00     0.107 A 
BRANCH   5   8
HETATM    8  O1  UNL     1      26.675   6.345  48.267  1.00  0.00    -0.357 OA
HETATM    9  C1  UNL     1      27.152   7.552  48.858  1.00  0.00     0.209 C 
ENDBRANCH   5   8
BRANCH   6  10
HETATM   10  O3  UNL     1      24.021   5.758  48.994  1.00  0.00    -0.377 OA
HETATM   11  C16 UNL     1      23.375   6.910  49.392  1.00  0.00     0.203 C 
ENDBRANCH   6  10
BRANCH   7  12
HETATM   12  O2  UNL     1      23.999   3.888  51.539  1.00  0.00    -0.355 OA
HETATM   13  C14 UNL     1      23.455   4.802  52.487  1.00  0.00     0.209 C 
ENDBRANCH   7  12
ENDBRANCH   1   3
BRANCH   1  14
HETATM   14  C5  UNL     1      26.885   1.843  52.118  1.00  0.00     0.142 A 
HETATM   15  N2  UNL     1      28.077   2.422  52.434  1.00  0.00    -0.224 NA
HETATM   16  C6  UNL     1      28.659   2.196  53.634  1.00  0.00     0.236 A 
HETATM   17  N3  UNL     1      28.072   1.392  54.540  1.00  0.00    -0.241 NA
HETATM   18  C7  UNL     1      26.895   0.800  54.268  1.00  0.00     0.072 A 
HETATM   19  C8  UNL     1      26.207  -0.038  55.118  1.00  0.00     0.034 A 
HETATM   20  C12 UNL     1      26.294   1.025  53.048  1.00  0.00     0.040 A 
HETATM   21  C9  UNL     1      25.005  -0.606  54.764  1.00  0.00     0.026 A 
HETATM   22  C10 UNL     1      24.425  -0.363  53.535  1.00  0.00     0.035 A 
HETATM   23 CL1  UNL     1      22.898  -1.084  53.085  1.00  0.00    -0.084 Cl
HETATM   24  C11 UNL     1      25.093   0.474  52.662  1.00  0.00     0.041 A 
ENDBRANCH   1  14
TORSDOF 5
ENDMDL
MODEL 2
REMARK VINA RESULT:      -7.3      1.073      2.476
REMARK  5 active torsions:
REMARK  status: ('A' for Active; 'I' for Inactive)
REMARK    1  A    between atoms: O1_2  and  C2_3 
REMARK    2  A    between atoms: C4_5  and  N1_6 
REMARK    3  A    between atoms: N1_6  and  C5_7 
REMARK    4  A    between atoms: C13_18  and  O2_19 
REMARK    5  A    between atoms: C15_21  and  O3_22 
ROOT
HETATM    1  N1  UNL     1      26.361   2.214  50.823  1.00  0.00    -0.338 N 
HETATM    2  H5  UNL     1      26.382   1.365  50.211  1.00  0.00     0.167 HD
ENDROOT
BRANCH   1   3
HETATM    3  C4  UNL     1      25.902   3.499  50.421  1.00  0.00     0.068 A 
HETATM    4  C3  UNL     1      24.594   3.891  50.974  1.00  0.00     0.067 A 
HETATM    5  C2  UNL     1      24.311   5.106  50.507  1.00  0.00     0.083 A 
HETATM    6  C15 UNL     1      25.398   5.608  49.617  1.00  0.00     0.236 A 
HETATM    7  C13 UNL     1      26.356   4.475  49.651  1.00  0.00     0.107 A 
BRANCH   5   8
HETATM    8  O1  UNL     1      23.295   6.020  50.620  1.00  0.00    -0.357 OA
HETATM    9  C1  UNL     1      22.136   5.669  51.373  1.00  0.00     0.209 C 
ENDBRANCH   5   8
BRANCH   6  10
HETATM   10  O3  UNL     1      25.940   6.802  50.065  1.00  0.00    -0.377 OA
HETATM   11  C16 UNL     1      25.709   7.782  49.122  1.00  0.00     0.203 C 
ENDBRANCH   6  10
BRANCH   7  12
HETATM   12  O2  UNL     1      27.590   4.321  49.016  1.00  0.00    -0.355 OA
HETATM   13  C14 UNL     1      28.248   5.423  48.395  1.00  0.00     0.209 C 
ENDBRANCH   7  12
ENDBRANCH   1   3
BRANCH   1  14
HETATM   14  C5  UNL     1      26.863   1.858  52.111  1.00  0.00     0.142 A 
HETATM   15  N2  UNL     1      28.061   2.432  52.416  1.00  0.00    -0.224 NA
HETATM   16  C6  UNL     1      28.662   2.189  53.604  1.00  0.00     0.236 A 
HETATM   17  N3  UNL     1      28.088   1.372  54.507  1.00  0.00    -0.241 NA
HETATM   18  C7  UNL     1      26.906   0.785  54.245  1.00  0.00     0.072 A 
HETATM   19  C8  UNL     1      26.232  -0.065  55.094  1.00  0.00     0.034 A 
HETATM   20  C12 UNL     1      26.286   1.027  53.039  1.00  0.00     0.040 A 
HETATM   21  C9  UNL     1      25.023  -0.627  54.752  1.00  0.00     0.026 A 
HETATM   22  C10 UNL     1      24.424  -0.366  53.536  1.00  0.00     0.035 A 
HETATM   23 CL1  UNL     1      22.889  -1.080  53.100  1.00  0.00    -0.084 Cl
HETATM   24  C11 UNL     1      25.079   0.483  52.664  1.00  0.00     0.041 A 
ENDBRANCH   1  14
TORSDOF 5
ENDMDL
MODEL 3
REMARK VINA RESULT:      -6.9      1.675      2.085
REMARK  5 active torsions:
REMARK  status: ('A' for Active; 'I' for Inactive)
REMARK    1  A    between atoms: O1_2  and  C2_3 
REMARK    2  A    between atoms: C4_5  and  N1_6 
REMARK    3  A    between atoms: N1_6  and  C5_7 
REMARK    4  A    between atoms: C13_18  and  O2_19 
REMARK    5  A    between atoms: C15_21  and  O3_22 
ROOT
HETATM    1  N1  UNL     1      24.356   1.567  51.226  1.00  0.00    -0.338 N 
HETATM    2  H5  UNL     1      23.763   0.929  50.646  1.00  0.00     0.167 HD
ENDROOT
BRANCH   1   3
HETATM    3  C4  UNL     1      24.613   2.935  50.932  1.00  0.00     0.068 A 
HETATM    4  C3  UNL     1      25.547   3.164  49.816  1.00  0.00     0.067 A 
HETATM    5  C2  UNL     1      25.679   4.481  49.669  1.00  0.00     0.083 A 
HETATM    6  C15 UNL     1      24.850   5.220  50.667  1.00  0.00     0.236 A 
HETATM    7  C13 UNL     1      24.219   4.103  51.413  1.00  0.00     0.107 A 
BRANCH   5   8
HETATM    8  O1  UNL     1      26.366   5.343  48.854  1.00  0.00    -0.357 OA
HETATM    9  C1  UNL     1      27.746   5.090  48.595  1.00  0.00     0.209 C 
ENDBRANCH   5   8
BRANCH   6  10
HETATM   10  O3  UNL     1      23.935   6.071  50.068  1.00  0.00    -0.377 OA
HETATM   11  C16 UNL     1      23.918   7.267  50.755  1.00  0.00     0.203 C 
ENDBRANCH   6  10
BRANCH   7  12
HETATM   12  O2  UNL     1      23.325   4.130  52.484  1.00  0.00    -0.355 OA
HETATM   13  C14 UNL     1      21.923   4.290  52.279  1.00  0.00     0.209 C 
ENDBRANCH   7  12
ENDBRANCH   1   3
BRANCH   1  14
HETATM   14  C5  UNL     1      24.850   0.834  52.348  1.00  0.00     0.142 A 
HETATM   15  N2  UNL     1      26.207   0.854  52.467  1.00  0.00    -0.224 NA
HETATM   16  C6  UNL     1      26.821   0.203  53.482  1.00  0.00     0.236 A 
HETATM   17  N3  UNL     1      26.102  -0.478  54.393  1.00  0.00    -0.241 NA
HETATM   18  C7  UNL     1      24.759  -0.523  54.311  1.00  0.00     0.072 A 
HETATM   19  C8  UNL     1      23.928  -1.188  55.186  1.00  0.00     0.034 A 
HETATM   20  C12 UNL     1      24.125   0.137  53.282  1.00  0.00     0.040 A 
HETATM   21  C9  UNL     1      22.560  -1.186  55.033  1.00  0.00     0.026 A 
HETATM   22  C10 UNL     1      21.952  -0.515  53.991  1.00  0.00     0.035 A 
HETATM   23 CL1  UNL     1      20.214  -0.513  53.796  1.00  0.00    -0.084 Cl
HETATM   24  C11 UNL     1      22.761   0.159  53.099  1.00  0.00     0.041 A 
ENDBRANCH   1  14
TORSDOF 5
ENDMDL
MODEL 4
REMARK VINA RESULT:      -6.8      3.250      7.062
REMARK  5 active torsions:
REMARK  status: ('A' for Active; 'I' for Inactive)
REMARK    1  A    between atoms: O1_2  and  C2_3 
REMARK    2  A    between atoms: C4_5  and  N1_6 
REMARK    3  A    between atoms: N1_6  and  C5_7 
REMARK    4  A    between atoms: C13_18  and  O2_19 
REMARK    5  A    between atoms: C15_21  and  O3_22 
ROOT
HETATM    1  N1  UNL     1      24.746   1.807  51.454  1.00  0.00    -0.338 N 
HETATM    2  H5  UNL     1      24.626   1.391  50.501  1.00  0.00     0.167 HD
ENDROOT
BRANCH   1   3
HETATM    3  C4  UNL     1      25.330   1.142  52.567  1.00  0.00     0.068 A 
HETATM    4  C3  UNL     1      24.437   0.200  53.265  1.00  0.00     0.067 A 
HETATM    5  C2  UNL     1      25.128  -0.334  54.270  1.00  0.00     0.083 A 
HETATM    6  C15 UNL     1      26.519   0.206  54.317  1.00  0.00     0.236 A 
HETATM    7  C13 UNL     1      26.510   1.144  53.166  1.00  0.00     0.107 A 
BRANCH   5   8
HETATM    8  O1  UNL     1      24.912  -1.244  55.273  1.00  0.00    -0.357 OA
HETATM    9  C1  UNL     1      23.572  -1.506  55.686  1.00  0.00     0.209 C 
ENDBRANCH   5   8
BRANCH   6  10
HETATM   10  O3  UNL     1      27.477  -0.789  54.211  1.00  0.00    -0.377 OA
HETATM   11  C16 UNL     1      27.455  -1.299  52.930  1.00  0.00     0.203 C 
ENDBRANCH   6  10
BRANCH   7  12
HETATM   12  O2  UNL     1      27.522   1.968  52.672  1.00  0.00    -0.355 OA
HETATM   13  C14 UNL     1      28.545   2.481  53.522  1.00  0.00     0.209 C 
ENDBRANCH   7  12
ENDBRANCH   1   3
BRANCH   1  14
HETATM   14  C5  UNL     1      24.230   3.139  51.438  1.00  0.00     0.142 A 
HETATM   15  N2  UNL     1      23.091   3.300  52.168  1.00  0.00    -0.224 NA
HETATM   16  C6  UNL     1      22.486   4.507  52.247  1.00  0.00     0.236 A 
HETATM   17  N3  UNL     1      22.996   5.573  51.603  1.00  0.00    -0.241 NA
HETATM   18  C7  UNL     1      24.119   5.457  50.871  1.00  0.00     0.072 A 
HETATM   19  C8  UNL     1      24.727   6.477  50.174  1.00  0.00     0.034 A 
HETATM   20  C12 UNL     1      24.743   4.231  50.785  1.00  0.00     0.040 A 
HETATM   21  C9  UNL     1      25.877   6.277  49.445  1.00  0.00     0.026 A 
HETATM   22  C10 UNL     1      26.482   5.038  49.377  1.00  0.00     0.035 A 
HETATM   23 CL1  UNL     1      27.943   4.783  48.452  1.00  0.00    -0.084 Cl
HETATM   24  C11 UNL     1      25.894   3.996  50.067  1.00  0.00     0.041 A 
ENDBRANCH   1  14
TORSDOF 5
ENDMDL
MODEL 5
REMARK VINA RESULT:      -6.8      3.601      6.696
REMARK  5 active torsions:
REMARK  status: ('A' for Active; 'I' for Inactive)
REMARK    1  A    between atoms: O1_2  and  C2_3 
REMARK    2  A    between atoms: C4_5  and  N1_6 
REMARK    3  A    between atoms: N1_6  and  C5_7 
REMARK    4  A    between atoms: C13_18  and  O2_19 
REMARK    5  A    between atoms: C15_21  and  O3_22 
ROOT
HETATM    1  N1  UNL     1      24.361   1.678  51.146  1.00  0.00    -0.338 N 
HETATM    2  H5  UNL     1      24.122   1.387  50.169  1.00  0.00     0.167 HD
ENDROOT
BRANCH   1   3
HETATM    3  C4  UNL     1      24.991   0.849  52.114  1.00  0.00     0.068 A 
HETATM    4  C3  UNL     1      26.450   0.709  51.956  1.00  0.00     0.067 A 
HETATM    5  C2  UNL     1      26.882  -0.089  52.929  1.00  0.00     0.083 A 
HETATM    6  C15 UNL     1      25.756  -0.538  53.800  1.00  0.00     0.236 A 
HETATM    7  C13 UNL     1      24.600   0.139  53.161  1.00  0.00     0.107 A 
BRANCH   5   8
HETATM    8  O1  UNL     1      28.078  -0.612  53.350  1.00  0.00    -0.357 OA
HETATM    9  C1  UNL     1      29.129   0.281  53.712  1.00  0.00     0.209 C 
ENDBRANCH   5   8
BRANCH   6  10
HETATM   10  O3  UNL     1      25.938  -0.183  55.127  1.00  0.00    -0.377 OA
HETATM   11  C16 UNL     1      25.241  -1.064  55.927  1.00  0.00     0.203 C 
ENDBRANCH   6  10
BRANCH   7  12
HETATM   12  O2  UNL     1      23.247   0.123  53.503  1.00  0.00    -0.355 OA
HETATM   13  C14 UNL     1      22.454  -1.051  53.344  1.00  0.00     0.209 C 
ENDBRANCH   7  12
ENDBRANCH   1   3
BRANCH   1  14
HETATM   14  C5  UNL     1      23.952   3.034  51.329  1.00  0.00     0.142 A 
HETATM   15  N2  UNL     1      22.839   3.176  52.102  1.00  0.00    -0.224 NA
HETATM   16  C6  UNL     1      22.331   4.403  52.364  1.00  0.00     0.236 A 
HETATM   17  N3  UNL     1      22.916   5.507  51.864  1.00  0.00    -0.241 NA
HETATM   18  C7  UNL     1      24.017   5.411  51.096  1.00  0.00     0.072 A 
HETATM   19  C8  UNL     1      24.694   6.471  50.535  1.00  0.00     0.034 A 
HETATM   20  C12 UNL     1      24.541   4.166  50.824  1.00  0.00     0.040 A 
HETATM   21  C9  UNL     1      25.816   6.288  49.758  1.00  0.00     0.026 A 
HETATM   22  C10 UNL     1      26.319   5.029  49.502  1.00  0.00     0.035 A 
HETATM   23 CL1  UNL     1      27.744   4.797  48.515  1.00  0.00    -0.084 Cl
HETATM   24  C11 UNL     1      25.660   3.947  50.052  1.00  0.00     0.041 A 
ENDBRANCH   1  14
TORSDOF 5
ENDMDL
MODEL 6
REMARK VINA RESULT:      -6.7      2.478      3.746
REMARK  5 active torsions:
REMARK  status: ('A' for Active; 'I' for Inactive)
REMARK    1  A    between atoms: O1_2  and  C2_3 
REMARK    2  A    between atoms: C4_5  and  N1_6 
REMARK    3  A    between atoms: N1_6  and  C5_7 
REMARK    4  A    between atoms: C13_18  and  O2_19 
REMARK    5  A    between atoms: C15_21  and  O3_22 
ROOT
HETATM    1  N1  UNL     1      23.199   1.705  50.866  1.00  0.00    -0.338 N 
HETATM    2  H5  UNL     1      22.816   1.050  50.145  1.00  0.00     0.167 HD
ENDROOT
BRANCH   1   3
HETATM    3  C4  UNL     1      23.282   3.118  50.723  1.00  0.00     0.068 A 
HETATM    4  C3  UNL     1      22.186   3.871  51.357  1.00  0.00     0.067 A 
HETATM    5  C2  UNL     1      22.410   5.165  51.135  1.00  0.00     0.083 A 
HETATM    6  C15 UNL     1      23.660   5.368  50.344  1.00  0.00     0.236 A 
HETATM    7  C13 UNL     1      24.117   3.970  50.149  1.00  0.00     0.107 A 
BRANCH   5   8
HETATM    8  O1  UNL     1      21.808   6.360  51.433  1.00  0.00    -0.357 OA
HETATM    9  C1  UNL     1      21.264   7.139  50.370  1.00  0.00     0.209 C 
ENDBRANCH   5   8
BRANCH   6  10
HETATM   10  O3  UNL     1      24.582   6.163  51.006  1.00  0.00    -0.377 OA
HETATM   11  C16 UNL     1      25.219   6.971  50.088  1.00  0.00     0.203 C 
ENDBRANCH   6  10
BRANCH   7  12
HETATM   12  O2  UNL     1      25.239   3.476  49.482  1.00  0.00    -0.355 OA
HETATM   13  C14 UNL     1      26.499   3.352  50.137  1.00  0.00     0.209 C 
ENDBRANCH   7  12
ENDBRANCH   1   3
BRANCH   1  14
HETATM   14  C5  UNL     1      23.613   0.941  51.999  1.00  0.00     0.142 A 
HETATM   15  N2  UNL     1      24.954   0.985  52.236  1.00  0.00    -0.224 NA
HETATM   16  C6  UNL     1      25.494   0.310  53.276  1.00  0.00     0.236 A 
HETATM   17  N3  UNL     1      24.717  -0.419  54.098  1.00  0.00    -0.241 NA
HETATM   18  C7  UNL     1      23.388  -0.490  53.899  1.00  0.00     0.072 A 
HETATM   19  C8  UNL     1      22.501  -1.204  54.674  1.00  0.00     0.034 A 
HETATM   20  C12 UNL     1      22.828   0.195  52.842  1.00  0.00     0.040 A 
HETATM   21  C9  UNL     1      21.152  -1.225  54.404  1.00  0.00     0.026 A 
HETATM   22  C10 UNL     1      20.618  -0.529  53.338  1.00  0.00     0.035 A 
HETATM   23 CL1  UNL     1      18.904  -0.556  52.994  1.00  0.00    -0.084 Cl
HETATM   24  C11 UNL     1      21.484   0.195  52.543  1.00  0.00     0.041 A 
ENDBRANCH   1  14
TORSDOF 5
ENDMDL
MODEL 7
REMARK VINA RESULT:      -6.7      1.739      2.116
REMARK  5 active torsions:
REMARK  status: ('A' for Active; 'I' for Inactive)
REMARK    1  A    between atoms: O1_2  and  C2_3 
REMARK    2  A    between atoms: C4_5  and  N1_6 
REMARK    3  A    between atoms: N1_6  and  C5_7 
REMARK    4  A    between atoms: C13_18  and  O2_19 
REMARK    5  A    between atoms: C15_21  and  O3_22 
ROOT
HETATM    1  N1  UNL     1      26.057   3.182  49.773  1.00  0.00    -0.338 N 
HETATM    2  H5  UNL     1      25.855   2.464  49.038  1.00  0.00     0.167 HD
ENDROOT
BRANCH   1   3
HETATM    3  C4  UNL     1      26.236   4.572  49.528  1.00  0.00     0.068 A 
HETATM    4  C3  UNL     1      27.371   4.905  48.649  1.00  0.00     0.067 A 
HETATM    5  C2  UNL     1      27.400   6.230  48.521  1.00  0.00     0.083 A 
HETATM    6  C15 UNL     1      26.299   6.872  49.297  1.00  0.00     0.236 A 
HETATM    7  C13 UNL     1      25.630   5.689  49.895  1.00  0.00     0.107 A 
BRANCH   5   8
HETATM    8  O1  UNL     1      28.164   7.165  47.872  1.00  0.00    -0.357 OA
HETATM    9  C1  UNL     1      28.990   8.035  48.645  1.00  0.00     0.209 C 
ENDBRANCH   5   8
BRANCH   6  10
HETATM   10  O3  UNL     1      25.462   7.635  48.498  1.00  0.00    -0.377 OA
HETATM   11  C16 UNL     1      25.126   8.789  49.173  1.00  0.00     0.203 C 
ENDBRANCH   6  10
BRANCH   7  12
HETATM   12  O2  UNL     1      24.519   5.615  50.736  1.00  0.00    -0.355 OA
HETATM   13  C14 UNL     1      23.208   5.400  50.219  1.00  0.00     0.209 C 
ENDBRANCH   7  12
ENDBRANCH   1   3
BRANCH   1  14
HETATM   14  C5  UNL     1      26.117   2.530  51.041  1.00  0.00     0.142 A 
HETATM   15  N2  UNL     1      27.332   2.617  51.651  1.00  0.00    -0.224 NA
HETATM   16  C6  UNL     1      27.541   2.047  52.860  1.00  0.00     0.236 A 
HETATM   17  N3  UNL     1      26.552   1.381  53.483  1.00  0.00    -0.241 NA
HETATM   18  C7  UNL     1      25.337   1.271  52.916  1.00  0.00     0.072 A 
HETATM   19  C8  UNL     1      24.257   0.615  53.463  1.00  0.00     0.034 A 
HETATM   20  C12 UNL     1      25.114   1.849  51.685  1.00  0.00     0.040 A 
HETATM   21  C9  UNL     1      23.043   0.547  52.817  1.00  0.00     0.026 A 
HETATM   22  C10 UNL     1      22.848   1.136  51.584  1.00  0.00     0.035 A 
HETATM   23 CL1  UNL     1      21.307   1.049  50.762  1.00  0.00    -0.084 Cl
HETATM   24  C11 UNL     1      23.915   1.800  51.011  1.00  0.00     0.041 A 
ENDBRANCH   1  14
TORSDOF 5
ENDMDL
MODEL 8
REMARK VINA RESULT:      -6.5      3.823      5.547
REMARK  5 active torsions:
REMARK  status: ('A' for Active; 'I' for Inactive)
REMARK    1  A    between atoms: O1_2  and  C2_3 
REMARK    2  A    between atoms: C4_5  and  N1_6 
REMARK    3  A    between atoms: N1_6  and  C5_7 
REMARK    4  A    between atoms: C13_18  and  O2_19 
REMARK    5  A    between atoms: C15_21  and  O3_22 
ROOT
HETATM    1  N1  UNL     1      21.730   0.189  51.657  1.00  0.00    -0.338 N 
HETATM    2  H5  UNL     1      21.852  -0.531  50.907  1.00  0.00     0.167 HD
ENDROOT
BRANCH   1   3
HETATM    3  C4  UNL     1      21.202   1.494  51.456  1.00  0.00     0.068 A 
HETATM    4  C3  UNL     1      19.876   1.726  52.054  1.00  0.00     0.067 A 
HETATM    5  C2  UNL     1      19.528   2.982  51.779  1.00  0.00     0.083 A 
HETATM    6  C15 UNL     1      20.586   3.674  50.985  1.00  0.00     0.236 A 
HETATM    7  C13 UNL     1      21.603   2.601  50.850  1.00  0.00     0.107 A 
BRANCH   5   8
HETATM    8  O1  UNL     1      18.465   3.812  52.026  1.00  0.00    -0.357 OA
HETATM    9  C1  UNL     1      17.392   3.852  51.087  1.00  0.00     0.209 C 
ENDBRANCH   5   8
BRANCH   6  10
HETATM   10  O3  UNL     1      21.064   4.811  51.618  1.00  0.00    -0.377 OA
HETATM   11  C16 UNL     1      21.229   5.809  50.681  1.00  0.00     0.203 C 
ENDBRANCH   6  10
BRANCH   7  12
HETATM   12  O2  UNL     1      22.842   2.614  50.208  1.00  0.00    -0.355 OA
HETATM   13  C14 UNL     1      22.955   2.896  48.815  1.00  0.00     0.209 C 
ENDBRANCH   7  12
ENDBRANCH   1   3
BRANCH   1  14
HETATM   14  C5  UNL     1      22.177  -0.364  52.895  1.00  0.00     0.142 A 
HETATM   15  N2  UNL     1      21.193  -0.968  53.619  1.00  0.00    -0.224 NA
HETATM   16  C6  UNL     1      21.466  -1.538  54.815  1.00  0.00     0.236 A 
HETATM   17  N3  UNL     1      22.715  -1.519  55.314  1.00  0.00    -0.241 NA
HETATM   18  C7  UNL     1      23.716  -0.933  54.631  1.00  0.00     0.072 A 
HETATM   19  C8  UNL     1      25.027  -0.855  55.046  1.00  0.00     0.034 A 
HETATM   20  C12 UNL     1      23.448  -0.350  53.412  1.00  0.00     0.040 A 
HETATM   21  C9  UNL     1      25.995  -0.237  54.288  1.00  0.00     0.026 A 
HETATM   22  C10 UNL     1      25.698   0.339  53.069  1.00  0.00     0.035 A 
HETATM   23 CL1  UNL     1      26.927   1.125  52.105  1.00  0.00    -0.084 Cl
HETATM   24  C11 UNL     1      24.391   0.277  52.628  1.00  0.00     0.041 A 
ENDBRANCH   1  14
TORSDOF 5
ENDMDL
MODEL 9
REMARK VINA RESULT:      -6.4      1.836      3.089
REMARK  5 active torsions:
REMARK  status: ('A' for Active; 'I' for Inactive)
REMARK    1  A    between atoms: O1_2  and  C2_3 
REMARK    2  A    between atoms: C4_5  and  N1_6 
REMARK    3  A    between atoms: N1_6  and  C5_7 
REMARK    4  A    between atoms: C13_18  and  O2_19 
REMARK    5  A    between atoms: C15_21  and  O3_22 
ROOT
HETATM    1  N1  UNL     1      26.459   2.957  49.873  1.00  0.00    -0.338 N 
HETATM    2  H5  UNL     1      26.596   2.160  49.209  1.00  0.00     0.167 HD
ENDROOT
BRANCH   1   3
HETATM    3  C4  UNL     1      26.370   4.326  49.498  1.00  0.00     0.068 A 
HETATM    4  C3  UNL     1      25.134   5.007  49.923  1.00  0.00     0.067 A 
HETATM    5  C2  UNL     1      25.207   6.267  49.499  1.00  0.00     0.083 A 
HETATM    6  C15 UNL     1      26.483   6.518  48.768  1.00  0.00     0.236 A 
HETATM    7  C13 UNL     1      27.134   5.186  48.843  1.00  0.00     0.107 A 
BRANCH   5   8
HETATM    8  O1  UNL     1      24.431   7.396  49.551  1.00  0.00    -0.357 OA
HETATM    9  C1  UNL     1      23.700   7.674  50.744  1.00  0.00     0.209 C 
ENDBRANCH   5   8
BRANCH   6  10
HETATM   10  O3  UNL     1      27.233   7.531  49.344  1.00  0.00    -0.377 OA
HETATM   11  C16 UNL     1      27.390   8.550  48.427  1.00  0.00     0.203 C 
ENDBRANCH   6  10
BRANCH   7  12
HETATM   12  O2  UNL     1      28.365   4.757  48.343  1.00  0.00    -0.355 OA
HETATM   13  C14 UNL     1      29.484   5.637  48.272  1.00  0.00     0.209 C 
ENDBRANCH   7  12
ENDBRANCH   1   3
BRANCH   1  14
HETATM   14  C5  UNL     1      26.375   2.434  51.199  1.00  0.00     0.142 A 
HETATM   15  N2  UNL     1      27.527   2.556  51.916  1.00  0.00    -0.224 NA
HETATM   16  C6  UNL     1      27.600   2.105  53.189  1.00  0.00     0.236 A 
HETATM   17  N3  UNL     1      26.535   1.526  53.773  1.00  0.00    -0.241 NA
HETATM   18  C7  UNL     1      25.378   1.385  53.100  1.00  0.00     0.072 A 
HETATM   19  C8  UNL     1      24.230   0.810  53.598  1.00  0.00     0.034 A 
HETATM   20  C12 UNL     1      25.294   1.842  51.803  1.00  0.00     0.040 A 
HETATM   21  C9  UNL     1      23.083   0.704  52.844  1.00  0.00     0.026 A 
HETATM   22  C10 UNL     1      23.027   1.170  51.546  1.00  0.00     0.035 A 
HETATM   23 CL1  UNL     1      21.572   1.035  50.587  1.00  0.00    -0.084 Cl
HETATM   24  C11 UNL     1      24.165   1.752  51.021  1.00  0.00     0.041 A 
ENDBRANCH   1  14
TORSDOF 5
ENDMDL
