MODEL 1
REMARK VINA RESULT:      -8.8      0.000      0.000
REMARK  6 active torsions:
REMARK  status: ('A' for Active; 'I' for Inactive)
REMARK       I    between atoms: C1_2  and  N1_3 
REMARK    1  A    between atoms: C1_2  and  C9_14 
REMARK    2  A    between atoms: N1_3  and  C2_4 
REMARK    3  A    between atoms: C6_8  and  C7_9 
REMARK    4  A    between atoms: S1_19  and  N2_20 
REMARK    5  A    between atoms: N2_20  and  C14_21 
REMARK    6  A    between atoms: C14_21  and  C15_22 
ROOT
HETATM    1  C9  UNL     1      24.632   4.623  49.865  1.00  0.00     0.076 A 
HETATM    2  C10 UNL     1      24.213   5.692  49.215  1.00  0.00     0.025 A 
HETATM    3  C11 UNL     1      25.126   6.525  48.445  1.00  0.00     0.002 A 
HETATM    4  C12 UNL     1      26.417   6.386  48.265  1.00  0.00     0.007 A 
HETATM    5  C13 UNL     1      27.240   5.328  48.822  1.00  0.00     0.055 A 
HETATM    6  S1  UNL     1      26.390   4.251  49.747  1.00  0.00    -0.087 SA
ENDROOT
BRANCH   1   7
HETATM    7  C1  UNL     1      23.685   3.818  50.622  1.00  0.00     0.263 C 
HETATM    8  O1  UNL     1      23.029   2.951  50.007  1.00  0.00    -0.267 OA
HETATM    9  N1  UNL     1      23.424   3.919  52.014  1.00  0.00    -0.322 N 
HETATM   10  H1  UNL     1      23.959   4.634  52.551  1.00  0.00     0.169 HD
BRANCH   9  11
HETATM   11  C2  UNL     1      22.421   2.945  52.368  1.00  0.00     0.035 A 
HETATM   12  C3  UNL     1      21.053   3.093  52.248  1.00  0.00     0.029 A 
HETATM   13  C4  UNL     1      20.245   2.033  52.646  1.00  0.00     0.003 A 
HETATM   14  C5  UNL     1      20.805   0.869  53.143  1.00  0.00     0.016 A 
HETATM   15  C6  UNL     1      22.170   0.723  53.261  1.00  0.00     0.050 A 
HETATM   16  C8  UNL     1      22.978   1.782  52.865  1.00  0.00     0.045 A 
BRANCH  15  17
HETATM   17  C7  UNL     1      22.725  -0.536  53.796  1.00  0.00     0.417 C 
HETATM   18  F1  UNL     1      22.079  -0.823  54.994  1.00  0.00    -0.166 F 
HETATM   19  F2  UNL     1      22.460  -1.568  52.929  1.00  0.00    -0.166 F 
HETATM   20  F3  UNL     1      24.062  -0.407  54.108  1.00  0.00    -0.166 F 
ENDBRANCH  15  17
ENDBRANCH   9  11
ENDBRANCH   1   7
BRANCH   6  21
HETATM   21  N2  UNL     1      27.133   3.200  50.964  1.00  0.00    -0.265 NA
HETATM   22  H10 UNL     1      28.083   2.952  50.581  1.00  0.00     0.135 HD
BRANCH  21  23
HETATM   23  C14 UNL     1      26.399   1.976  51.174  1.00  0.00     0.137 C 
BRANCH  23  24
HETATM   24  C15 UNL     1      27.015   1.148  52.220  1.00  0.00    -0.042 A 
HETATM   25  C16 UNL     1      26.751  -0.219  52.128  1.00  0.00     0.027 A 
HETATM   26  C17 UNL     1      27.314  -1.041  53.098  1.00  0.00     0.116 A 
HETATM   27  N3  UNL     1      28.081  -0.571  54.089  1.00  0.00    -0.273 NA
HETATM   28  C18 UNL     1      28.356   0.749  54.205  1.00  0.00     0.116 A 
HETATM   29  C19 UNL     1      27.810   1.588  53.257  1.00  0.00     0.027 A 
ENDBRANCH  23  24
ENDBRANCH  21  23
ENDBRANCH   6  21
TORSDOF 6
ENDMDL
MODEL 2
REMARK VINA RESULT:      -8.6      2.950      5.842
REMARK  6 active torsions:
REMARK  status: ('A' for Active; 'I' for Inactive)
REMARK       I    between atoms: C1_2  and  N1_3 
REMARK    1  A    between atoms: C1_2  and  C9_14 
REMARK    2  A    between atoms: N1_3  and  C2_4 
REMARK    3  A    between atoms: C6_8  and  C7_9 
REMARK    4  A    between atoms: S1_19  and  N2_20 
REMARK    5  A    between atoms: N2_20  and  C14_21 
REMARK    6  A    between atoms: C14_21  and  C15_22 
ROOT
HETATM    1  C9  UNL     1      27.319   1.804  52.704  1.00  0.00     0.076 A 
HETATM    2  C10 UNL     1      28.337   2.467  53.221  1.00  0.00     0.025 A 
HETATM    3  C11 UNL     1      29.255   1.845  54.163  1.00  0.00     0.002 A 
HETATM    4  C12 UNL     1      29.249   0.622  54.636  1.00  0.00     0.007 A 
HETATM    5  C13 UNL     1      28.284  -0.410  54.304  1.00  0.00     0.055 A 
HETATM    6  S1  UNL     1      27.130   0.092  53.229  1.00  0.00    -0.087 SA
ENDROOT
BRANCH   1   7
HETATM    7  C1  UNL     1      26.426   2.465  51.765  1.00  0.00     0.263 C 
HETATM    8  O1  UNL     1      26.787   2.548  50.572  1.00  0.00    -0.267 OA
HETATM    9  N1  UNL     1      25.163   3.036  52.070  1.00  0.00    -0.322 N 
HETATM   10  H1  UNL     1      24.837   2.980  53.058  1.00  0.00     0.169 HD
BRANCH   9  11
HETATM   11  C2  UNL     1      24.602   3.589  50.862  1.00  0.00     0.035 A 
HETATM   12  C3  UNL     1      24.821   4.856  50.358  1.00  0.00     0.029 A 
HETATM   13  C4  UNL     1      24.185   5.205  49.171  1.00  0.00     0.003 A 
HETATM   14  C5  UNL     1      23.362   4.303  48.521  1.00  0.00     0.016 A 
HETATM   15  C6  UNL     1      23.145   3.038  49.024  1.00  0.00     0.050 A 
HETATM   16  C8  UNL     1      23.779   2.689  50.211  1.00  0.00     0.045 A 
BRANCH  15  17
HETATM   17  C7  UNL     1      22.259   2.106  48.299  1.00  0.00     0.417 C 
HETATM   18  F1  UNL     1      21.090   2.783  47.970  1.00  0.00    -0.166 F 
HETATM   19  F2  UNL     1      22.854   1.719  47.123  1.00  0.00    -0.166 F 
HETATM   20  F3  UNL     1      21.874   1.050  49.097  1.00  0.00    -0.166 F 
ENDBRANCH  15  17
ENDBRANCH   9  11
ENDBRANCH   1   7
BRANCH   6  21
HETATM   21  N2  UNL     1      25.558  -0.702  53.034  1.00  0.00    -0.265 NA
HETATM   22  H10 UNL     1      25.088  -0.204  52.233  1.00  0.00     0.135 HD
BRANCH  21  23
HETATM   23  C14 UNL     1      24.716  -0.575  54.199  1.00  0.00     0.137 C 
BRANCH  23  24
HETATM   24  C15 UNL     1      23.295  -0.511  53.834  1.00  0.00    -0.042 A 
HETATM   25  C16 UNL     1      22.438  -1.257  54.645  1.00  0.00     0.027 A 
HETATM   26  C17 UNL     1      21.083  -1.227  54.336  1.00  0.00     0.116 A 
HETATM   27  N3  UNL     1      20.591  -0.521  53.312  1.00  0.00    -0.273 NA
HETATM   28  C18 UNL     1      21.394   0.213  52.507  1.00  0.00     0.116 A 
HETATM   29  C19 UNL     1      22.743   0.201  52.790  1.00  0.00     0.027 A 
ENDBRANCH  23  24
ENDBRANCH  21  23
ENDBRANCH   6  21
TORSDOF 6
ENDMDL
MODEL 3
REMARK VINA RESULT:      -8.5      2.289      5.047
REMARK  6 active torsions:
REMARK  status: ('A' for Active; 'I' for Inactive)
REMARK       I    between atoms: C1_2  and  N1_3 
REMARK    1  A    between atoms: C1_2  and  C9_14 
REMARK    2  A    between atoms: N1_3  and  C2_4 
REMARK    3  A    between atoms: C6_8  and  C7_9 
REMARK    4  A    between atoms: S1_19  and  N2_20 
REMARK    5  A    between atoms: N2_20  and  C14_21 
REMARK    6  A    between atoms: C14_21  and  C15_22 
ROOT
HETATM    1  C9  UNL     1      25.121   3.850  50.618  1.00  0.00     0.076 A 
HETATM    2  C10 UNL     1      25.497   4.437  49.497  1.00  0.00     0.025 A 
HETATM    3  C11 UNL     1      24.614   5.339  48.774  1.00  0.00     0.002 A 
HETATM    4  C12 UNL     1      23.391   5.710  49.068  1.00  0.00     0.007 A 
HETATM    5  C13 UNL     1      22.631   5.276  50.226  1.00  0.00     0.055 A 
HETATM    6  S1  UNL     1      23.460   4.227  51.201  1.00  0.00    -0.087 SA
ENDROOT
BRANCH   1   7
HETATM    7  C1  UNL     1      26.036   2.954  51.308  1.00  0.00     0.263 C 
HETATM    8  O1  UNL     1      26.954   2.428  50.643  1.00  0.00    -0.267 OA
HETATM    9  N1  UNL     1      25.994   2.610  52.685  1.00  0.00    -0.322 N 
HETATM   10  H1  UNL     1      25.239   3.036  53.263  1.00  0.00     0.169 HD
BRANCH   9  11
HETATM   11  C2  UNL     1      27.075   1.698  52.966  1.00  0.00     0.035 A 
HETATM   12  C3  UNL     1      28.334   2.031  53.425  1.00  0.00     0.029 A 
HETATM   13  C4  UNL     1      29.245   1.001  53.637  1.00  0.00     0.003 A 
HETATM   14  C5  UNL     1      28.890  -0.314  53.394  1.00  0.00     0.016 A 
HETATM   15  C6  UNL     1      27.633  -0.645  52.936  1.00  0.00     0.050 A 
HETATM   16  C8  UNL     1      26.723   0.383  52.723  1.00  0.00     0.045 A 
BRANCH  15  17
HETATM   17  C7  UNL     1      27.297  -2.061  52.690  1.00  0.00     0.417 C 
HETATM   18  F1  UNL     1      26.341  -2.451  53.621  1.00  0.00    -0.166 F 
HETATM   19  F2  UNL     1      26.735  -2.195  51.443  1.00  0.00    -0.166 F 
HETATM   20  F3  UNL     1      28.385  -2.883  52.896  1.00  0.00    -0.166 F 
ENDBRANCH  15  17
ENDBRANCH   9  11
ENDBRANCH   1   7
BRANCH   6  21
HETATM   21  N2  UNL     1      22.679   3.129  52.350  1.00  0.00    -0.265 NA
HETATM   22  H10 UNL     1      23.320   3.092  53.186  1.00  0.00     0.135 HD
BRANCH  21  23
HETATM   23  C14 UNL     1      22.532   1.788  51.836  1.00  0.00     0.137 C 
BRANCH  23  24
HETATM   24  C15 UNL     1      22.344   0.812  52.917  1.00  0.00    -0.042 A 
HETATM   25  C16 UNL     1      21.070   0.795  53.488  1.00  0.00     0.027 A 
HETATM   26  C17 UNL     1      20.847  -0.114  54.517  1.00  0.00     0.116 A 
HETATM   27  N3  UNL     1      21.792  -0.949  54.962  1.00  0.00    -0.273 NA
HETATM   28  C18 UNL     1      23.036  -0.958  54.430  1.00  0.00     0.116 A 
HETATM   29  C19 UNL     1      23.286  -0.067  53.408  1.00  0.00     0.027 A 
ENDBRANCH  23  24
ENDBRANCH  21  23
ENDBRANCH   6  21
TORSDOF 6
ENDMDL
MODEL 4
REMARK VINA RESULT:      -8.3      3.851      6.383
REMARK  6 active torsions:
REMARK  status: ('A' for Active; 'I' for Inactive)
REMARK       I    between atoms: C1_2  and  N1_3 
REMARK    1  A    between atoms: C1_2  and  C9_14 
REMARK    2  A    between atoms: N1_3  and  C2_4 
REMARK    3  A    between atoms: C6_8  and  C7_9 
REMARK    4  A    between atoms: S1_19  and  N2_20 
REMARK    5  A    between atoms: N2_20  and  C14_21 
REMARK    6  A    between atoms: C14_21  and  C15_22 
ROOT
HETATM    1  C9  UNL     1      23.521   2.637  50.903  1.00  0.00     0.076 A 
HETATM    2  C10 UNL     1      22.521   1.962  50.367  1.00  0.00     0.025 A 
HETATM    3  C11 UNL     1      21.913   0.828  51.047  1.00  0.00     0.002 A 
HETATM    4  C12 UNL     1      22.212   0.307  52.213  1.00  0.00     0.007 A 
HETATM    5  C13 UNL     1      23.258   0.773  53.105  1.00  0.00     0.055 A 
HETATM    6  S1  UNL     1      24.089   2.078  52.517  1.00  0.00    -0.087 SA
ENDROOT
BRANCH   1   7
HETATM    7  C1  UNL     1      24.099   3.765  50.188  1.00  0.00     0.263 C 
HETATM    8  O1  UNL     1      23.843   3.879  48.970  1.00  0.00    -0.267 OA
HETATM    9  N1  UNL     1      24.939   4.766  50.741  1.00  0.00    -0.322 N 
HETATM   10  H1  UNL     1      25.167   4.695  51.755  1.00  0.00     0.169 HD
BRANCH   9  11
HETATM   11  C2  UNL     1      25.294   5.698  49.699  1.00  0.00     0.035 A 
HETATM   12  C3  UNL     1      24.452   6.605  49.085  1.00  0.00     0.029 A 
HETATM   13  C4  UNL     1      24.985   7.424  48.095  1.00  0.00     0.003 A 
HETATM   14  C5  UNL     1      26.320   7.326  47.743  1.00  0.00     0.016 A 
HETATM   15  C6  UNL     1      27.159   6.420  48.357  1.00  0.00     0.050 A 
HETATM   16  C8  UNL     1      26.627   5.601  49.345  1.00  0.00     0.045 A 
BRANCH  15  17
HETATM   17  C7  UNL     1      28.576   6.348  47.950  1.00  0.00     0.417 C 
HETATM   18  F1  UNL     1      29.331   7.069  48.869  1.00  0.00    -0.166 F 
HETATM   19  F2  UNL     1      29.008   5.045  47.997  1.00  0.00    -0.166 F 
HETATM   20  F3  UNL     1      28.784   6.956  46.730  1.00  0.00    -0.166 F 
ENDBRANCH  15  17
ENDBRANCH   9  11
ENDBRANCH   1   7
BRANCH   6  21
HETATM   21  N2  UNL     1      25.708   2.541  53.070  1.00  0.00    -0.265 NA
HETATM   22  H10 UNL     1      25.719   3.595  53.059  1.00  0.00     0.135 HD
BRANCH  21  23
HETATM   23  C14 UNL     1      26.756   2.071  52.197  1.00  0.00     0.137 C 
BRANCH  23  24
HETATM   24  C15 UNL     1      27.364   0.832  52.701  1.00  0.00    -0.042 A 
HETATM   25  C16 UNL     1      26.729  -0.346  52.305  1.00  0.00     0.027 A 
HETATM   26  C17 UNL     1      27.270  -1.544  52.760  1.00  0.00     0.116 A 
HETATM   27  N3  UNL     1      28.353  -1.596  53.545  1.00  0.00    -0.273 NA
HETATM   28  C18 UNL     1      28.991  -0.473  53.946  1.00  0.00     0.116 A 
HETATM   29  C19 UNL     1      28.477   0.729  53.510  1.00  0.00     0.027 A 
ENDBRANCH  23  24
ENDBRANCH  21  23
ENDBRANCH   6  21
TORSDOF 6
ENDMDL
MODEL 5
REMARK VINA RESULT:      -8.2      2.283      4.684
REMARK  6 active torsions:
REMARK  status: ('A' for Active; 'I' for Inactive)
REMARK       I    between atoms: C1_2  and  N1_3 
REMARK    1  A    between atoms: C1_2  and  C9_14 
REMARK    2  A    between atoms: N1_3  and  C2_4 
REMARK    3  A    between atoms: C6_8  and  C7_9 
REMARK    4  A    between atoms: S1_19  and  N2_20 
REMARK    5  A    between atoms: N2_20  and  C14_21 
REMARK    6  A    between atoms: C14_21  and  C15_22 
ROOT
HETATM    1  C9  UNL     1      25.354   3.135  51.118  1.00  0.00     0.076 A 
HETATM    2  C10 UNL     1      26.390   2.922  50.328  1.00  0.00     0.025 A 
HETATM    3  C11 UNL     1      26.819   3.909  49.349  1.00  0.00     0.002 A 
HETATM    4  C12 UNL     1      26.309   5.089  49.087  1.00  0.00     0.007 A 
HETATM    5  C13 UNL     1      25.160   5.679  49.748  1.00  0.00     0.055 A 
HETATM    6  S1  UNL     1      24.504   4.709  50.918  1.00  0.00    -0.087 SA
ENDROOT
BRANCH   1   7
HETATM    7  C1  UNL     1      24.959   2.119  52.083  1.00  0.00     0.263 C 
HETATM    8  O1  UNL     1      24.407   2.498  53.138  1.00  0.00    -0.267 OA
HETATM    9  N1  UNL     1      25.140   0.718  51.947  1.00  0.00    -0.322 N 
HETATM   10  H1  UNL     1      25.597   0.376  51.076  1.00  0.00     0.169 HD
BRANCH   9  11
HETATM   11  C2  UNL     1      24.611   0.069  53.122  1.00  0.00     0.035 A 
HETATM   12  C3  UNL     1      25.341  -0.445  54.176  1.00  0.00     0.029 A 
HETATM   13  C4  UNL     1      24.644  -1.037  55.224  1.00  0.00     0.003 A 
HETATM   14  C5  UNL     1      23.263  -1.104  55.203  1.00  0.00     0.016 A 
HETATM   15  C6  UNL     1      22.536  -0.591  54.150  1.00  0.00     0.050 A 
HETATM   16  C8  UNL     1      23.230   0.000  53.102  1.00  0.00     0.045 A 
BRANCH  15  17
HETATM   17  C7  UNL     1      21.062  -0.684  54.167  1.00  0.00     0.417 C 
HETATM   18  F1  UNL     1      20.603  -0.567  52.860  1.00  0.00    -0.166 F 
HETATM   19  F2  UNL     1      20.680  -1.919  54.629  1.00  0.00    -0.166 F 
HETATM   20  F3  UNL     1      20.498   0.365  54.863  1.00  0.00    -0.166 F 
ENDBRANCH  15  17
ENDBRANCH   9  11
ENDBRANCH   1   7
BRANCH   6  21
HETATM   21  N2  UNL     1      22.845   4.876  51.516  1.00  0.00    -0.265 NA
HETATM   22  H10 UNL     1      22.700   4.067  52.175  1.00  0.00     0.135 HD
BRANCH  21  23
HETATM   23  C14 UNL     1      21.857   4.787  50.468  1.00  0.00     0.137 C 
BRANCH  23  24
HETATM   24  C15 UNL     1      21.803   3.437  49.891  1.00  0.00    -0.042 A 
HETATM   25  C16 UNL     1      22.043   3.367  48.518  1.00  0.00     0.027 A 
HETATM   26  C17 UNL     1      22.001   2.109  47.928  1.00  0.00     0.116 A 
HETATM   27  N3  UNL     1      21.743   0.994  48.622  1.00  0.00    -0.273 NA
HETATM   28  C18 UNL     1      21.507   1.027  49.953  1.00  0.00     0.116 A 
HETATM   29  C19 UNL     1      21.542   2.263  50.564  1.00  0.00     0.027 A 
ENDBRANCH  23  24
ENDBRANCH  21  23
ENDBRANCH   6  21
TORSDOF 6
ENDMDL
MODEL 6
REMARK VINA RESULT:      -8.2      2.773      5.104
REMARK  6 active torsions:
REMARK  status: ('A' for Active; 'I' for Inactive)
REMARK       I    between atoms: C1_2  and  N1_3 
REMARK    1  A    between atoms: C1_2  and  C9_14 
REMARK    2  A    between atoms: N1_3  and  C2_4 
REMARK    3  A    between atoms: C6_8  and  C7_9 
REMARK    4  A    between atoms: S1_19  and  N2_20 
REMARK    5  A    between atoms: N2_20  and  C14_21 
REMARK    6  A    between atoms: C14_21  and  C15_22 
ROOT
HETATM    1  C9  UNL     1      26.003   4.709  49.743  1.00  0.00     0.076 A 
HETATM    2  C10 UNL     1      26.972   5.171  48.975  1.00  0.00     0.025 A 
HETATM    3  C11 UNL     1      26.809   6.382  48.185  1.00  0.00     0.002 A 
HETATM    4  C12 UNL     1      25.767   7.174  48.093  1.00  0.00     0.007 A 
HETATM    5  C13 UNL     1      24.506   6.998  48.790  1.00  0.00     0.055 A 
HETATM    6  S1  UNL     1      24.473   5.657  49.760  1.00  0.00    -0.087 SA
ENDROOT
BRANCH   1   7
HETATM    7  C1  UNL     1      26.210   3.493  50.516  1.00  0.00     0.263 C 
HETATM    8  O1  UNL     1      26.857   2.565  49.986  1.00  0.00    -0.267 OA
HETATM    9  N1  UNL     1      25.743   3.249  51.834  1.00  0.00    -0.322 N 
HETATM   10  H1  UNL     1      25.202   4.007  52.300  1.00  0.00     0.169 HD
BRANCH   9  11
HETATM   11  C2  UNL     1      26.160   1.927  52.233  1.00  0.00     0.035 A 
HETATM   12  C3  UNL     1      25.503   0.742  51.967  1.00  0.00     0.029 A 
HETATM   13  C4  UNL     1      26.069  -0.438  52.440  1.00  0.00     0.003 A 
HETATM   14  C5  UNL     1      27.254  -0.415  53.154  1.00  0.00     0.016 A 
HETATM   15  C6  UNL     1      27.909   0.769  53.418  1.00  0.00     0.050 A 
HETATM   16  C8  UNL     1      27.345   1.948  52.947  1.00  0.00     0.045 A 
BRANCH  15  17
HETATM   17  C7  UNL     1      29.171   0.749  54.183  1.00  0.00     0.417 C 
HETATM   18  F1  UNL     1      30.169   0.230  53.365  1.00  0.00    -0.166 F 
HETATM   19  F2  UNL     1      29.536   2.031  54.513  1.00  0.00    -0.166 F 
HETATM   20  F3  UNL     1      29.092  -0.099  55.268  1.00  0.00    -0.166 F 
ENDBRANCH  15  17
ENDBRANCH   9  11
ENDBRANCH   1   7
BRANCH   6  21
HETATM   21  N2  UNL     1      22.980   4.876  50.305  1.00  0.00    -0.265 NA
HETATM   22  H10 UNL     1      23.136   4.647  51.322  1.00  0.00     0.135 HD
BRANCH  21  23
HETATM   23  C14 UNL     1      22.700   3.646  49.604  1.00  0.00     0.137 C 
BRANCH  23  24
HETATM   24  C15 UNL     1      22.294   2.578  50.528  1.00  0.00    -0.042 A 
HETATM   25  C16 UNL     1      21.882   1.392  49.920  1.00  0.00     0.027 A 
HETATM   26  C17 UNL     1      21.489   0.352  50.756  1.00  0.00     0.116 A 
HETATM   27  N3  UNL     1      21.494   0.456  52.090  1.00  0.00    -0.273 NA
HETATM   28  C18 UNL     1      21.888   1.592  52.710  1.00  0.00     0.116 A 
HETATM   29  C19 UNL     1      22.284   2.639  51.905  1.00  0.00     0.027 A 
ENDBRANCH  23  24
ENDBRANCH  21  23
ENDBRANCH   6  21
TORSDOF 6
ENDMDL
MODEL 7
REMARK VINA RESULT:      -8.1      3.835      6.454
REMARK  6 active torsions:
REMARK  status: ('A' for Active; 'I' for Inactive)
REMARK       I    between atoms: C1_2  and  N1_3 
REMARK    1  A    between atoms: C1_2  and  C9_14 
REMARK    2  A    between atoms: N1_3  and  C2_4 
REMARK    3  A    between atoms: C6_8  and  C7_9 
REMARK    4  A    between atoms: S1_19  and  N2_20 
REMARK    5  A    between atoms: N2_20  and  C14_21 
REMARK    6  A    between atoms: C14_21  and  C15_22 
ROOT
HETATM    1  C9  UNL     1      27.290   1.778  52.689  1.00  0.00     0.076 A 
HETATM    2  C10 UNL     1      28.273   2.513  53.172  1.00  0.00     0.025 A 
HETATM    3  C11 UNL     1      29.237   1.973  54.119  1.00  0.00     0.002 A 
HETATM    4  C12 UNL     1      29.309   0.766  54.627  1.00  0.00     0.007 A 
HETATM    5  C13 UNL     1      28.401  -0.329  54.338  1.00  0.00     0.055 A 
HETATM    6  S1  UNL     1      27.206   0.074  53.265  1.00  0.00    -0.087 SA
ENDROOT
BRANCH   1   7
HETATM    7  C1  UNL     1      26.347   2.359  51.744  1.00  0.00     0.263 C 
HETATM    8  O1  UNL     1      26.559   2.186  50.525  1.00  0.00    -0.267 OA
HETATM    9  N1  UNL     1      25.191   3.115  52.071  1.00  0.00    -0.322 N 
HETATM   10  H1  UNL     1      24.991   3.273  53.080  1.00  0.00     0.169 HD
BRANCH   9  11
HETATM   11  C2  UNL     1      24.534   3.504  50.847  1.00  0.00     0.035 A 
HETATM   12  C3  UNL     1      23.512   2.826  50.211  1.00  0.00     0.029 A 
HETATM   13  C4  UNL     1      23.006   3.366  49.033  1.00  0.00     0.003 A 
HETATM   14  C5  UNL     1      23.516   4.546  48.523  1.00  0.00     0.016 A 
HETATM   15  C6  UNL     1      24.535   5.222  49.159  1.00  0.00     0.050 A 
HETATM   16  C8  UNL     1      25.042   4.684  50.336  1.00  0.00     0.045 A 
BRANCH  15  17
HETATM   17  C7  UNL     1      25.050   6.479  48.580  1.00  0.00     0.417 C 
HETATM   18  F1  UNL     1      24.293   6.784  47.455  1.00  0.00    -0.166 F 
HETATM   19  F2  UNL     1      24.885   7.506  49.477  1.00  0.00    -0.166 F 
HETATM   20  F3  UNL     1      26.348   6.336  48.137  1.00  0.00    -0.166 F 
ENDBRANCH  15  17
ENDBRANCH   9  11
ENDBRANCH   1   7
BRANCH   6  21
HETATM   21  N2  UNL     1      25.681  -0.814  53.115  1.00  0.00    -0.265 NA
HETATM   22  H10 UNL     1      25.188  -0.391  52.285  1.00  0.00     0.135 HD
BRANCH  21  23
HETATM   23  C14 UNL     1      24.828  -0.666  54.270  1.00  0.00     0.137 C 
BRANCH  23  24
HETATM   24  C15 UNL     1      23.416  -0.532  53.885  1.00  0.00    -0.042 A 
HETATM   25  C16 UNL     1      22.510  -1.198  54.711  1.00  0.00     0.027 A 
HETATM   26  C17 UNL     1      21.161  -1.100  54.384  1.00  0.00     0.116 A 
HETATM   27  N3  UNL     1      20.722  -0.403  53.330  1.00  0.00    -0.273 NA
HETATM   28  C18 UNL     1      21.575   0.254  52.511  1.00  0.00     0.116 A 
HETATM   29  C19 UNL     1      22.918   0.174  52.811  1.00  0.00     0.027 A 
ENDBRANCH  23  24
ENDBRANCH  21  23
ENDBRANCH   6  21
TORSDOF 6
ENDMDL
MODEL 8
REMARK VINA RESULT:      -8.0      2.623      5.458
REMARK  6 active torsions:
REMARK  status: ('A' for Active; 'I' for Inactive)
REMARK       I    between atoms: C1_2  and  N1_3 
REMARK    1  A    between atoms: C1_2  and  C9_14 
REMARK    2  A    between atoms: N1_3  and  C2_4 
REMARK    3  A    between atoms: C6_8  and  C7_9 
REMARK    4  A    between atoms: S1_19  and  N2_20 
REMARK    5  A    between atoms: N2_20  and  C14_21 
REMARK    6  A    between atoms: C14_21  and  C15_22 
ROOT
HETATM    1  C9  UNL     1      26.297   0.553  53.522  1.00  0.00     0.076 A 
HETATM    2  C10 UNL     1      26.923  -0.499  54.016  1.00  0.00     0.025 A 
HETATM    3  C11 UNL     1      28.372  -0.536  54.141  1.00  0.00     0.002 A 
HETATM    4  C12 UNL     1      29.253   0.382  53.818  1.00  0.00     0.007 A 
HETATM    5  C13 UNL     1      28.950   1.680  53.244  1.00  0.00     0.055 A 
HETATM    6  S1  UNL     1      27.331   1.935  53.014  1.00  0.00    -0.087 SA
ENDROOT
BRANCH   1   7
HETATM    7  C1  UNL     1      24.845   0.547  53.415  1.00  0.00     0.263 C 
HETATM    8  O1  UNL     1      24.256   1.648  53.389  1.00  0.00    -0.267 OA
HETATM    9  N1  UNL     1      24.016  -0.602  53.336  1.00  0.00    -0.322 N 
HETATM   10  H1  UNL     1      24.482  -1.533  53.355  1.00  0.00     0.169 HD
BRANCH   9  11
HETATM   11  C2  UNL     1      22.642  -0.173  53.241  1.00  0.00     0.035 A 
HETATM   12  C3  UNL     1      21.733  -0.087  54.278  1.00  0.00     0.029 A 
HETATM   13  C4  UNL     1      20.446   0.351  53.983  1.00  0.00     0.003 A 
HETATM   14  C5  UNL     1      20.097   0.690  52.688  1.00  0.00     0.016 A 
HETATM   15  C6  UNL     1      21.005   0.605  51.654  1.00  0.00     0.050 A 
HETATM   16  C8  UNL     1      22.291   0.166  51.947  1.00  0.00     0.045 A 
BRANCH  15  17
HETATM   17  C7  UNL     1      20.591   0.976  50.287  1.00  0.00     0.417 C 
HETATM   18  F1  UNL     1      20.567   2.364  50.199  1.00  0.00    -0.166 F 
HETATM   19  F2  UNL     1      21.518   0.523  49.380  1.00  0.00    -0.166 F 
HETATM   20  F3  UNL     1      19.305   0.557  50.017  1.00  0.00    -0.166 F 
ENDBRANCH  15  17
ENDBRANCH   9  11
ENDBRANCH   1   7
BRANCH   6  21
HETATM   21  N2  UNL     1      26.678   3.133  51.883  1.00  0.00    -0.265 NA
HETATM   22  H10 UNL     1      25.852   3.564  52.376  1.00  0.00     0.135 HD
BRANCH  21  23
HETATM   23  C14 UNL     1      26.210   2.546  50.650  1.00  0.00     0.137 C 
BRANCH  23  24
HETATM   24  C15 UNL     1      25.351   3.473  49.902  1.00  0.00    -0.042 A 
HETATM   25  C16 UNL     1      24.085   2.982  49.580  1.00  0.00     0.027 A 
HETATM   26  C17 UNL     1      23.237   3.826  48.871  1.00  0.00     0.116 A 
HETATM   27  N3  UNL     1      23.592   5.062  48.500  1.00  0.00    -0.273 NA
HETATM   28  C18 UNL     1      24.812   5.567  48.796  1.00  0.00     0.116 A 
HETATM   29  C19 UNL     1      25.673   4.752  49.499  1.00  0.00     0.027 A 
ENDBRANCH  23  24
ENDBRANCH  21  23
ENDBRANCH   6  21
TORSDOF 6
ENDMDL
MODEL 9
REMARK VINA RESULT:      -7.9      2.138      2.681
REMARK  6 active torsions:
REMARK  status: ('A' for Active; 'I' for Inactive)
REMARK       I    between atoms: C1_2  and  N1_3 
REMARK    1  A    between atoms: C1_2  and  C9_14 
REMARK    2  A    between atoms: N1_3  and  C2_4 
REMARK    3  A    between atoms: C6_8  and  C7_9 
REMARK    4  A    between atoms: S1_19  and  N2_20 
REMARK    5  A    between atoms: N2_20  and  C14_21 
REMARK    6  A    between atoms: C14_21  and  C15_22 
ROOT
HETATM    1  C9  UNL     1      21.907   4.725  51.349  1.00  0.00     0.076 A 
HETATM    2  C10 UNL     1      21.265   5.806  50.948  1.00  0.00     0.025 A 
HETATM    3  C11 UNL     1      21.966   7.048  50.662  1.00  0.00     0.002 A 
HETATM    4  C12 UNL     1      23.249   7.309  50.739  1.00  0.00     0.007 A 
HETATM    5  C13 UNL     1      24.280   6.372  51.144  1.00  0.00     0.055 A 
HETATM    6  S1  UNL     1      23.693   4.872  51.522  1.00  0.00    -0.087 SA
ENDROOT
BRANCH   1   7
HETATM    7  C1  UNL     1      21.166   3.503  51.624  1.00  0.00     0.263 C 
HETATM    8  O1  UNL     1      20.425   3.481  52.631  1.00  0.00    -0.267 OA
HETATM    9  N1  UNL     1      21.198   2.311  50.854  1.00  0.00    -0.322 N 
HETATM   10  H1  UNL     1      21.806   2.302  50.009  1.00  0.00     0.169 HD
BRANCH   9  11
HETATM   11  C2  UNL     1      20.323   1.342  51.467  1.00  0.00     0.035 A 
HETATM   12  C3  UNL     1      18.984   1.150  51.189  1.00  0.00     0.029 A 
HETATM   13  C4  UNL     1      18.307   0.158  51.891  1.00  0.00     0.003 A 
HETATM   14  C5  UNL     1      18.965  -0.609  52.836  1.00  0.00     0.016 A 
HETATM   15  C6  UNL     1      20.302  -0.417  53.112  1.00  0.00     0.050 A 
HETATM   16  C8  UNL     1      20.978   0.574  52.412  1.00  0.00     0.045 A 
BRANCH  15  17
HETATM   17  C7  UNL     1      20.965  -1.258  54.129  1.00  0.00     0.417 C 
HETATM   18  F1  UNL     1      20.067  -2.237  54.538  1.00  0.00    -0.166 F 
HETATM   19  F2  UNL     1      22.045  -1.897  53.571  1.00  0.00    -0.166 F 
HETATM   20  F3  UNL     1      21.276  -0.532  55.260  1.00  0.00    -0.166 F 
ENDBRANCH  15  17
ENDBRANCH   9  11
ENDBRANCH   1   7
BRANCH   6  21
HETATM   21  N2  UNL     1      24.561   3.702  52.529  1.00  0.00    -0.265 NA
HETATM   22  H10 UNL     1      25.149   4.278  53.188  1.00  0.00     0.135 HD
BRANCH  21  23
HETATM   23  C14 UNL     1      25.444   2.850  51.768  1.00  0.00     0.137 C 
BRANCH  23  24
HETATM   24  C15 UNL     1      25.922   1.715  52.568  1.00  0.00    -0.042 A 
HETATM   25  C16 UNL     1      26.240   0.567  51.841  1.00  0.00     0.027 A 
HETATM   26  C17 UNL     1      26.696  -0.534  52.558  1.00  0.00     0.116 A 
HETATM   27  N3  UNL     1      26.835  -0.523  53.889  1.00  0.00    -0.273 NA
HETATM   28  C18 UNL     1      26.536   0.573  54.623  1.00  0.00     0.116 A 
HETATM   29  C19 UNL     1      26.081   1.680  53.938  1.00  0.00     0.027 A 
ENDBRANCH  23  24
ENDBRANCH  21  23
ENDBRANCH   6  21
TORSDOF 6
ENDMDL
