MODEL 1
REMARK VINA RESULT:      -9.4      0.000      0.000
REMARK  7 active torsions:
REMARK  status: ('A' for Active; 'I' for Inactive)
REMARK    1  A    between atoms: C2_3  and  C24_26 
REMARK    2  A    between atoms: C3_4  and  C4_5 
REMARK    3  A    between atoms: C9_10  and  C10_11 
REMARK    4  A    between atoms: C10_11  and  C11_12 
REMARK    5  A    between atoms: C15_16  and  C16_17 
REMARK    6  A    between atoms: C16_17  and  C17_18 
REMARK    7  A    between atoms: C23_24  and  O1_25 
REMARK       I    between atoms: C24_26  and  N2_27 
ROOT
HETATM    1  N1  UNL     1      22.844  -1.641  55.715  1.00  0.00    -0.191 NA
HETATM    2  C1  UNL     1      22.377  -1.126  54.788  1.00  0.00     0.105 C 
HETATM    3  C2  UNL     1      21.792  -0.483  53.652  1.00  0.00     0.112 C 
HETATM    4  C3  UNL     1      22.460   0.271  52.797  1.00  0.00     0.040 C 
ENDROOT
BRANCH   3   5
HETATM    5  C24 UNL     1      20.370  -0.684  53.429  1.00  0.00     0.260 C 
HETATM    6  N2  UNL     1      19.672  -1.649  54.205  1.00  0.00    -0.365 N 
HETATM    7  H19 UNL     1      19.230  -1.160  55.028  1.00  0.00     0.159 HD
HETATM    8  H20 UNL     1      19.332  -2.607  54.442  1.00  0.00     0.159 HD
HETATM    9  O2  UNL     1      19.684  -0.066  52.588  1.00  0.00    -0.267 OA
ENDBRANCH   3   5
BRANCH   4  10
HETATM   10  C4  UNL     1      23.880   0.582  52.842  1.00  0.00    -0.028 A 
HETATM   11  C5  UNL     1      24.700  -0.528  53.062  1.00  0.00     0.012 A 
HETATM   12  C6  UNL     1      26.073  -0.428  53.140  1.00  0.00     0.001 A 
HETATM   13  C7  UNL     1      26.585   0.851  52.986  1.00  0.00     0.001 A 
HETATM   14  C8  UNL     1      25.806   1.956  52.770  1.00  0.00     0.008 A 
HETATM   15  C9  UNL     1      24.440   1.833  52.695  1.00  0.00    -0.043 A 
BRANCH  15  16
HETATM   16  C10 UNL     1      23.424   2.898  52.486  1.00  0.00     0.080 C 
BRANCH  16  17
HETATM   17  C11 UNL     1      23.482   3.385  51.097  1.00  0.00    -0.020 A 
HETATM   18  C12 UNL     1      22.908   2.603  50.116  1.00  0.00     0.010 A 
HETATM   19  C13 UNL     1      22.863   2.918  48.771  1.00  0.00     0.001 A 
HETATM   20  C14 UNL     1      23.463   4.129  48.462  1.00  0.00     0.010 A 
HETATM   21  C15 UNL     1      24.063   4.974  49.383  1.00  0.00    -0.020 A 
HETATM   22  C23 UNL     1      24.048   4.559  50.691  1.00  0.00     0.079 A 
BRANCH  21  23
HETATM   23  C16 UNL     1      24.659   6.207  48.858  1.00  0.00     0.080 C 
BRANCH  23  24
HETATM   24  C17 UNL     1      26.109   6.110  48.568  1.00  0.00    -0.054 A 
HETATM   25  C18 UNL     1      26.930   5.043  48.849  1.00  0.00     0.007 A 
HETATM   26  C19 UNL     1      28.289   5.089  48.531  1.00  0.00     0.001 A 
HETATM   27  C20 UNL     1      28.875   6.194  47.921  1.00  0.00     0.000 A 
HETATM   28  C21 UNL     1      28.057   7.271  47.636  1.00  0.00     0.001 A 
HETATM   29  C22 UNL     1      26.719   7.206  47.959  1.00  0.00     0.007 A 
ENDBRANCH  23  24
ENDBRANCH  21  23
BRANCH  22  30
HETATM   30  O1  UNL     1      24.635   5.370  51.647  1.00  0.00    -0.360 OA
HETATM   31  H18 UNL     1      24.665   6.369  51.517  1.00  0.00     0.217 HD
ENDBRANCH  22  30
ENDBRANCH  16  17
ENDBRANCH  15  16
ENDBRANCH   4  10
TORSDOF 7
ENDMDL
MODEL 2
REMARK VINA RESULT:      -9.3      3.390      7.150
REMARK  7 active torsions:
REMARK  status: ('A' for Active; 'I' for Inactive)
REMARK    1  A    between atoms: C2_3  and  C24_26 
REMARK    2  A    between atoms: C3_4  and  C4_5 
REMARK    3  A    between atoms: C9_10  and  C10_11 
REMARK    4  A    between atoms: C10_11  and  C11_12 
REMARK    5  A    between atoms: C15_16  and  C16_17 
REMARK    6  A    between atoms: C16_17  and  C17_18 
REMARK    7  A    between atoms: C23_24  and  O1_25 
REMARK       I    between atoms: C24_26  and  N2_27 
ROOT
HETATM    1  N1  UNL     1      26.585   3.837  49.322  1.00  0.00    -0.191 NA
HETATM    2  C1  UNL     1      25.694   4.484  49.682  1.00  0.00     0.105 C 
HETATM    3  C2  UNL     1      24.596   5.294  50.117  1.00  0.00     0.112 C 
HETATM    4  C3  UNL     1      23.333   4.912  50.085  1.00  0.00     0.040 C 
ENDROOT
BRANCH   3   5
HETATM    5  C24 UNL     1      24.905   6.617  50.632  1.00  0.00     0.260 C 
HETATM    6  N2  UNL     1      24.503   6.963  51.950  1.00  0.00    -0.365 N 
HETATM    7  H19 UNL     1      25.310   6.783  52.604  1.00  0.00     0.159 HD
HETATM    8  H20 UNL     1      23.837   7.307  52.677  1.00  0.00     0.159 HD
HETATM    9  O2  UNL     1      25.511   7.507  49.998  1.00  0.00    -0.267 OA
ENDBRANCH   3   5
BRANCH   4  10
HETATM   10  C4  UNL     1      22.824   3.632  49.617  1.00  0.00    -0.028 A 
HETATM   11  C5  UNL     1      22.789   3.508  48.225  1.00  0.00     0.012 A 
HETATM   12  C6  UNL     1      22.333   2.368  47.597  1.00  0.00     0.001 A 
HETATM   13  C7  UNL     1      21.912   1.353  48.441  1.00  0.00     0.001 A 
HETATM   14  C8  UNL     1      21.934   1.447  49.807  1.00  0.00     0.008 A 
HETATM   15  C9  UNL     1      22.393   2.593  50.412  1.00  0.00    -0.043 A 
BRANCH  15  16
HETATM   16  C10 UNL     1      22.483   2.901  51.864  1.00  0.00     0.080 C 
BRANCH  16  17
HETATM   17  C11 UNL     1      23.239   1.844  52.558  1.00  0.00    -0.020 A 
HETATM   18  C12 UNL     1      22.602   0.643  52.791  1.00  0.00     0.010 A 
HETATM   19  C13 UNL     1      23.168  -0.451  53.416  1.00  0.00     0.001 A 
HETATM   20  C14 UNL     1      24.482  -0.249  53.811  1.00  0.00     0.010 A 
HETATM   21  C15 UNL     1      25.196   0.923  53.617  1.00  0.00    -0.020 A 
HETATM   22  C23 UNL     1      24.531   1.944  52.986  1.00  0.00     0.079 A 
BRANCH  21  23
HETATM   23  C16 UNL     1      26.573   0.949  54.121  1.00  0.00     0.080 C 
BRANCH  23  24
HETATM   24  C17 UNL     1      27.398  -0.212  53.708  1.00  0.00    -0.054 A 
HETATM   25  C18 UNL     1      26.973  -1.299  52.982  1.00  0.00     0.007 A 
HETATM   26  C19 UNL     1      27.857  -2.335  52.670  1.00  0.00     0.001 A 
HETATM   27  C20 UNL     1      29.190  -2.321  53.068  1.00  0.00     0.000 A 
HETATM   28  C21 UNL     1      29.625  -1.232  53.799  1.00  0.00     0.001 A 
HETATM   29  C22 UNL     1      28.737  -0.222  54.097  1.00  0.00     0.007 A 
ENDBRANCH  23  24
ENDBRANCH  21  23
BRANCH  22  30
HETATM   30  O1  UNL     1      25.204   3.135  52.770  1.00  0.00    -0.360 OA
HETATM   31  H18 UNL     1      25.222   3.845  53.484  1.00  0.00     0.217 HD
ENDBRANCH  22  30
ENDBRANCH  16  17
ENDBRANCH  15  16
ENDBRANCH   4  10
TORSDOF 7
ENDMDL
MODEL 3
REMARK VINA RESULT:      -9.3      2.621      4.210
REMARK  7 active torsions:
REMARK  status: ('A' for Active; 'I' for Inactive)
REMARK    1  A    between atoms: C2_3  and  C24_26 
REMARK    2  A    between atoms: C3_4  and  C4_5 
REMARK    3  A    between atoms: C9_10  and  C10_11 
REMARK    4  A    between atoms: C10_11  and  C11_12 
REMARK    5  A    between atoms: C15_16  and  C16_17 
REMARK    6  A    between atoms: C16_17  and  C17_18 
REMARK    7  A    between atoms: C23_24  and  O1_25 
REMARK       I    between atoms: C24_26  and  N2_27 
ROOT
HETATM    1  N1  UNL     1      26.927  -2.427  52.026  1.00  0.00    -0.191 NA
HETATM    2  C1  UNL     1      26.974  -1.550  52.781  1.00  0.00     0.105 C 
HETATM    3  C2  UNL     1      27.042  -0.461  53.707  1.00  0.00     0.112 C 
HETATM    4  C3  UNL     1      26.005   0.271  54.072  1.00  0.00     0.040 C 
ENDROOT
BRANCH   3   5
HETATM    5  C24 UNL     1      28.340  -0.154  54.283  1.00  0.00     0.260 C 
HETATM    6  N2  UNL     1      29.471  -0.927  53.905  1.00  0.00    -0.365 N 
HETATM    7  H19 UNL     1      29.969  -0.430  53.120  1.00  0.00     0.159 HD
HETATM    8  H20 UNL     1      30.121  -1.743  53.958  1.00  0.00     0.159 HD
HETATM    9  O2  UNL     1      28.558   0.759  55.108  1.00  0.00    -0.267 OA
ENDBRANCH   3   5
BRANCH   4  10
HETATM   10  C4  UNL     1      24.631   0.116  53.619  1.00  0.00    -0.028 A 
HETATM   11  C5  UNL     1      23.855  -0.719  54.429  1.00  0.00     0.012 A 
HETATM   12  C6  UNL     1      22.531  -0.989  54.156  1.00  0.00     0.001 A 
HETATM   13  C7  UNL     1      22.021  -0.376  53.023  1.00  0.00     0.001 A 
HETATM   14  C8  UNL     1      22.757   0.445  52.211  1.00  0.00     0.008 A 
HETATM   15  C9  UNL     1      24.076   0.700  52.502  1.00  0.00    -0.043 A 
BRANCH  15  16
HETATM   16  C10 UNL     1      25.044   1.540  51.749  1.00  0.00     0.080 C 
BRANCH  16  17
HETATM   17  C11 UNL     1      24.557   2.928  51.672  1.00  0.00    -0.020 A 
HETATM   18  C12 UNL     1      23.969   3.467  52.798  1.00  0.00     0.010 A 
HETATM   19  C13 UNL     1      23.472   4.753  52.900  1.00  0.00     0.001 A 
HETATM   20  C14 UNL     1      23.612   5.497  51.738  1.00  0.00     0.010 A 
HETATM   21  C15 UNL     1      24.187   5.034  50.565  1.00  0.00    -0.020 A 
HETATM   22  C23 UNL     1      24.646   3.741  50.580  1.00  0.00     0.079 A 
BRANCH  21  23
HETATM   23  C16 UNL     1      24.229   5.970  49.436  1.00  0.00     0.080 C 
BRANCH  23  24
HETATM   24  C17 UNL     1      25.478   6.762  49.343  1.00  0.00    -0.054 A 
HETATM   25  C18 UNL     1      25.746   7.946  49.988  1.00  0.00     0.007 A 
HETATM   26  C19 UNL     1      26.967   8.598  49.801  1.00  0.00     0.001 A 
HETATM   27  C20 UNL     1      27.961   8.092  48.969  1.00  0.00     0.000 A 
HETATM   28  C21 UNL     1      27.701   6.902  48.316  1.00  0.00     0.001 A 
HETATM   29  C22 UNL     1      26.489   6.276  48.514  1.00  0.00     0.007 A 
ENDBRANCH  23  24
ENDBRANCH  21  23
BRANCH  22  30
HETATM   30  O1  UNL     1      25.229   3.235  49.431  1.00  0.00    -0.360 OA
HETATM   31  H18 UNL     1      24.683   3.121  48.591  1.00  0.00     0.217 HD
ENDBRANCH  22  30
ENDBRANCH  16  17
ENDBRANCH  15  16
ENDBRANCH   4  10
TORSDOF 7
ENDMDL
MODEL 4
REMARK VINA RESULT:      -9.2      2.360      3.753
REMARK  7 active torsions:
REMARK  status: ('A' for Active; 'I' for Inactive)
REMARK    1  A    between atoms: C2_3  and  C24_26 
REMARK    2  A    between atoms: C3_4  and  C4_5 
REMARK    3  A    between atoms: C9_10  and  C10_11 
REMARK    4  A    between atoms: C10_11  and  C11_12 
REMARK    5  A    between atoms: C15_16  and  C16_17 
REMARK    6  A    between atoms: C16_17  and  C17_18 
REMARK    7  A    between atoms: C23_24  and  O1_25 
REMARK       I    between atoms: C24_26  and  N2_27 
ROOT
HETATM    1  N1  UNL     1      26.187   1.782  54.583  1.00  0.00    -0.191 NA
HETATM    2  C1  UNL     1      26.000   0.793  54.009  1.00  0.00     0.105 C 
HETATM    3  C2  UNL     1      25.778  -0.435  53.308  1.00  0.00     0.112 C 
HETATM    4  C3  UNL     1      24.584  -0.922  53.022  1.00  0.00     0.040 C 
ENDROOT
BRANCH   3   5
HETATM    5  C24 UNL     1      26.949  -1.183  52.883  1.00  0.00     0.260 C 
HETATM    6  N2  UNL     1      28.242  -0.629  53.087  1.00  0.00    -0.365 N 
HETATM    7  H19 UNL     1      28.627  -1.006  53.994  1.00  0.00     0.159 HD
HETATM    8  H20 UNL     1      29.066  -0.036  52.847  1.00  0.00     0.159 HD
HETATM    9  O2  UNL     1      26.919  -2.305  52.334  1.00  0.00    -0.267 OA
ENDBRANCH   3   5
BRANCH   4  10
HETATM   10  C4  UNL     1      23.301  -0.323  53.351  1.00  0.00    -0.028 A 
HETATM   11  C5  UNL     1      22.719  -0.826  54.520  1.00  0.00     0.012 A 
HETATM   12  C6  UNL     1      21.501  -0.382  54.988  1.00  0.00     0.001 A 
HETATM   13  C7  UNL     1      20.890   0.598  54.221  1.00  0.00     0.001 A 
HETATM   14  C8  UNL     1      21.435   1.108  53.073  1.00  0.00     0.008 A 
HETATM   15  C9  UNL     1      22.651   0.651  52.624  1.00  0.00    -0.043 A 
BRANCH  15  16
HETATM   16  C10 UNL     1      23.401   1.057  51.406  1.00  0.00     0.080 C 
BRANCH  16  17
HETATM   17  C11 UNL     1      23.578   2.519  51.386  1.00  0.00    -0.020 A 
HETATM   18  C12 UNL     1      23.527   3.191  52.591  1.00  0.00     0.010 A 
HETATM   19  C13 UNL     1      23.686   4.554  52.750  1.00  0.00     0.001 A 
HETATM   20  C14 UNL     1      23.911   5.232  51.561  1.00  0.00     0.010 A 
HETATM   21  C15 UNL     1      23.976   4.636  50.311  1.00  0.00    -0.020 A 
HETATM   22  C23 UNL     1      23.803   3.276  50.273  1.00  0.00     0.079 A 
BRANCH  21  23
HETATM   23  C16 UNL     1      24.207   5.526  49.167  1.00  0.00     0.080 C 
BRANCH  23  24
HETATM   24  C17 UNL     1      25.635   5.718  48.819  1.00  0.00    -0.054 A 
HETATM   25  C18 UNL     1      26.639   4.787  48.943  1.00  0.00     0.007 A 
HETATM   26  C19 UNL     1      27.951   5.105  48.587  1.00  0.00     0.001 A 
HETATM   27  C20 UNL     1      28.307   6.356  48.094  1.00  0.00     0.000 A 
HETATM   28  C21 UNL     1      27.304   7.298  47.966  1.00  0.00     0.001 A 
HETATM   29  C22 UNL     1      26.016   6.964  48.324  1.00  0.00     0.007 A 
ENDBRANCH  23  24
ENDBRANCH  21  23
BRANCH  22  30
HETATM   30  O1  UNL     1      23.861   2.637  49.046  1.00  0.00    -0.360 OA
HETATM   31  H18 UNL     1      23.286   1.830  48.866  1.00  0.00     0.217 HD
ENDBRANCH  22  30
ENDBRANCH  16  17
ENDBRANCH  15  16
ENDBRANCH   4  10
TORSDOF 7
ENDMDL
MODEL 5
REMARK VINA RESULT:      -9.0      3.006      4.626
REMARK  7 active torsions:
REMARK  status: ('A' for Active; 'I' for Inactive)
REMARK    1  A    between atoms: C2_3  and  C24_26 
REMARK    2  A    between atoms: C3_4  and  C4_5 
REMARK    3  A    between atoms: C9_10  and  C10_11 
REMARK    4  A    between atoms: C10_11  and  C11_12 
REMARK    5  A    between atoms: C15_16  and  C16_17 
REMARK    6  A    between atoms: C16_17  and  C17_18 
REMARK    7  A    between atoms: C23_24  and  O1_25 
REMARK       I    between atoms: C24_26  and  N2_27 
ROOT
HETATM    1  N1  UNL     1      26.893  -2.441  52.116  1.00  0.00    -0.191 NA
HETATM    2  C1  UNL     1      26.977  -1.565  52.869  1.00  0.00     0.105 C 
HETATM    3  C2  UNL     1      27.089  -0.476  53.792  1.00  0.00     0.112 C 
HETATM    4  C3  UNL     1      26.059   0.138  54.345  1.00  0.00     0.040 C 
ENDROOT
BRANCH   3   5
HETATM    5  C24 UNL     1      28.427  -0.030  54.140  1.00  0.00     0.260 C 
HETATM    6  N2  UNL     1      29.550  -0.638  53.515  1.00  0.00    -0.365 N 
HETATM    7  H19 UNL     1      29.829  -0.050  52.686  1.00  0.00     0.159 HD
HETATM    8  H20 UNL     1      30.289  -1.366  53.397  1.00  0.00     0.159 HD
HETATM    9  O2  UNL     1      28.688   0.868  54.969  1.00  0.00    -0.267 OA
ENDBRANCH   3   5
BRANCH   4  10
HETATM   10  C4  UNL     1      24.652  -0.164  54.133  1.00  0.00    -0.028 A 
HETATM   11  C5  UNL     1      24.089  -0.976  55.122  1.00  0.00     0.012 A 
HETATM   12  C6  UNL     1      22.769  -1.372  55.089  1.00  0.00     0.001 A 
HETATM   13  C7  UNL     1      22.037  -0.910  54.006  1.00  0.00     0.001 A 
HETATM   14  C8  UNL     1      22.562  -0.115  53.023  1.00  0.00     0.008 A 
HETATM   15  C9  UNL     1      23.881   0.268  53.076  1.00  0.00    -0.043 A 
BRANCH  15  16
HETATM   16  C10 UNL     1      24.641   1.105  52.112  1.00  0.00     0.080 C 
BRANCH  16  17
HETATM   17  C11 UNL     1      23.753   2.113  51.507  1.00  0.00    -0.020 A 
HETATM   18  C12 UNL     1      23.051   1.755  50.374  1.00  0.00     0.010 A 
HETATM   19  C13 UNL     1      22.169   2.572  49.692  1.00  0.00     0.001 A 
HETATM   20  C14 UNL     1      22.034   3.834  50.251  1.00  0.00     0.010 A 
HETATM   21  C15 UNL     1      22.700   4.275  51.384  1.00  0.00    -0.020 A 
HETATM   22  C23 UNL     1      23.551   3.377  51.978  1.00  0.00     0.079 A 
BRANCH  21  23
HETATM   23  C16 UNL     1      22.436   5.653  51.813  1.00  0.00     0.080 C 
BRANCH  23  24
HETATM   24  C17 UNL     1      23.105   6.689  50.991  1.00  0.00    -0.054 A 
HETATM   25  C18 UNL     1      24.458   6.925  50.915  1.00  0.00     0.007 A 
HETATM   26  C19 UNL     1      24.957   7.947  50.105  1.00  0.00     0.001 A 
HETATM   27  C20 UNL     1      24.129   8.765  49.343  1.00  0.00     0.000 A 
HETATM   28  C21 UNL     1      22.768   8.535  49.413  1.00  0.00     0.001 A 
HETATM   29  C22 UNL     1      22.296   7.522  50.220  1.00  0.00     0.007 A 
ENDBRANCH  23  24
ENDBRANCH  21  23
BRANCH  22  30
HETATM   30  O1  UNL     1      24.239   3.773  53.113  1.00  0.00    -0.360 OA
HETATM   31  H18 UNL     1      23.922   3.485  54.025  1.00  0.00     0.217 HD
ENDBRANCH  22  30
ENDBRANCH  16  17
ENDBRANCH  15  16
ENDBRANCH   4  10
TORSDOF 7
ENDMDL
MODEL 6
REMARK VINA RESULT:      -8.6      3.778      5.340
REMARK  7 active torsions:
REMARK  status: ('A' for Active; 'I' for Inactive)
REMARK    1  A    between atoms: C2_3  and  C24_26 
REMARK    2  A    between atoms: C3_4  and  C4_5 
REMARK    3  A    between atoms: C9_10  and  C10_11 
REMARK    4  A    between atoms: C10_11  and  C11_12 
REMARK    5  A    between atoms: C15_16  and  C16_17 
REMARK    6  A    between atoms: C16_17  and  C17_18 
REMARK    7  A    between atoms: C23_24  and  O1_25 
REMARK       I    between atoms: C24_26  and  N2_27 
ROOT
HETATM    1  N1  UNL     1      27.985  -2.202  53.073  1.00  0.00    -0.191 NA
HETATM    2  C1  UNL     1      27.853  -1.108  53.431  1.00  0.00     0.105 C 
HETATM    3  C2  UNL     1      27.696   0.248  53.863  1.00  0.00     0.112 C 
HETATM    4  C3  UNL     1      26.537   0.802  54.169  1.00  0.00     0.040 C 
ENDROOT
BRANCH   3   5
HETATM    5  C24 UNL     1      28.898   1.056  53.975  1.00  0.00     0.260 C 
HETATM    6  N2  UNL     1      30.128   0.550  53.475  1.00  0.00    -0.365 N 
HETATM    7  H19 UNL     1      30.264   0.913  52.494  1.00  0.00     0.159 HD
HETATM    8  H20 UNL     1      31.014  -0.002  53.520  1.00  0.00     0.159 HD
HETATM    9  O2  UNL     1      28.949   2.193  54.492  1.00  0.00    -0.267 OA
ENDBRANCH   3   5
BRANCH   4  10
HETATM   10  C4  UNL     1      25.232   0.161  54.130  1.00  0.00    -0.028 A 
HETATM   11  C5  UNL     1      24.955  -0.635  55.245  1.00  0.00     0.012 A 
HETATM   12  C6  UNL     1      23.769  -1.326  55.384  1.00  0.00     0.001 A 
HETATM   13  C7  UNL     1      22.870  -1.177  54.340  1.00  0.00     0.001 A 
HETATM   14  C8  UNL     1      23.114  -0.405  53.236  1.00  0.00     0.008 A 
HETATM   15  C9  UNL     1      24.303   0.274  53.118  1.00  0.00    -0.043 A 
BRANCH  15  16
HETATM   16  C10 UNL     1      24.767   1.143  52.005  1.00  0.00     0.080 C 
BRANCH  16  17
HETATM   17  C11 UNL     1      23.870   2.303  51.861  1.00  0.00    -0.020 A 
HETATM   18  C12 UNL     1      24.089   3.392  52.680  1.00  0.00     0.010 A 
HETATM   19  C13 UNL     1      23.351   4.560  52.666  1.00  0.00     0.001 A 
HETATM   20  C14 UNL     1      22.329   4.562  51.730  1.00  0.00     0.010 A 
HETATM   21  C15 UNL     1      22.039   3.513  50.871  1.00  0.00    -0.020 A 
HETATM   22  C23 UNL     1      22.838   2.403  50.974  1.00  0.00     0.079 A 
BRANCH  21  23
HETATM   23  C16 UNL     1      20.905   3.699  49.959  1.00  0.00     0.080 C 
BRANCH  23  24
HETATM   24  C17 UNL     1      21.284   4.101  48.584  1.00  0.00    -0.054 A 
HETATM   25  C18 UNL     1      21.515   3.261  47.521  1.00  0.00     0.007 A 
HETATM   26  C19 UNL     1      21.879   3.774  46.274  1.00  0.00     0.001 A 
HETATM   27  C20 UNL     1      22.022   5.139  46.044  1.00  0.00     0.000 A 
HETATM   28  C21 UNL     1      21.792   5.992  47.107  1.00  0.00     0.001 A 
HETATM   29  C22 UNL     1      21.435   5.464  48.329  1.00  0.00     0.007 A 
ENDBRANCH  23  24
ENDBRANCH  21  23
BRANCH  22  30
HETATM   30  O1  UNL     1      22.587   1.329  50.135  1.00  0.00    -0.360 OA
HETATM   31  H18 UNL     1      22.079   1.464  49.275  1.00  0.00     0.217 HD
ENDBRANCH  22  30
ENDBRANCH  16  17
ENDBRANCH  15  16
ENDBRANCH   4  10
TORSDOF 7
ENDMDL
MODEL 7
REMARK VINA RESULT:      -8.6      1.957      2.506
REMARK  7 active torsions:
REMARK  status: ('A' for Active; 'I' for Inactive)
REMARK    1  A    between atoms: C2_3  and  C24_26 
REMARK    2  A    between atoms: C3_4  and  C4_5 
REMARK    3  A    between atoms: C9_10  and  C10_11 
REMARK    4  A    between atoms: C10_11  and  C11_12 
REMARK    5  A    between atoms: C15_16  and  C16_17 
REMARK    6  A    between atoms: C16_17  and  C17_18 
REMARK    7  A    between atoms: C23_24  and  O1_25 
REMARK       I    between atoms: C24_26  and  N2_27 
ROOT
HETATM    1  N1  UNL     1      21.651  -0.029  51.051  1.00  0.00    -0.191 NA
HETATM    2  C1  UNL     1      21.982  -0.108  52.159  1.00  0.00     0.105 C 
HETATM    3  C2  UNL     1      22.386  -0.217  53.527  1.00  0.00     0.112 C 
HETATM    4  C3  UNL     1      23.614   0.003  53.960  1.00  0.00     0.040 C 
ENDROOT
BRANCH   3   5
HETATM    5  C24 UNL     1      21.369  -0.589  54.496  1.00  0.00     0.260 C 
HETATM    6  N2  UNL     1      20.452   0.394  54.957  1.00  0.00    -0.365 N 
HETATM    7  H19 UNL     1      19.576   0.333  54.373  1.00  0.00     0.159 HD
HETATM    8  H20 UNL     1      20.133   1.179  55.567  1.00  0.00     0.159 HD
HETATM    9  O2  UNL     1      21.226  -1.733  54.978  1.00  0.00    -0.267 OA
ENDBRANCH   3   5
BRANCH   4  10
HETATM   10  C4  UNL     1      24.761   0.391  53.155  1.00  0.00    -0.028 A 
HETATM   11  C5  UNL     1      25.631  -0.663  52.858  1.00  0.00     0.012 A 
HETATM   12  C6  UNL     1      26.776  -0.487  52.109  1.00  0.00     0.001 A 
HETATM   13  C7  UNL     1      27.005   0.808  51.670  1.00  0.00     0.001 A 
HETATM   14  C8  UNL     1      26.172   1.858  51.946  1.00  0.00     0.008 A 
HETATM   15  C9  UNL     1      25.036   1.660  52.695  1.00  0.00    -0.043 A 
BRANCH  15  16
HETATM   16  C10 UNL     1      24.019   2.659  53.116  1.00  0.00     0.080 C 
BRANCH  16  17
HETATM   17  C11 UNL     1      23.682   3.544  51.988  1.00  0.00    -0.020 A 
HETATM   18  C12 UNL     1      23.443   2.960  50.760  1.00  0.00     0.010 A 
HETATM   19  C13 UNL     1      23.104   3.641  49.607  1.00  0.00     0.001 A 
HETATM   20  C14 UNL     1      23.016   5.014  49.776  1.00  0.00     0.010 A 
HETATM   21  C15 UNL     1      23.241   5.681  50.970  1.00  0.00    -0.020 A 
HETATM   22  C23 UNL     1      23.572   4.903  52.050  1.00  0.00     0.079 A 
BRANCH  21  23
HETATM   23  C16 UNL     1      23.115   7.143  50.945  1.00  0.00     0.080 C 
BRANCH  23  24
HETATM   24  C17 UNL     1      24.158   7.833  50.150  1.00  0.00    -0.054 A 
HETATM   25  C18 UNL     1      23.950   8.692  49.097  1.00  0.00     0.007 A 
HETATM   26  C19 UNL     1      25.029   9.268  48.423  1.00  0.00     0.001 A 
HETATM   27  C20 UNL     1      26.350   9.009  48.776  1.00  0.00     0.000 A 
HETATM   28  C21 UNL     1      26.570   8.146  49.833  1.00  0.00     0.001 A 
HETATM   29  C22 UNL     1      25.490   7.589  50.483  1.00  0.00     0.007 A 
ENDBRANCH  23  24
ENDBRANCH  21  23
BRANCH  22  30
HETATM   30  O1  UNL     1      23.804   5.525  53.266  1.00  0.00    -0.360 OA
HETATM   31  H18 UNL     1      23.136   6.182  53.636  1.00  0.00     0.217 HD
ENDBRANCH  22  30
ENDBRANCH  16  17
ENDBRANCH  15  16
ENDBRANCH   4  10
TORSDOF 7
ENDMDL
MODEL 8
REMARK VINA RESULT:      -8.6      4.010      6.588
REMARK  7 active torsions:
REMARK  status: ('A' for Active; 'I' for Inactive)
REMARK    1  A    between atoms: C2_3  and  C24_26 
REMARK    2  A    between atoms: C3_4  and  C4_5 
REMARK    3  A    between atoms: C9_10  and  C10_11 
REMARK    4  A    between atoms: C10_11  and  C11_12 
REMARK    5  A    between atoms: C15_16  and  C16_17 
REMARK    6  A    between atoms: C16_17  and  C17_18 
REMARK    7  A    between atoms: C23_24  and  O1_25 
REMARK       I    between atoms: C24_26  and  N2_27 
ROOT
HETATM    1  N1  UNL     1      27.997  -2.118  53.147  1.00  0.00    -0.191 NA
HETATM    2  C1  UNL     1      27.847  -1.008  53.443  1.00  0.00     0.105 C 
HETATM    3  C2  UNL     1      27.668   0.367  53.798  1.00  0.00     0.112 C 
HETATM    4  C3  UNL     1      26.496   0.929  54.031  1.00  0.00     0.040 C 
ENDROOT
BRANCH   3   5
HETATM    5  C24 UNL     1      28.862   1.188  53.914  1.00  0.00     0.260 C 
HETATM    6  N2  UNL     1      30.112   0.664  53.487  1.00  0.00    -0.365 N 
HETATM    7  H19 UNL     1      30.285   0.976  52.495  1.00  0.00     0.159 HD
HETATM    8  H20 UNL     1      30.998   0.121  53.595  1.00  0.00     0.159 HD
HETATM    9  O2  UNL     1      28.888   2.350  54.371  1.00  0.00    -0.267 OA
ENDBRANCH   3   5
BRANCH   4  10
HETATM   10  C4  UNL     1      25.196   0.279  53.976  1.00  0.00    -0.028 A 
HETATM   11  C5  UNL     1      24.937  -0.570  55.057  1.00  0.00     0.012 A 
HETATM   12  C6  UNL     1      23.760  -1.276  55.176  1.00  0.00     0.001 A 
HETATM   13  C7  UNL     1      22.848  -1.088  54.149  1.00  0.00     0.001 A 
HETATM   14  C8  UNL     1      23.074  -0.265  53.079  1.00  0.00     0.008 A 
HETATM   15  C9  UNL     1      24.256   0.430  52.980  1.00  0.00    -0.043 A 
BRANCH  15  16
HETATM   16  C10 UNL     1      24.700   1.353  51.903  1.00  0.00     0.080 C 
BRANCH  16  17
HETATM   17  C11 UNL     1      23.748   2.468  51.767  1.00  0.00    -0.020 A 
HETATM   18  C12 UNL     1      23.869   3.528  52.642  1.00  0.00     0.010 A 
HETATM   19  C13 UNL     1      23.069   4.654  52.644  1.00  0.00     0.001 A 
HETATM   20  C14 UNL     1      22.091   4.645  51.661  1.00  0.00     0.010 A 
HETATM   21  C15 UNL     1      21.899   3.623  50.744  1.00  0.00    -0.020 A 
HETATM   22  C23 UNL     1      22.753   2.553  50.837  1.00  0.00     0.079 A 
BRANCH  21  23
HETATM   23  C16 UNL     1      20.799   3.790  49.789  1.00  0.00     0.080 C 
BRANCH  23  24
HETATM   24  C17 UNL     1      19.450   3.577  50.366  1.00  0.00    -0.054 A 
HETATM   25  C18 UNL     1      18.462   4.523  50.507  1.00  0.00     0.007 A 
HETATM   26  C19 UNL     1      17.234   4.188  51.082  1.00  0.00     0.001 A 
HETATM   27  C20 UNL     1      16.948   2.903  51.532  1.00  0.00     0.000 A 
HETATM   28  C21 UNL     1      17.935   1.946  51.394  1.00  0.00     0.001 A 
HETATM   29  C22 UNL     1      19.140   2.297  50.825  1.00  0.00     0.007 A 
ENDBRANCH  23  24
ENDBRANCH  21  23
BRANCH  22  30
HETATM   30  O1  UNL     1      22.601   1.508  49.941  1.00  0.00    -0.360 OA
HETATM   31  H18 UNL     1      22.466   0.567  50.277  1.00  0.00     0.217 HD
ENDBRANCH  22  30
ENDBRANCH  16  17
ENDBRANCH  15  16
ENDBRANCH   4  10
TORSDOF 7
ENDMDL
MODEL 9
REMARK VINA RESULT:      -8.5      2.968      6.047
REMARK  7 active torsions:
REMARK  status: ('A' for Active; 'I' for Inactive)
REMARK    1  A    between atoms: C2_3  and  C24_26 
REMARK    2  A    between atoms: C3_4  and  C4_5 
REMARK    3  A    between atoms: C9_10  and  C10_11 
REMARK    4  A    between atoms: C10_11  and  C11_12 
REMARK    5  A    between atoms: C15_16  and  C16_17 
REMARK    6  A    between atoms: C16_17  and  C17_18 
REMARK    7  A    between atoms: C23_24  and  O1_25 
REMARK       I    between atoms: C24_26  and  N2_27 
ROOT
HETATM    1  N1  UNL     1      18.394   3.395  51.726  1.00  0.00    -0.191 NA
HETATM    2  C1  UNL     1      19.028   2.427  51.666  1.00  0.00     0.105 C 
HETATM    3  C2  UNL     1      19.799   1.224  51.589  1.00  0.00     0.112 C 
HETATM    4  C3  UNL     1      20.816   1.044  50.766  1.00  0.00     0.040 C 
ENDROOT
BRANCH   3   5
HETATM    5  C24 UNL     1      19.436   0.140  52.486  1.00  0.00     0.260 C 
HETATM    6  N2  UNL     1      20.396  -0.349  53.413  1.00  0.00    -0.365 N 
HETATM    7  H19 UNL     1      20.250   0.141  54.335  1.00  0.00     0.159 HD
HETATM    8  H20 UNL     1      21.200  -0.940  53.720  1.00  0.00     0.159 HD
HETATM    9  O2  UNL     1      18.320  -0.421  52.514  1.00  0.00    -0.267 OA
ENDBRANCH   3   5
BRANCH   4  10
HETATM   10  C4  UNL     1      21.336   2.004  49.806  1.00  0.00    -0.028 A 
HETATM   11  C5  UNL     1      20.810   1.864  48.518  1.00  0.00     0.012 A 
HETATM   12  C6  UNL     1      21.187   2.681  47.473  1.00  0.00     0.001 A 
HETATM   13  C7  UNL     1      22.124   3.653  47.787  1.00  0.00     0.001 A 
HETATM   14  C8  UNL     1      22.656   3.813  49.039  1.00  0.00     0.008 A 
HETATM   15  C9  UNL     1      22.266   2.987  50.065  1.00  0.00    -0.043 A 
BRANCH  15  16
HETATM   16  C10 UNL     1      22.730   2.983  51.478  1.00  0.00     0.080 C 
BRANCH  16  17
HETATM   17  C11 UNL     1      24.024   2.286  51.583  1.00  0.00    -0.020 A 
HETATM   18  C12 UNL     1      25.103   2.827  50.915  1.00  0.00     0.010 A 
HETATM   19  C13 UNL     1      26.384   2.309  50.920  1.00  0.00     0.001 A 
HETATM   20  C14 UNL     1      26.515   1.155  51.677  1.00  0.00     0.010 A 
HETATM   21  C15 UNL     1      25.486   0.545  52.377  1.00  0.00    -0.020 A 
HETATM   22  C23 UNL     1      24.256   1.148  52.300  1.00  0.00     0.079 A 
BRANCH  21  23
HETATM   23  C16 UNL     1      25.820  -0.682  53.108  1.00  0.00     0.080 C 
BRANCH  23  24
HETATM   24  C17 UNL     1      27.272  -0.900  53.306  1.00  0.00    -0.054 A 
HETATM   25  C18 UNL     1      28.004  -1.980  52.872  1.00  0.00     0.007 A 
HETATM   26  C19 UNL     1      29.372  -2.067  53.138  1.00  0.00     0.001 A 
HETATM   27  C20 UNL     1      30.057  -1.081  53.842  1.00  0.00     0.000 A 
HETATM   28  C21 UNL     1      29.330   0.009  54.283  1.00  0.00     0.001 A 
HETATM   29  C22 UNL     1      27.980   0.073  54.010  1.00  0.00     0.007 A 
ENDBRANCH  23  24
ENDBRANCH  21  23
BRANCH  22  30
HETATM   30  O1  UNL     1      23.196   0.575  52.984  1.00  0.00    -0.360 OA
HETATM   31  H18 UNL     1      23.283  -0.350  53.372  1.00  0.00     0.217 HD
ENDBRANCH  22  30
ENDBRANCH  16  17
ENDBRANCH  15  16
ENDBRANCH   4  10
TORSDOF 7
ENDMDL
