MODEL 1
REMARK VINA RESULT:      -8.6      0.000      0.000
REMARK  3 active torsions:
REMARK  status: ('A' for Active; 'I' for Inactive)
REMARK    1  A    between atoms: C4_5  and  N1_6 
REMARK    2  A    between atoms: N1_6  and  C5_7 
REMARK    3  A    between atoms: C7_9  and  C8_10 
ROOT
HETATM    1  C5  UNL     1      25.195   2.861  51.506  1.00  0.00     0.131 A 
HETATM    2  C6  UNL     1      23.950   2.624  52.100  1.00  0.00     0.082 A 
HETATM    3  C7  UNL     1      22.725   2.575  51.417  1.00  0.00     0.064 A 
HETATM    4  N2  UNL     1      22.840   2.782  50.081  1.00  0.00    -0.242 NA
HETATM    5  C14 UNL     1      24.029   3.010  49.496  1.00  0.00     0.235 A 
HETATM    6  N3  UNL     1      25.195   3.054  50.168  1.00  0.00    -0.224 NA
ENDROOT
BRANCH   1   7
HETATM    7  N1  UNL     1      26.281   2.862  52.412  1.00  0.00    -0.341 N 
HETATM    8  H3  UNL     1      26.330   3.850  52.750  1.00  0.00     0.167 HD
BRANCH   7   9
HETATM    9  C4  UNL     1      27.143   1.823  52.815  1.00  0.00     0.035 A 
HETATM   10  C3  UNL     1      28.293   2.151  53.487  1.00  0.00     0.032 A 
HETATM   11  C2  UNL     1      29.114   1.108  53.871  1.00  0.00     0.046 A 
HETATM   12  C1  UNL     1      28.735  -0.197  53.563  1.00  0.00     0.138 A 
HETATM   13  F1  UNL     1      29.562  -1.185  53.953  1.00  0.00    -0.204 F 
HETATM   14  C16 UNL     1      27.557  -0.505  52.876  1.00  0.00     0.074 A 
HETATM   15  C15 UNL     1      26.741   0.536  52.494  1.00  0.00     0.056 A 
HETATM   16 CL1  UNL     1      27.108  -2.164  52.506  1.00  0.00    -0.081 Cl
ENDBRANCH   7   9
ENDBRANCH   1   7
BRANCH   3  17
HETATM   17  C8  UNL     1      21.500   2.313  52.162  1.00  0.00     0.072 C 
HETATM   18  C9  UNL     1      21.375   1.357  53.077  1.00  0.00     0.118 A 
HETATM   19  O1  UNL     1      20.422   0.838  53.939  1.00  0.00    -0.283 OA
HETATM   20  C11 UNL     1      22.288   0.333  53.623  1.00  0.00     0.161 A 
HETATM   21  C10 UNL     1      21.338  -0.101  54.409  1.00  0.00     0.223 A 
HETATM   22  O3  UNL     1      21.758  -1.143  55.177  1.00  0.00    -0.326 OA
HETATM   23  C13 UNL     1      23.042  -1.623  55.383  1.00  0.00     0.204 C 
HETATM   24  C12 UNL     1      24.135  -0.900  54.654  1.00  0.00     0.203 C 
HETATM   25  O2  UNL     1      23.583  -0.181  53.548  1.00  0.00    -0.342 OA
ENDBRANCH   3  17
TORSDOF 3
ENDMDL
MODEL 2
REMARK VINA RESULT:      -8.4      4.443      6.563
REMARK  3 active torsions:
REMARK  status: ('A' for Active; 'I' for Inactive)
REMARK    1  A    between atoms: C4_5  and  N1_6 
REMARK    2  A    between atoms: N1_6  and  C5_7 
REMARK    3  A    between atoms: C7_9  and  C8_10 
ROOT
HETATM    1  C5  UNL     1      25.637   2.608  51.776  1.00  0.00     0.131 A 
HETATM    2  C6  UNL     1      26.543   3.211  50.897  1.00  0.00     0.082 A 
HETATM    3  C7  UNL     1      26.220   3.724  49.631  1.00  0.00     0.064 A 
HETATM    4  N2  UNL     1      24.909   3.589  49.309  1.00  0.00    -0.242 NA
HETATM    5  C14 UNL     1      24.026   3.012  50.144  1.00  0.00     0.235 A 
HETATM    6  N3  UNL     1      24.355   2.524  51.355  1.00  0.00    -0.224 NA
ENDROOT
BRANCH   1   7
HETATM    7  N1  UNL     1      26.211   2.170  52.992  1.00  0.00    -0.341 N 
HETATM    8  H3  UNL     1      25.651   2.656  53.729  1.00  0.00     0.167 HD
BRANCH   7   9
HETATM    9  C4  UNL     1      27.286   1.292  53.238  1.00  0.00     0.035 A 
HETATM   10  C3  UNL     1      28.442   1.807  53.767  1.00  0.00     0.032 A 
HETATM   11  C2  UNL     1      29.475   0.918  54.000  1.00  0.00     0.046 A 
HETATM   12  C1  UNL     1      29.289  -0.427  53.691  1.00  0.00     0.138 A 
HETATM   13  F1  UNL     1      30.319  -1.261  53.931  1.00  0.00    -0.204 F 
HETATM   14  C16 UNL     1      28.100  -0.927  53.152  1.00  0.00     0.074 A 
HETATM   15  C15 UNL     1      27.073  -0.040  52.921  1.00  0.00     0.056 A 
HETATM   16 CL1  UNL     1      27.898  -2.632  52.777  1.00  0.00    -0.081 Cl
ENDBRANCH   7   9
ENDBRANCH   1   7
BRANCH   3  17
HETATM   17  C8  UNL     1      27.265   4.333  48.818  1.00  0.00     0.072 C 
HETATM   18  C9  UNL     1      27.358   5.638  48.580  1.00  0.00     0.118 A 
HETATM   19  O1  UNL     1      28.165   6.532  47.894  1.00  0.00    -0.283 OA
HETATM   20  C11 UNL     1      26.562   6.814  48.982  1.00  0.00     0.161 A 
HETATM   21  C10 UNL     1      27.369   7.594  48.313  1.00  0.00     0.223 A 
HETATM   22  O3  UNL     1      26.994   8.900  48.404  1.00  0.00    -0.326 OA
HETATM   23  C13 UNL     1      26.064   9.493  49.243  1.00  0.00     0.204 C 
HETATM   24  C12 UNL     1      25.357   8.570  50.191  1.00  0.00     0.203 C 
HETATM   25  O2  UNL     1      25.444   7.227  49.710  1.00  0.00    -0.342 OA
ENDBRANCH   3  17
TORSDOF 3
ENDMDL
MODEL 3
REMARK VINA RESULT:      -8.3      4.433      6.145
REMARK  3 active torsions:
REMARK  status: ('A' for Active; 'I' for Inactive)
REMARK    1  A    between atoms: C4_5  and  N1_6 
REMARK    2  A    between atoms: N1_6  and  C5_7 
REMARK    3  A    between atoms: C7_9  and  C8_10 
ROOT
HETATM    1  C5  UNL     1      24.450   4.196  50.576  1.00  0.00     0.131 A 
HETATM    2  C6  UNL     1      24.567   2.838  50.894  1.00  0.00     0.082 A 
HETATM    3  C7  UNL     1      24.190   2.260  52.116  1.00  0.00     0.064 A 
HETATM    4  N2  UNL     1      23.682   3.150  53.005  1.00  0.00    -0.242 NA
HETATM    5  C14 UNL     1      23.563   4.458  52.713  1.00  0.00     0.235 A 
HETATM    6  N3  UNL     1      23.931   4.995  51.535  1.00  0.00    -0.224 NA
ENDROOT
BRANCH   1   7
HETATM    7  N1  UNL     1      24.902   4.530  49.278  1.00  0.00    -0.341 N 
HETATM    8  H3  UNL     1      24.180   4.120  48.643  1.00  0.00     0.167 HD
BRANCH   7   9
HETATM    9  C4  UNL     1      26.044   5.240  48.857  1.00  0.00     0.035 A 
HETATM   10  C3  UNL     1      27.254   4.595  48.863  1.00  0.00     0.032 A 
HETATM   11  C2  UNL     1      28.353   5.319  48.439  1.00  0.00     0.046 A 
HETATM   12  C1  UNL     1      28.175   6.641  48.036  1.00  0.00     0.138 A 
HETATM   13  F1  UNL     1      29.269   7.313  47.632  1.00  0.00    -0.204 F 
HETATM   14  C16 UNL     1      26.930   7.276  48.040  1.00  0.00     0.074 A 
HETATM   15  C15 UNL     1      25.837   6.553  48.463  1.00  0.00     0.056 A 
HETATM   16 CL1  UNL     1      26.740   8.945  47.522  1.00  0.00    -0.081 Cl
ENDBRANCH   7   9
ENDBRANCH   1   7
BRANCH   3  17
HETATM   17  C8  UNL     1      24.362   0.826  52.312  1.00  0.00     0.072 C 
HETATM   18  C9  UNL     1      25.512   0.254  52.656  1.00  0.00     0.118 A 
HETATM   19  O1  UNL     1      26.029  -1.006  52.917  1.00  0.00    -0.283 OA
HETATM   20  C11 UNL     1      26.869   0.763  52.935  1.00  0.00     0.161 A 
HETATM   21  C10 UNL     1      27.283  -0.454  53.167  1.00  0.00     0.223 A 
HETATM   22  O3  UNL     1      28.604  -0.482  53.495  1.00  0.00    -0.326 OA
HETATM   23  C13 UNL     1      29.453   0.566  53.815  1.00  0.00     0.204 C 
HETATM   24  C12 UNL     1      28.839   1.934  53.795  1.00  0.00     0.203 C 
HETATM   25  O2  UNL     1      27.651   1.918  53.001  1.00  0.00    -0.342 OA
ENDBRANCH   3  17
TORSDOF 3
ENDMDL
MODEL 4
REMARK VINA RESULT:      -8.2      3.109      5.097
REMARK  3 active torsions:
REMARK  status: ('A' for Active; 'I' for Inactive)
REMARK    1  A    between atoms: C4_5  and  N1_6 
REMARK    2  A    between atoms: N1_6  and  C5_7 
REMARK    3  A    between atoms: C7_9  and  C8_10 
ROOT
HETATM    1  C5  UNL     1      26.174   1.460  52.888  1.00  0.00     0.131 A 
HETATM    2  C6  UNL     1      25.263   0.764  53.690  1.00  0.00     0.082 A 
HETATM    3  C7  UNL     1      25.457  -0.531  54.195  1.00  0.00     0.064 A 
HETATM    4  N2  UNL     1      26.643  -1.083  53.835  1.00  0.00    -0.242 NA
HETATM    5  C14 UNL     1      27.529  -0.425  53.065  1.00  0.00     0.235 A 
HETATM    6  N3  UNL     1      27.325   0.817  52.588  1.00  0.00    -0.224 NA
ENDROOT
BRANCH   1   7
HETATM    7  N1  UNL     1      25.744   2.752  52.505  1.00  0.00    -0.341 N 
HETATM    8  H3  UNL     1      26.538   3.376  52.774  1.00  0.00     0.167 HD
BRANCH   7   9
HETATM    9  C4  UNL     1      24.544   3.180  51.903  1.00  0.00     0.035 A 
HETATM   10  C3  UNL     1      23.695   3.975  52.631  1.00  0.00     0.032 A 
HETATM   11  C2  UNL     1      22.529   4.381  52.009  1.00  0.00     0.046 A 
HETATM   12  C1  UNL     1      22.284   3.969  50.701  1.00  0.00     0.138 A 
HETATM   13  F1  UNL     1      21.137   4.385  50.130  1.00  0.00    -0.204 F 
HETATM   14  C16 UNL     1      23.166   3.158  49.981  1.00  0.00     0.074 A 
HETATM   15  C15 UNL     1      24.326   2.755  50.602  1.00  0.00     0.056 A 
HETATM   16 CL1  UNL     1      22.827   2.659  48.329  1.00  0.00    -0.081 Cl
ENDBRANCH   7   9
ENDBRANCH   1   7
BRANCH   3  17
HETATM   17  C8  UNL     1      24.424  -1.137  55.026  1.00  0.00     0.072 C 
HETATM   18  C9  UNL     1      23.122  -1.062  54.768  1.00  0.00     0.118 A 
HETATM   19  O1  UNL     1      21.914  -1.487  55.299  1.00  0.00    -0.283 OA
HETATM   20  C11 UNL     1      22.321  -0.431  53.700  1.00  0.00     0.161 A 
HETATM   21  C10 UNL     1      21.224  -0.868  54.260  1.00  0.00     0.223 A 
HETATM   22  O3  UNL     1      20.119  -0.494  53.557  1.00  0.00    -0.326 OA
HETATM   23  C13 UNL     1      20.028   0.058  52.289  1.00  0.00     0.204 C 
HETATM   24  C12 UNL     1      21.330   0.286  51.580  1.00  0.00     0.203 C 
HETATM   25  O2  UNL     1      22.396   0.328  52.531  1.00  0.00    -0.342 OA
ENDBRANCH   3  17
TORSDOF 3
ENDMDL
MODEL 5
REMARK VINA RESULT:      -8.1      3.935      5.321
REMARK  3 active torsions:
REMARK  status: ('A' for Active; 'I' for Inactive)
REMARK    1  A    between atoms: C4_5  and  N1_6 
REMARK    2  A    between atoms: N1_6  and  C5_7 
REMARK    3  A    between atoms: C7_9  and  C8_10 
ROOT
HETATM    1  C5  UNL     1      23.900   3.224  50.704  1.00  0.00     0.131 A 
HETATM    2  C6  UNL     1      23.821   2.325  51.774  1.00  0.00     0.082 A 
HETATM    3  C7  UNL     1      22.996   1.190  51.815  1.00  0.00     0.064 A 
HETATM    4  N2  UNL     1      22.250   1.019  50.695  1.00  0.00    -0.242 NA
HETATM    5  C14 UNL     1      22.316   1.874  49.658  1.00  0.00     0.235 A 
HETATM    6  N3  UNL     1      23.113   2.959  49.637  1.00  0.00    -0.224 NA
ENDROOT
BRANCH   1   7
HETATM    7  N1  UNL     1      24.806   4.290  50.907  1.00  0.00    -0.341 N 
HETATM    8  H3  UNL     1      24.630   4.591  51.892  1.00  0.00     0.167 HD
BRANCH   7   9
HETATM    9  C4  UNL     1      25.751   4.871  50.037  1.00  0.00     0.035 A 
HETATM   10  C3  UNL     1      26.720   4.067  49.493  1.00  0.00     0.032 A 
HETATM   11  C2  UNL     1      27.628   4.668  48.641  1.00  0.00     0.046 A 
HETATM   12  C1  UNL     1      27.511   6.033  48.386  1.00  0.00     0.138 A 
HETATM   13  F1  UNL     1      28.415   6.581  47.552  1.00  0.00    -0.204 F 
HETATM   14  C16 UNL     1      26.514   6.831  48.954  1.00  0.00     0.074 A 
HETATM   15  C15 UNL     1      25.611   6.230  49.802  1.00  0.00     0.056 A 
HETATM   16 CL1  UNL     1      26.394   8.550  48.607  1.00  0.00    -0.081 Cl
ENDBRANCH   7   9
ENDBRANCH   1   7
BRANCH   3  17
HETATM   17  C8  UNL     1      23.017   0.334  52.994  1.00  0.00     0.072 C 
HETATM   18  C9  UNL     1      24.127  -0.063  53.607  1.00  0.00     0.118 A 
HETATM   19  O1  UNL     1      24.518  -0.835  54.691  1.00  0.00    -0.283 OA
HETATM   20  C11 UNL     1      25.567   0.169  53.376  1.00  0.00     0.161 A 
HETATM   21  C10 UNL     1      25.857  -0.571  54.412  1.00  0.00     0.223 A 
HETATM   22  O3  UNL     1      27.202  -0.654  54.610  1.00  0.00    -0.326 OA
HETATM   23  C13 UNL     1      28.223   0.082  54.029  1.00  0.00     0.204 C 
HETATM   24  C12 UNL     1      27.797   1.119  53.033  1.00  0.00     0.203 C 
HETATM   25  O2  UNL     1      26.489   0.811  52.547  1.00  0.00    -0.342 OA
ENDBRANCH   3  17
TORSDOF 3
ENDMDL
MODEL 6
REMARK VINA RESULT:      -8.1      3.523      5.212
REMARK  3 active torsions:
REMARK  status: ('A' for Active; 'I' for Inactive)
REMARK    1  A    between atoms: C4_5  and  N1_6 
REMARK    2  A    between atoms: N1_6  and  C5_7 
REMARK    3  A    between atoms: C7_9  and  C8_10 
ROOT
HETATM    1  C5  UNL     1      24.687   1.884  52.983  1.00  0.00     0.131 A 
HETATM    2  C6  UNL     1      24.336   3.220  52.761  1.00  0.00     0.082 A 
HETATM    3  C7  UNL     1      23.311   3.654  51.906  1.00  0.00     0.064 A 
HETATM    4  N2  UNL     1      22.657   2.642  51.284  1.00  0.00    -0.242 NA
HETATM    5  C14 UNL     1      22.982   1.353  51.488  1.00  0.00     0.235 A 
HETATM    6  N3  UNL     1      23.970   0.955  52.312  1.00  0.00    -0.224 NA
ENDROOT
BRANCH   1   7
HETATM    7  N1  UNL     1      25.758   1.707  53.890  1.00  0.00    -0.341 N 
HETATM    8  H3  UNL     1      25.439   2.193  54.758  1.00  0.00     0.167 HD
BRANCH   7   9
HETATM    9  C4  UNL     1      26.994   1.048  53.735  1.00  0.00     0.035 A 
HETATM   10  C3  UNL     1      28.146   1.767  53.926  1.00  0.00     0.032 A 
HETATM   11  C2  UNL     1      29.341   1.089  53.771  1.00  0.00     0.046 A 
HETATM   12  C1  UNL     1      29.311  -0.263  53.437  1.00  0.00     0.138 A 
HETATM   13  F1  UNL     1      30.496  -0.887  53.294  1.00  0.00    -0.204 F 
HETATM   14  C16 UNL     1      28.122  -0.973  53.248  1.00  0.00     0.074 A 
HETATM   15  C15 UNL     1      26.933  -0.296  53.402  1.00  0.00     0.056 A 
HETATM   16 CL1  UNL     1      28.120  -2.681  52.830  1.00  0.00    -0.081 Cl
ENDBRANCH   7   9
ENDBRANCH   1   7
BRANCH   3  17
HETATM   17  C8  UNL     1      23.048   5.082  51.773  1.00  0.00     0.072 C 
HETATM   18  C9  UNL     1      23.835   5.926  51.114  1.00  0.00     0.118 A 
HETATM   19  O1  UNL     1      23.906   7.273  50.793  1.00  0.00    -0.283 OA
HETATM   20  C11 UNL     1      25.100   5.780  50.366  1.00  0.00     0.161 A 
HETATM   21  C10 UNL     1      25.097   7.060  50.103  1.00  0.00     0.223 A 
HETATM   22  O3  UNL     1      26.180   7.422  49.361  1.00  0.00    -0.326 OA
HETATM   23  C13 UNL     1      27.102   6.624  48.702  1.00  0.00     0.204 C 
HETATM   24  C12 UNL     1      26.888   5.144  48.820  1.00  0.00     0.203 C 
HETATM   25  O2  UNL     1      26.072   4.865  49.960  1.00  0.00    -0.342 OA
ENDBRANCH   3  17
TORSDOF 3
ENDMDL
MODEL 7
REMARK VINA RESULT:      -7.7      4.114      5.323
REMARK  3 active torsions:
REMARK  status: ('A' for Active; 'I' for Inactive)
REMARK    1  A    between atoms: C4_5  and  N1_6 
REMARK    2  A    between atoms: N1_6  and  C5_7 
REMARK    3  A    between atoms: C7_9  and  C8_10 
ROOT
HETATM    1  C5  UNL     1      24.839   4.441  50.488  1.00  0.00     0.131 A 
HETATM    2  C6  UNL     1      25.176   3.231  51.107  1.00  0.00     0.082 A 
HETATM    3  C7  UNL     1      24.704   2.806  52.358  1.00  0.00     0.064 A 
HETATM    4  N2  UNL     1      23.862   3.688  52.950  1.00  0.00    -0.242 NA
HETATM    5  C14 UNL     1      23.528   4.854  52.368  1.00  0.00     0.235 A 
HETATM    6  N3  UNL     1      23.991   5.247  51.166  1.00  0.00    -0.224 NA
ENDROOT
BRANCH   1   7
HETATM    7  N1  UNL     1      25.448   4.638  49.227  1.00  0.00    -0.341 N 
HETATM    8  H3  UNL     1      24.956   3.964  48.598  1.00  0.00     0.167 HD
BRANCH   7   9
HETATM    9  C4  UNL     1      26.480   5.513  48.832  1.00  0.00     0.035 A 
HETATM   10  C3  UNL     1      26.196   6.851  48.723  1.00  0.00     0.032 A 
HETATM   11  C2  UNL     1      27.232   7.681  48.337  1.00  0.00     0.046 A 
HETATM   12  C1  UNL     1      28.485   7.125  48.086  1.00  0.00     0.138 A 
HETATM   13  F1  UNL     1      29.467   7.967  47.712  1.00  0.00    -0.204 F 
HETATM   14  C16 UNL     1      28.747   5.758  48.205  1.00  0.00     0.074 A 
HETATM   15  C15 UNL     1      27.714   4.932  48.588  1.00  0.00     0.056 A 
HETATM   16 CL1  UNL     1      30.341   5.089  47.884  1.00  0.00    -0.081 Cl
ENDBRANCH   7   9
ENDBRANCH   1   7
BRANCH   3  17
HETATM   17  C8  UNL     1      25.133   1.515  52.883  1.00  0.00     0.072 C 
HETATM   18  C9  UNL     1      24.300   0.565  53.297  1.00  0.00     0.118 A 
HETATM   19  O1  UNL     1      24.338  -0.714  53.828  1.00  0.00    -0.283 OA
HETATM   20  C11 UNL     1      22.831   0.453  53.378  1.00  0.00     0.161 A 
HETATM   21  C10 UNL     1      22.946  -0.750  53.874  1.00  0.00     0.223 A 
HETATM   22  O3  UNL     1      21.730  -1.306  54.132  1.00  0.00    -0.326 OA
HETATM   23  C13 UNL     1      20.468  -0.878  53.750  1.00  0.00     0.204 C 
HETATM   24  C12 UNL     1      20.423   0.382  52.938  1.00  0.00     0.203 C 
HETATM   25  O2  UNL     1      21.631   1.122  53.130  1.00  0.00    -0.342 OA
ENDBRANCH   3  17
TORSDOF 3
ENDMDL
MODEL 8
REMARK VINA RESULT:      -7.7      3.881      5.935
REMARK  3 active torsions:
REMARK  status: ('A' for Active; 'I' for Inactive)
REMARK    1  A    between atoms: C4_5  and  N1_6 
REMARK    2  A    between atoms: N1_6  and  C5_7 
REMARK    3  A    between atoms: C7_9  and  C8_10 
ROOT
HETATM    1  C5  UNL     1      23.277   3.133  51.549  1.00  0.00     0.131 A 
HETATM    2  C6  UNL     1      24.429   3.101  52.343  1.00  0.00     0.082 A 
HETATM    3  C7  UNL     1      24.766   2.071  53.235  1.00  0.00     0.064 A 
HETATM    4  N2  UNL     1      23.856   1.066  53.273  1.00  0.00    -0.242 NA
HETATM    5  C14 UNL     1      22.745   1.083  52.514  1.00  0.00     0.235 A 
HETATM    6  N3  UNL     1      22.438   2.081  51.664  1.00  0.00    -0.224 NA
ENDROOT
BRANCH   1   7
HETATM    7  N1  UNL     1      23.166   4.283  50.733  1.00  0.00    -0.341 N 
HETATM    8  H3  UNL     1      22.179   4.258  50.389  1.00  0.00     0.167 HD
BRANCH   7   9
HETATM    9  C4  UNL     1      24.113   5.275  50.408  1.00  0.00     0.035 A 
HETATM   10  C3  UNL     1      23.880   6.562  50.821  1.00  0.00     0.032 A 
HETATM   11  C2  UNL     1      24.831   7.509  50.489  1.00  0.00     0.046 A 
HETATM   12  C1  UNL     1      25.954   7.112  49.768  1.00  0.00     0.138 A 
HETATM   13  F1  UNL     1      26.857   8.064  49.463  1.00  0.00    -0.204 F 
HETATM   14  C16 UNL     1      26.168   5.793  49.358  1.00  0.00     0.074 A 
HETATM   15  C15 UNL     1      25.220   4.851  49.689  1.00  0.00     0.056 A 
HETATM   16 CL1  UNL     1      27.600   5.325  48.451  1.00  0.00    -0.081 Cl
ENDBRANCH   7   9
ENDBRANCH   1   7
BRANCH   3  17
HETATM   17  C8  UNL     1      26.004   2.163  53.999  1.00  0.00     0.072 C 
HETATM   18  C9  UNL     1      26.895   1.181  54.094  1.00  0.00     0.118 A 
HETATM   19  O1  UNL     1      28.115   0.917  54.695  1.00  0.00    -0.283 OA
HETATM   20  C11 UNL     1      26.976  -0.188  53.547  1.00  0.00     0.161 A 
HETATM   21  C10 UNL     1      28.125  -0.362  54.144  1.00  0.00     0.223 A 
HETATM   22  O3  UNL     1      28.634  -1.602  53.902  1.00  0.00    -0.326 OA
HETATM   23  C13 UNL     1      28.227  -2.556  52.982  1.00  0.00     0.204 C 
HETATM   24  C12 UNL     1      27.054  -2.180  52.126  1.00  0.00     0.203 C 
HETATM   25  O2  UNL     1      26.317  -1.129  52.754  1.00  0.00    -0.342 OA
ENDBRANCH   3  17
TORSDOF 3
ENDMDL
MODEL 9
REMARK VINA RESULT:      -7.7      3.004      3.612
REMARK  3 active torsions:
REMARK  status: ('A' for Active; 'I' for Inactive)
REMARK    1  A    between atoms: C4_5  and  N1_6 
REMARK    2  A    between atoms: N1_6  and  C5_7 
REMARK    3  A    between atoms: C7_9  and  C8_10 
ROOT
HETATM    1  C5  UNL     1      25.986   2.540  51.464  1.00  0.00     0.131 A 
HETATM    2  C6  UNL     1      24.821   3.290  51.663  1.00  0.00     0.082 A 
HETATM    3  C7  UNL     1      24.449   4.417  50.915  1.00  0.00     0.064 A 
HETATM    4  N2  UNL     1      25.337   4.742  49.943  1.00  0.00    -0.242 NA
HETATM    5  C14 UNL     1      26.460   4.030  49.739  1.00  0.00     0.235 A 
HETATM    6  N3  UNL     1      26.802   2.951  50.468  1.00  0.00    -0.224 NA
ENDROOT
BRANCH   1   7
HETATM    7  N1  UNL     1      26.134   1.449  52.352  1.00  0.00    -0.341 N 
HETATM    8  H3  UNL     1      25.154   1.208  52.627  1.00  0.00     0.167 HD
BRANCH   7   9
HETATM    9  C4  UNL     1      27.290   0.788  52.811  1.00  0.00     0.035 A 
HETATM   10  C3  UNL     1      28.302   1.540  53.352  1.00  0.00     0.032 A 
HETATM   11  C2  UNL     1      29.420   0.860  53.796  1.00  0.00     0.046 A 
HETATM   12  C1  UNL     1      29.458  -0.527  53.675  1.00  0.00     0.138 A 
HETATM   13  F1  UNL     1      30.565  -1.153  54.118  1.00  0.00    -0.204 F 
HETATM   14  C16 UNL     1      28.413  -1.271  53.120  1.00  0.00     0.074 A 
HETATM   15  C15 UNL     1      27.300  -0.591  52.677  1.00  0.00     0.056 A 
HETATM   16 CL1  UNL     1      28.492  -3.022  52.985  1.00  0.00    -0.081 Cl
ENDBRANCH   7   9
ENDBRANCH   1   7
BRANCH   3  17
HETATM   17  C8  UNL     1      23.201   5.103  51.227  1.00  0.00     0.072 C 
HETATM   18  C9  UNL     1      21.995   4.623  50.938  1.00  0.00     0.118 A 
HETATM   19  O1  UNL     1      20.660   4.971  51.071  1.00  0.00    -0.283 OA
HETATM   20  C11 UNL     1      21.510   3.391  50.286  1.00  0.00     0.161 A 
HETATM   21  C10 UNL     1      20.275   3.786  50.448  1.00  0.00     0.223 A 
HETATM   22  O3  UNL     1      19.388   2.880  49.951  1.00  0.00    -0.326 OA
HETATM   23  C13 UNL     1      19.604   1.577  49.529  1.00  0.00     0.204 C 
HETATM   24  C12 UNL     1      21.017   1.085  49.625  1.00  0.00     0.203 C 
HETATM   25  O2  UNL     1      21.912   2.198  49.682  1.00  0.00    -0.342 OA
ENDBRANCH   3  17
TORSDOF 3
ENDMDL
