MODEL 1
REMARK VINA RESULT:      -7.8      0.000      0.000
REMARK  1 active torsions:
REMARK  status: ('A' for Active; 'I' for Inactive)
REMARK    1  A    between atoms: N1_1  and  C1_2 
ROOT
HETATM    1  C1  UNL     1      23.264   0.737  52.780  1.00  0.00     0.032 C 
HETATM    2  C2  UNL     1      24.567   1.025  52.978  1.00  0.00    -0.024 C 
HETATM    3  C3  UNL     1      24.901   2.414  53.174  1.00  0.00     0.060 C 
HETATM    4  C4  UNL     1      25.771   2.408  52.202  1.00  0.00     0.129 C 
HETATM    5  N2  UNL     1      26.721   1.439  51.734  1.00  0.00    -0.247 NA
HETATM    6  C5  UNL     1      26.781   0.299  52.358  1.00  0.00     0.096 C 
HETATM    7  C6  UNL     1      25.512  -0.107  52.994  1.00  0.00     0.088 C 
HETATM    8  N3  UNL     1      25.902   3.465  51.223  1.00  0.00    -0.319 N 
HETATM    9  C7  UNL     1      25.346   3.916  50.019  1.00  0.00     0.184 A 
HETATM   10  O1  UNL     1      24.819   4.210  49.022  1.00  0.00    -0.287 OA
HETATM   11  C8  UNL     1      24.221   3.238  49.347  1.00  0.00     0.126 A 
HETATM   12  C9  UNL     1      23.305   2.677  48.821  1.00  0.00    -0.055 C 
HETATM   13  C10 UNL     1      22.240   2.019  48.234  1.00  0.00     0.099 C 
HETATM   14  C11 UNL     1      21.007   2.155  48.687  1.00  0.00     0.019 C 
HETATM   15  C12 UNL     1      19.588   2.266  49.149  1.00  0.00     0.122 C 
HETATM   16  N4  UNL     1      19.530   1.890  50.507  1.00  0.00    -0.411 N 
HETATM   17  C13 UNL     1      19.108   2.863  51.440  1.00  0.00     0.121 C 
HETATM   18  C14 UNL     1      19.984   2.836  52.657  1.00  0.00     0.053 C 
HETATM   19  C15 UNL     1      20.846   1.601  52.597  1.00  0.00    -0.075 C 
HETATM   20  C16 UNL     1      22.175   1.705  52.773  1.00  0.00     0.032 C 
HETATM   21  C17 UNL     1      19.980   0.425  52.340  1.00  0.00     0.053 C 
HETATM   22  C18 UNL     1      19.507   0.537  50.884  1.00  0.00     0.121 C 
HETATM   23  H7  UNL     1      26.607   4.228  51.301  1.00  0.00     0.169 HD
ENDROOT
BRANCH   1  24
HETATM   24  N1  UNL     1      22.910  -0.623  52.581  1.00  0.00    -0.399 N 
HETATM   25  H1  UNL     1      22.036  -1.225  52.484  1.00  0.00     0.156 HD
HETATM   26  H2  UNL     1      22.682  -1.626  52.435  1.00  0.00     0.156 HD
ENDBRANCH   1  24
TORSDOF 1
ENDMDL
MODEL 2
REMARK VINA RESULT:      -7.4      2.519      4.736
REMARK  1 active torsions:
REMARK  status: ('A' for Active; 'I' for Inactive)
REMARK    1  A    between atoms: N1_1  and  C1_2 
ROOT
HETATM    1  C1  UNL     1      22.468   5.721  50.414  1.00  0.00     0.032 C 
HETATM    2  C2  UNL     1      23.449   6.432  49.821  1.00  0.00    -0.024 C 
HETATM    3  C3  UNL     1      24.055   5.848  48.649  1.00  0.00     0.060 C 
HETATM    4  C4  UNL     1      25.256   5.931  49.152  1.00  0.00     0.129 C 
HETATM    5  N2  UNL     1      25.921   6.910  49.965  1.00  0.00    -0.247 NA
HETATM    6  C5  UNL     1      25.244   7.963  50.321  1.00  0.00     0.096 C 
HETATM    7  C6  UNL     1      23.788   7.738  50.415  1.00  0.00     0.088 C 
HETATM    8  N3  UNL     1      26.249   4.882  49.062  1.00  0.00    -0.319 N 
HETATM    9  C7  UNL     1      26.639   3.690  49.685  1.00  0.00     0.184 A 
HETATM   10  O1  UNL     1      26.886   2.712  50.268  1.00  0.00    -0.287 OA
HETATM   11  C8  UNL     1      25.928   3.113  50.841  1.00  0.00     0.126 A 
HETATM   12  C9  UNL     1      25.333   2.659  51.775  1.00  0.00    -0.055 C 
HETATM   13  C10 UNL     1      24.627   2.148  52.847  1.00  0.00     0.099 C 
HETATM   14  C11 UNL     1      23.479   1.516  52.682  1.00  0.00     0.019 C 
HETATM   15  C12 UNL     1      22.176   0.790  52.565  1.00  0.00     0.122 C 
HETATM   16  N4  UNL     1      21.255   1.629  51.905  1.00  0.00    -0.411 N 
HETATM   17  C13 UNL     1      20.738   1.190  50.665  1.00  0.00     0.121 C 
HETATM   18  C14 UNL     1      20.724   2.316  49.675  1.00  0.00     0.053 C 
HETATM   19  C15 UNL     1      21.007   3.601  50.411  1.00  0.00    -0.075 C 
HETATM   20  C16 UNL     1      21.960   4.435  49.956  1.00  0.00     0.032 C 
HETATM   21  C17 UNL     1      20.100   3.695  51.579  1.00  0.00     0.053 C 
HETATM   22  C18 UNL     1      20.581   2.650  52.595  1.00  0.00     0.121 C 
HETATM   23  H7  UNL     1      26.996   4.868  48.337  1.00  0.00     0.169 HD
ENDROOT
BRANCH   1  24
HETATM   24  N1  UNL     1      21.858   6.273  51.570  1.00  0.00    -0.399 N 
HETATM   25  H1  UNL     1      21.162   7.036  51.830  1.00  0.00     0.156 HD
HETATM   26  H2  UNL     1      21.427   6.657  52.435  1.00  0.00     0.156 HD
ENDBRANCH   1  24
TORSDOF 1
ENDMDL
MODEL 3
REMARK VINA RESULT:      -7.2      2.372      5.760
REMARK  1 active torsions:
REMARK  status: ('A' for Active; 'I' for Inactive)
REMARK    1  A    between atoms: N1_1  and  C1_2 
ROOT
HETATM    1  C1  UNL     1      24.837   3.415  50.519  1.00  0.00     0.032 C 
HETATM    2  C2  UNL     1      23.978   4.375  50.120  1.00  0.00    -0.024 C 
HETATM    3  C3  UNL     1      23.386   5.187  51.154  1.00  0.00     0.060 C 
HETATM    4  C4  UNL     1      22.173   4.915  50.762  1.00  0.00     0.129 C 
HETATM    5  N2  UNL     1      21.569   4.739  49.471  1.00  0.00    -0.247 NA
HETATM    6  C5  UNL     1      22.332   4.855  48.423  1.00  0.00     0.096 C 
HETATM    7  C6  UNL     1      23.747   4.510  48.669  1.00  0.00     0.088 C 
HETATM    8  N3  UNL     1      21.080   4.603  51.657  1.00  0.00    -0.319 N 
HETATM    9  C7  UNL     1      20.524   3.535  52.373  1.00  0.00     0.184 A 
HETATM   10  O1  UNL     1      20.137   2.588  52.931  1.00  0.00    -0.287 OA
HETATM   11  C8  UNL     1      21.095   2.175  52.367  1.00  0.00     0.126 A 
HETATM   12  C9  UNL     1      21.578   1.080  52.352  1.00  0.00    -0.055 C 
HETATM   13  C10 UNL     1      22.156  -0.175  52.329  1.00  0.00     0.099 C 
HETATM   14  C11 UNL     1      23.237  -0.452  53.035  1.00  0.00     0.019 C 
HETATM   15  C12 UNL     1      24.459  -0.833  53.812  1.00  0.00     0.122 C 
HETATM   16  N4  UNL     1      25.504   0.044  53.457  1.00  0.00    -0.411 N 
HETATM   17  C13 UNL     1      26.047   0.864  54.471  1.00  0.00     0.121 C 
HETATM   18  C14 UNL     1      26.244   2.262  53.965  1.00  0.00     0.053 C 
HETATM   19  C15 UNL     1      26.057   2.258  52.469  1.00  0.00    -0.075 C 
HETATM   20  C16 UNL     1      25.231   3.151  51.897  1.00  0.00     0.032 C 
HETATM   21  C17 UNL     1      26.895   1.184  51.884  1.00  0.00     0.053 C 
HETATM   22  C18 UNL     1      26.240  -0.148  52.275  1.00  0.00     0.121 C 
HETATM   23  H7  UNL     1      20.382   5.309  51.969  1.00  0.00     0.169 HD
ENDROOT
BRANCH   1  24
HETATM   24  N1  UNL     1      25.431   2.601  49.520  1.00  0.00    -0.399 N 
HETATM   25  H1  UNL     1      25.738   2.665  48.502  1.00  0.00     0.156 HD
HETATM   26  H2  UNL     1      25.867   1.980  48.809  1.00  0.00     0.156 HD
ENDBRANCH   1  24
TORSDOF 1
ENDMDL
MODEL 4
REMARK VINA RESULT:      -7.1      3.276      6.372
REMARK  1 active torsions:
REMARK  status: ('A' for Active; 'I' for Inactive)
REMARK    1  A    between atoms: N1_1  and  C1_2 
ROOT
HETATM    1  C1  UNL     1      23.119   5.694  50.842  1.00  0.00     0.032 C 
HETATM    2  C2  UNL     1      22.704   4.785  51.747  1.00  0.00    -0.024 C 
HETATM    3  C3  UNL     1      23.446   4.712  52.982  1.00  0.00     0.060 C 
HETATM    4  C4  UNL     1      23.677   3.436  52.842  1.00  0.00     0.129 C 
HETATM    5  N2  UNL     1      22.897   2.341  52.339  1.00  0.00    -0.247 NA
HETATM    6  C5  UNL     1      21.696   2.599  51.908  1.00  0.00     0.096 C 
HETATM    7  C6  UNL     1      21.524   3.972  51.393  1.00  0.00     0.088 C 
HETATM    8  N3  UNL     1      24.953   2.808  53.107  1.00  0.00    -0.319 N 
HETATM    9  C7  UNL     1      26.196   2.563  52.510  1.00  0.00     0.184 A 
HETATM   10  O1  UNL     1      27.196   2.409  51.930  1.00  0.00    -0.287 OA
HETATM   11  C8  UNL     1      26.545   3.027  51.153  1.00  0.00     0.126 A 
HETATM   12  C9  UNL     1      26.810   3.416  50.053  1.00  0.00    -0.055 C 
HETATM   13  C10 UNL     1      27.098   3.883  48.785  1.00  0.00     0.099 C 
HETATM   14  C11 UNL     1      27.405   5.148  48.566  1.00  0.00     0.019 C 
HETATM   15  C12 UNL     1      27.761   6.567  48.250  1.00  0.00     0.122 C 
HETATM   16  N4  UNL     1      26.717   7.401  48.703  1.00  0.00    -0.411 N 
HETATM   17  C13 UNL     1      27.023   8.349  49.704  1.00  0.00     0.121 C 
HETATM   18  C14 UNL     1      25.950   8.370  50.751  1.00  0.00     0.053 C 
HETATM   19  C15 UNL     1      24.775   7.573  50.245  1.00  0.00    -0.075 C 
HETATM   20  C16 UNL     1      24.231   6.619  51.020  1.00  0.00     0.032 C 
HETATM   21  C17 UNL     1      24.424   8.047  48.884  1.00  0.00     0.053 C 
HETATM   22  C18 UNL     1      25.543   7.566  47.949  1.00  0.00     0.121 C 
HETATM   23  H7  UNL     1      25.176   2.333  54.006  1.00  0.00     0.169 HD
ENDROOT
BRANCH   1  24
HETATM   24  N1  UNL     1      22.406   5.783  49.618  1.00  0.00    -0.399 N 
HETATM   25  H1  UNL     1      21.508   5.417  49.177  1.00  0.00     0.156 HD
HETATM   26  H2  UNL     1      21.907   5.866  48.710  1.00  0.00     0.156 HD
ENDBRANCH   1  24
TORSDOF 1
ENDMDL
MODEL 5
REMARK VINA RESULT:      -6.8      3.408      6.390
REMARK  1 active torsions:
REMARK  status: ('A' for Active; 'I' for Inactive)
REMARK    1  A    between atoms: N1_1  and  C1_2 
ROOT
HETATM    1  C1  UNL     1      24.326   5.046  50.997  1.00  0.00     0.032 C 
HETATM    2  C2  UNL     1      23.716   3.867  51.232  1.00  0.00    -0.024 C 
HETATM    3  C3  UNL     1      24.117   2.753  50.408  1.00  0.00     0.060 C 
HETATM    4  C4  UNL     1      22.894   2.514  50.023  1.00  0.00     0.129 C 
HETATM    5  N2  UNL     1      21.622   2.570  50.688  1.00  0.00    -0.247 NA
HETATM    6  C5  UNL     1      21.606   2.935  51.937  1.00  0.00     0.096 C 
HETATM    7  C6  UNL     1      22.717   3.829  52.317  1.00  0.00     0.088 C 
HETATM    8  N3  UNL     1      22.516   2.200  48.663  1.00  0.00    -0.319 N 
HETATM    9  C7  UNL     1      22.221   2.816  47.440  1.00  0.00     0.184 A 
HETATM   10  O1  UNL     1      21.992   3.419  46.469  1.00  0.00    -0.287 OA
HETATM   11  C8  UNL     1      22.259   4.278  47.243  1.00  0.00     0.126 A 
HETATM   12  C9  UNL     1      22.301   5.465  47.103  1.00  0.00    -0.055 C 
HETATM   13  C10 UNL     1      22.366   6.838  46.960  1.00  0.00     0.099 C 
HETATM   14  C11 UNL     1      23.519   7.468  46.834  1.00  0.00     0.019 C 
HETATM   15  C12 UNL     1      24.791   8.243  46.685  1.00  0.00     0.122 C 
HETATM   16  N4  UNL     1      25.615   7.966  47.795  1.00  0.00    -0.411 N 
HETATM   17  C13 UNL     1      26.860   7.344  47.549  1.00  0.00     0.121 C 
HETATM   18  C14 UNL     1      27.105   6.250  48.546  1.00  0.00     0.053 C 
HETATM   19  C15 UNL     1      26.073   6.362  49.639  1.00  0.00    -0.075 C 
HETATM   20  C16 UNL     1      25.367   5.278  50.003  1.00  0.00     0.032 C 
HETATM   21  C17 UNL     1      26.049   7.759  50.135  1.00  0.00     0.053 C 
HETATM   22  C18 UNL     1      25.411   8.609  49.027  1.00  0.00     0.121 C 
HETATM   23  H7  UNL     1      22.379   1.226  48.322  1.00  0.00     0.169 HD
ENDROOT
BRANCH   1  24
HETATM   24  N1  UNL     1      23.946   6.158  51.793  1.00  0.00    -0.399 N 
HETATM   25  H1  UNL     1      23.141   6.850  51.884  1.00  0.00     0.156 HD
HETATM   26  H2  UNL     1      23.695   6.970  52.392  1.00  0.00     0.156 HD
ENDBRANCH   1  24
TORSDOF 1
ENDMDL
MODEL 6
REMARK VINA RESULT:      -6.7      3.021      4.845
REMARK  1 active torsions:
REMARK  status: ('A' for Active; 'I' for Inactive)
REMARK    1  A    between atoms: N1_1  and  C1_2 
ROOT
HETATM    1  C1  UNL     1      24.549   5.239  50.578  1.00  0.00     0.032 C 
HETATM    2  C2  UNL     1      24.731   6.369  49.866  1.00  0.00    -0.024 C 
HETATM    3  C3  UNL     1      23.568   7.195  49.650  1.00  0.00     0.060 C 
HETATM    4  C4  UNL     1      23.722   7.183  48.354  1.00  0.00     0.129 C 
HETATM    5  N2  UNL     1      24.873   7.223  47.497  1.00  0.00    -0.247 NA
HETATM    6  C5  UNL     1      26.046   7.276  48.058  1.00  0.00     0.096 C 
HETATM    7  C6  UNL     1      26.100   6.657  49.398  1.00  0.00     0.088 C 
HETATM    8  N3  UNL     1      22.641   7.011  47.409  1.00  0.00    -0.319 N 
HETATM    9  C7  UNL     1      21.871   6.013  46.798  1.00  0.00     0.184 A 
HETATM   10  O1  UNL     1      21.286   5.114  46.343  1.00  0.00    -0.287 OA
HETATM   11  C8  UNL     1      22.045   4.575  47.079  1.00  0.00     0.126 A 
HETATM   12  C9  UNL     1      22.199   3.415  47.324  1.00  0.00    -0.055 C 
HETATM   13  C10 UNL     1      22.386   2.080  47.630  1.00  0.00     0.099 C 
HETATM   14  C11 UNL     1      21.920   1.553  48.747  1.00  0.00     0.019 C 
HETATM   15  C12 UNL     1      21.418   0.893  49.993  1.00  0.00     0.122 C 
HETATM   16  N4  UNL     1      21.939   1.585  51.106  1.00  0.00    -0.411 N 
HETATM   17  C13 UNL     1      21.021   2.210  51.979  1.00  0.00     0.121 C 
HETATM   18  C14 UNL     1      21.500   3.581  52.350  1.00  0.00     0.053 C 
HETATM   19  C15 UNL     1      22.928   3.728  51.889  1.00  0.00    -0.075 C 
HETATM   20  C16 UNL     1      23.288   4.801  51.163  1.00  0.00     0.032 C 
HETATM   21  C17 UNL     1      23.711   2.566  52.374  1.00  0.00     0.053 C 
HETATM   22  C18 UNL     1      23.250   1.352  51.555  1.00  0.00     0.121 C 
HETATM   23  H7  UNL     1      22.168   7.809  46.935  1.00  0.00     0.169 HD
ENDROOT
BRANCH   1  24
HETATM   24  N1  UNL     1      25.678   4.408  50.801  1.00  0.00    -0.399 N 
HETATM   25  H1  UNL     1      26.727   4.497  50.967  1.00  0.00     0.156 HD
HETATM   26  H2  UNL     1      26.486   3.774  50.963  1.00  0.00     0.156 HD
ENDBRANCH   1  24
TORSDOF 1
ENDMDL
MODEL 7
REMARK VINA RESULT:      -6.6      9.308     12.433
REMARK  1 active torsions:
REMARK  status: ('A' for Active; 'I' for Inactive)
REMARK    1  A    between atoms: N1_1  and  C1_2 
ROOT
HETATM    1  C1  UNL     1      31.708  10.310  46.681  1.00  0.00     0.032 C 
HETATM    2  C2  UNL     1      30.998  11.410  47.002  1.00  0.00    -0.024 C 
HETATM    3  C3  UNL     1      30.881  11.721  48.406  1.00  0.00     0.060 C 
HETATM    4  C4  UNL     1      29.578  11.747  48.357  1.00  0.00     0.129 C 
HETATM    5  N2  UNL     1      28.636  12.212  47.378  1.00  0.00    -0.247 NA
HETATM    6  C5  UNL     1      29.108  12.721  46.277  1.00  0.00     0.096 C 
HETATM    7  C6  UNL     1      30.431  12.195  45.889  1.00  0.00     0.088 C 
HETATM    8  N3  UNL     1      28.715  11.155  49.356  1.00  0.00    -0.319 N 
HETATM    9  C7  UNL     1      28.152   9.927  49.725  1.00  0.00     0.184 A 
HETATM   10  O1  UNL     1      27.731   8.864  49.951  1.00  0.00    -0.287 OA
HETATM   11  C8  UNL     1      28.400   8.672  48.990  1.00  0.00     0.126 A 
HETATM   12  C9  UNL     1      28.619   7.664  48.384  1.00  0.00    -0.055 C 
HETATM   13  C10 UNL     1      28.892   6.510  47.674  1.00  0.00     0.099 C 
HETATM   14  C11 UNL     1      30.035   5.864  47.817  1.00  0.00     0.019 C 
HETATM   15  C12 UNL     1      31.307   5.084  47.931  1.00  0.00     0.122 C 
HETATM   16  N4  UNL     1      32.386   5.943  47.635  1.00  0.00    -0.411 N 
HETATM   17  C13 UNL     1      33.334   6.181  48.655  1.00  0.00     0.121 C 
HETATM   18  C14 UNL     1      33.685   7.638  48.715  1.00  0.00     0.053 C 
HETATM   19  C15 UNL     1      33.118   8.314  47.492  1.00  0.00    -0.075 C 
HETATM   20  C16 UNL     1      32.381   9.430  47.628  1.00  0.00     0.032 C 
HETATM   21  C17 UNL     1      33.528   7.552  46.289  1.00  0.00     0.053 C 
HETATM   22  C18 UNL     1      32.731   6.240  46.306  1.00  0.00     0.121 C 
HETATM   23  H7  UNL     1      28.289  11.701  50.134  1.00  0.00     0.169 HD
ENDROOT
BRANCH   1  24
HETATM   24  N1  UNL     1      31.834   9.982  45.306  1.00  0.00    -0.399 N 
HETATM   25  H1  UNL     1      31.604   9.182  44.642  1.00  0.00     0.156 HD
HETATM   26  H2  UNL     1      31.941   9.770  44.294  1.00  0.00     0.156 HD
ENDBRANCH   1  24
TORSDOF 1
ENDMDL
MODEL 8
REMARK VINA RESULT:      -6.6     10.588     12.244
REMARK  1 active torsions:
REMARK  status: ('A' for Active; 'I' for Inactive)
REMARK    1  A    between atoms: N1_1  and  C1_2 
ROOT
HETATM    1  C1  UNL     1      31.147   6.614  47.960  1.00  0.00     0.032 C 
HETATM    2  C2  UNL     1      31.996   5.599  48.217  1.00  0.00    -0.024 C 
HETATM    3  C3  UNL     1      32.843   5.739  49.376  1.00  0.00     0.060 C 
HETATM    4  C4  UNL     1      33.931   5.549  48.681  1.00  0.00     0.129 C 
HETATM    5  N2  UNL     1      34.260   4.692  47.577  1.00  0.00    -0.247 NA
HETATM    6  C5  UNL     1      33.324   3.917  47.112  1.00  0.00     0.096 C 
HETATM    7  C6  UNL     1      31.957   4.441  47.303  1.00  0.00     0.088 C 
HETATM    8  N3  UNL     1      35.142   6.324  48.840  1.00  0.00    -0.319 N 
HETATM    9  C7  UNL     1      35.727   7.532  48.441  1.00  0.00     0.184 A 
HETATM   10  O1  UNL     1      36.129   8.556  48.055  1.00  0.00    -0.287 OA
HETATM   11  C8  UNL     1      35.047   8.508  47.569  1.00  0.00     0.126 A 
HETATM   12  C9  UNL     1      34.476   9.289  46.865  1.00  0.00    -0.055 C 
HETATM   13  C10 UNL     1      33.795  10.182  46.059  1.00  0.00     0.099 C 
HETATM   14  C11 UNL     1      32.848  10.966  46.541  1.00  0.00     0.019 C 
HETATM   15  C12 UNL     1      31.768  11.884  47.022  1.00  0.00     0.122 C 
HETATM   16  N4  UNL     1      30.755  11.106  47.620  1.00  0.00    -0.411 N 
HETATM   17  C13 UNL     1      30.491  11.314  48.992  1.00  0.00     0.121 C 
HETATM   18  C14 UNL     1      30.325  10.003  49.699  1.00  0.00     0.053 C 
HETATM   19  C15 UNL     1      30.223   8.912  48.663  1.00  0.00    -0.075 C 
HETATM   20  C16 UNL     1      31.001   7.820  48.765  1.00  0.00     0.032 C 
HETATM   21  C17 UNL     1      29.197   9.295  47.664  1.00  0.00     0.053 C 
HETATM   22  C18 UNL     1      29.794  10.443  46.838  1.00  0.00     0.121 C 
HETATM   23  H7  UNL     1      35.947   6.008  49.421  1.00  0.00     0.169 HD
ENDROOT
BRANCH   1  24
HETATM   24  N1  UNL     1      30.304   6.501  46.823  1.00  0.00    -0.399 N 
HETATM   25  H1  UNL     1      30.046   5.786  46.077  1.00  0.00     0.156 HD
HETATM   26  H2  UNL     1      29.677   6.448  45.996  1.00  0.00     0.156 HD
ENDBRANCH   1  24
TORSDOF 1
ENDMDL
MODEL 9
REMARK VINA RESULT:      -6.6     10.161     13.753
REMARK  1 active torsions:
REMARK  status: ('A' for Active; 'I' for Inactive)
REMARK    1  A    between atoms: N1_1  and  C1_2 
ROOT
HETATM    1  C1  UNL     1      32.083   8.011  46.429  1.00  0.00     0.032 C 
HETATM    2  C2  UNL     1      31.782   7.426  47.606  1.00  0.00    -0.024 C 
HETATM    3  C3  UNL     1      32.867   7.249  48.539  1.00  0.00     0.060 C 
HETATM    4  C4  UNL     1      32.652   5.966  48.643  1.00  0.00     0.129 C 
HETATM    5  N2  UNL     1      31.462   5.164  48.675  1.00  0.00    -0.247 NA
HETATM    6  C5  UNL     1      30.317   5.775  48.578  1.00  0.00     0.096 C 
HETATM    7  C6  UNL     1      30.374   7.045  47.827  1.00  0.00     0.088 C 
HETATM    8  N3  UNL     1      33.697   4.966  48.652  1.00  0.00    -0.319 N 
HETATM    9  C7  UNL     1      34.510   4.226  47.783  1.00  0.00     0.184 A 
HETATM   10  O1  UNL     1      35.139   3.658  46.983  1.00  0.00    -0.287 OA
HETATM   11  C8  UNL     1      34.459   4.365  46.316  1.00  0.00     0.126 A 
HETATM   12  C9  UNL     1      34.405   4.497  45.128  1.00  0.00    -0.055 C 
HETATM   13  C10 UNL     1      34.334   4.672  43.759  1.00  0.00     0.099 C 
HETATM   14  C11 UNL     1      34.892   5.710  43.163  1.00  0.00     0.019 C 
HETATM   15  C12 UNL     1      35.502   6.861  42.426  1.00  0.00     0.122 C 
HETATM   16  N4  UNL     1      34.984   8.058  42.962  1.00  0.00    -0.411 N 
HETATM   17  C13 UNL     1      35.893   8.953  43.568  1.00  0.00     0.121 C 
HETATM   18  C14 UNL     1      35.330   9.481  44.854  1.00  0.00     0.053 C 
HETATM   19  C15 UNL     1      33.875   9.095  44.930  1.00  0.00    -0.075 C 
HETATM   20  C16 UNL     1      33.400   8.497  46.037  1.00  0.00     0.032 C 
HETATM   21  C17 UNL     1      33.207   9.490  43.667  1.00  0.00     0.053 C 
HETATM   22  C18 UNL     1      33.718   8.534  42.581  1.00  0.00     0.121 C 
HETATM   23  H7  UNL     1      34.085   4.557  49.528  1.00  0.00     0.169 HD
ENDROOT
BRANCH   1  24
HETATM   24  N1  UNL     1      31.032   8.194  45.492  1.00  0.00    -0.399 N 
HETATM   25  H1  UNL     1      30.105   7.745  45.220  1.00  0.00     0.156 HD
HETATM   26  H2  UNL     1      30.278   8.353  44.795  1.00  0.00     0.156 HD
ENDBRANCH   1  24
TORSDOF 1
ENDMDL
