MODEL 1
REMARK VINA RESULT:      -9.1      0.000      0.000
REMARK  4 active torsions:
REMARK  status: ('A' for Active; 'I' for Inactive)
REMARK    1  A    between atoms: C2_2  and  C3_3 
REMARK    2  A    between atoms: C9_9  and  C10_10 
REMARK    3  A    between atoms: C10_10  and  N1_11 
REMARK    4  A    between atoms: C15_17  and  N3_18 
ROOT
HETATM    1  C3  UNL     1      25.170   0.511  52.642  1.00  0.00    -0.018 C 
HETATM    2  C4  UNL     1      24.469   0.206  53.738  1.00  0.00    -0.018 C 
HETATM    3  C5  UNL     1      23.303  -0.176  53.170  1.00  0.00    -0.010 C 
HETATM    4  C6  UNL     1      22.809   1.137  52.911  1.00  0.00     0.056 C 
HETATM    5  C7  UNL     1      21.698   1.265  51.893  1.00  0.00    -0.010 C 
HETATM    6  C8  UNL     1      21.692   2.509  51.435  1.00  0.00    -0.025 C 
HETATM    7  C9  UNL     1      22.917   3.047  51.573  1.00  0.00    -0.042 C 
HETATM    8  C17 UNL     1      23.880   2.080  50.874  1.00  0.00     0.056 C 
HETATM    9  C18 UNL     1      24.263   3.040  49.776  1.00  0.00     0.041 C 
HETATM   10  C19 UNL     1      25.612   3.607  49.899  1.00  0.00    -0.024 C 
HETATM   11  C20 UNL     1      26.539   3.178  50.758  1.00  0.00     0.015 C 
HETATM   12  C21 UNL     1      26.174   2.076  51.651  1.00  0.00     0.018 C 
HETATM   13 BR1  UNL     1      27.736   1.686  52.733  1.00  0.00    -0.051 Br
HETATM   14  C22 UNL     1      24.943   1.539  51.637  1.00  0.00    -0.021 C 
ENDROOT
BRANCH   7  15
HETATM   15  C10 UNL     1      22.801   4.284  52.282  1.00  0.00     0.165 C 
BRANCH  15  16
HETATM   16  N1  UNL     1      22.359   5.409  51.441  1.00  0.00    -0.337 N 
HETATM   17  C11 UNL     1      21.134   5.699  50.967  1.00  0.00     0.094 A 
HETATM   18  C12 UNL     1      21.155   6.832  50.186  1.00  0.00     0.034 A 
HETATM   19  C13 UNL     1      22.474   7.220  50.213  1.00  0.00     0.030 A 
HETATM   20  C14 UNL     1      22.973   8.330  49.560  1.00  0.00     0.151 A 
HETATM   21  C16 UNL     1      23.230   6.359  50.979  1.00  0.00     0.161 A 
HETATM   22  N2  UNL     1      24.295   8.551  49.710  1.00  0.00    -0.074 NA
HETATM   23  C15 UNL     1      25.060   7.733  50.445  1.00  0.00     0.721 A 
HETATM   24  N4  UNL     1      24.559   6.638  51.086  1.00  0.00    -0.044 NA
BRANCH  23  25
HETATM   25  N3  UNL     1      26.468   7.971  50.608  1.00  0.00    -0.231 N 
HETATM   26  H13 UNL     1      26.840   7.073  50.152  1.00  0.00     0.174 HD
HETATM   27  H14 UNL     1      26.506   8.906  51.092  1.00  0.00     0.174 HD
ENDBRANCH  23  25
ENDBRANCH  15  16
ENDBRANCH   7  15
BRANCH   1  28
HETATM   28  C2  UNL     1      26.208  -0.485  52.626  1.00  0.00     0.002 C 
HETATM   29  C1  UNL     1      26.770  -1.701  52.593  1.00  0.00     0.012 C 
ENDBRANCH   1  28
TORSDOF 4
ENDMDL
MODEL 2
REMARK VINA RESULT:      -8.8      2.528      3.991
REMARK  4 active torsions:
REMARK  status: ('A' for Active; 'I' for Inactive)
REMARK    1  A    between atoms: C2_2  and  C3_3 
REMARK    2  A    between atoms: C9_9  and  C10_10 
REMARK    3  A    between atoms: C10_10  and  N1_11 
REMARK    4  A    between atoms: C15_17  and  N3_18 
ROOT
HETATM    1  C3  UNL     1      24.083   0.010  53.189  1.00  0.00    -0.018 C 
HETATM    2  C4  UNL     1      24.944  -0.899  52.724  1.00  0.00    -0.018 C 
HETATM    3  C5  UNL     1      26.103  -0.388  53.195  1.00  0.00    -0.010 C 
HETATM    4  C6  UNL     1      26.248   0.629  52.205  1.00  0.00     0.056 C 
HETATM    5  C7  UNL     1      27.190   1.768  52.523  1.00  0.00    -0.010 C 
HETATM    6  C8  UNL     1      26.859   2.806  51.767  1.00  0.00    -0.025 C 
HETATM    7  C9  UNL     1      25.563   2.717  51.419  1.00  0.00    -0.042 C 
HETATM    8  C17 UNL     1      24.786   2.569  52.733  1.00  0.00     0.056 C 
HETATM    9  C18 UNL     1      24.080   3.898  52.623  1.00  0.00     0.041 C 
HETATM   10  C19 UNL     1      22.656   3.809  52.277  1.00  0.00    -0.024 C 
HETATM   11  C20 UNL     1      21.947   2.679  52.268  1.00  0.00     0.015 C 
HETATM   12  C21 UNL     1      22.647   1.440  52.612  1.00  0.00     0.018 C 
HETATM   13 BR1  UNL     1      21.337   0.011  52.533  1.00  0.00    -0.051 Br
HETATM   14  C22 UNL     1      23.962   1.429  52.888  1.00  0.00    -0.021 C 
ENDROOT
BRANCH   7  15
HETATM   15  C10 UNL     1      25.459   2.818  49.996  1.00  0.00     0.165 C 
BRANCH  15  16
HETATM   16  N1  UNL     1      25.382   4.205  49.506  1.00  0.00    -0.337 N 
HETATM   17  C11 UNL     1      24.323   5.030  49.420  1.00  0.00     0.094 A 
HETATM   18  C12 UNL     1      24.675   6.241  48.869  1.00  0.00     0.034 A 
HETATM   19  C13 UNL     1      26.021   6.105  48.622  1.00  0.00     0.030 A 
HETATM   20  C14 UNL     1      26.813   7.090  48.065  1.00  0.00     0.151 A 
HETATM   21  C16 UNL     1      26.474   4.862  49.007  1.00  0.00     0.161 A 
HETATM   22  N2  UNL     1      28.114   6.772  47.905  1.00  0.00    -0.074 NA
HETATM   23  C15 UNL     1      28.589   5.572  48.265  1.00  0.00     0.721 A 
HETATM   24  N4  UNL     1      27.799   4.605  48.814  1.00  0.00    -0.044 NA
BRANCH  23  25
HETATM   25  N3  UNL     1      29.975   5.235  48.098  1.00  0.00    -0.231 N 
HETATM   26  H13 UNL     1      29.866   4.186  47.900  1.00  0.00     0.174 HD
HETATM   27  H14 UNL     1      30.471   6.154  48.240  1.00  0.00     0.174 HD
ENDBRANCH  23  25
ENDBRANCH  15  16
ENDBRANCH   7  15
BRANCH   1  28
HETATM   28  C2  UNL     1      23.310  -0.728  54.153  1.00  0.00     0.002 C 
HETATM   29  C1  UNL     1      23.008  -1.338  55.307  1.00  0.00     0.012 C 
ENDBRANCH   1  28
TORSDOF 4
ENDMDL
MODEL 3
REMARK VINA RESULT:      -8.8      3.504      6.948
REMARK  4 active torsions:
REMARK  status: ('A' for Active; 'I' for Inactive)
REMARK    1  A    between atoms: C2_2  and  C3_3 
REMARK    2  A    between atoms: C9_9  and  C10_10 
REMARK    3  A    between atoms: C10_10  and  N1_11 
REMARK    4  A    between atoms: C15_17  and  N3_18 
ROOT
HETATM    1  C3  UNL     1      24.417   6.227  48.561  1.00  0.00    -0.018 C 
HETATM    2  C4  UNL     1      25.516   6.796  49.065  1.00  0.00    -0.018 C 
HETATM    3  C5  UNL     1      26.443   5.884  48.694  1.00  0.00    -0.010 C 
HETATM    4  C6  UNL     1      26.157   4.933  49.718  1.00  0.00     0.056 C 
HETATM    5  C7  UNL     1      26.648   3.520  49.500  1.00  0.00    -0.010 C 
HETATM    6  C8  UNL     1      25.924   2.706  50.256  1.00  0.00    -0.025 C 
HETATM    7  C9  UNL     1      24.727   3.265  50.505  1.00  0.00    -0.042 C 
HETATM    8  C17 UNL     1      24.133   3.612  49.134  1.00  0.00     0.056 C 
HETATM    9  C18 UNL     1      22.996   2.626  49.225  1.00  0.00     0.041 C 
HETATM   10  C19 UNL     1      21.678   3.230  49.463  1.00  0.00    -0.024 C 
HETATM   11  C20 UNL     1      21.419   4.537  49.391  1.00  0.00     0.015 C 
HETATM   12  C21 UNL     1      22.535   5.429  49.068  1.00  0.00     0.018 C 
HETATM   13 BR1  UNL     1      21.817   7.231  49.013  1.00  0.00    -0.051 Br
HETATM   14  C22 UNL     1      23.781   4.960  48.889  1.00  0.00    -0.021 C 
ENDROOT
BRANCH   7  15
HETATM   15  C10 UNL     1      24.509   3.279  51.918  1.00  0.00     0.165 C 
BRANCH  15  16
HETATM   16  N1  UNL     1      24.251   1.946  52.490  1.00  0.00    -0.337 N 
HETATM   17  C11 UNL     1      23.155   1.171  52.405  1.00  0.00     0.094 A 
HETATM   18  C12 UNL     1      23.312   0.003  53.118  1.00  0.00     0.034 A 
HETATM   19  C13 UNL     1      24.576   0.113  53.646  1.00  0.00     0.030 A 
HETATM   20  C14 UNL     1      25.173  -0.844  54.442  1.00  0.00     0.151 A 
HETATM   21  C16 UNL     1      25.170   1.299  53.271  1.00  0.00     0.161 A 
HETATM   22  N2  UNL     1      26.424  -0.559  54.861  1.00  0.00    -0.074 NA
HETATM   23  C15 UNL     1      27.030   0.585  54.519  1.00  0.00     0.721 A 
HETATM   24  N4  UNL     1      26.433   1.525  53.731  1.00  0.00    -0.044 NA
BRANCH  23  25
HETATM   25  N3  UNL     1      28.363   0.886  54.961  1.00  0.00    -0.231 N 
HETATM   26  H13 UNL     1      28.905   0.522  54.110  1.00  0.00     0.174 HD
HETATM   27  H14 UNL     1      28.215   1.326  55.908  1.00  0.00     0.174 HD
ENDBRANCH  23  25
ENDBRANCH  15  16
ENDBRANCH   7  15
BRANCH   1  28
HETATM   28  C2  UNL     1      24.017   7.142  47.525  1.00  0.00     0.002 C 
HETATM   29  C1  UNL     1      23.903   7.662  46.295  1.00  0.00     0.012 C 
ENDBRANCH   1  28
TORSDOF 4
ENDMDL
MODEL 4
REMARK VINA RESULT:      -8.7      2.468      3.497
REMARK  4 active torsions:
REMARK  status: ('A' for Active; 'I' for Inactive)
REMARK    1  A    between atoms: C2_2  and  C3_3 
REMARK    2  A    between atoms: C9_9  and  C10_10 
REMARK    3  A    between atoms: C10_10  and  N1_11 
REMARK    4  A    between atoms: C15_17  and  N3_18 
ROOT
HETATM    1  C3  UNL     1      24.153   1.182  52.070  1.00  0.00    -0.018 C 
HETATM    2  C4  UNL     1      24.114   1.215  53.406  1.00  0.00    -0.018 C 
HETATM    3  C5  UNL     1      23.389   0.099  53.646  1.00  0.00    -0.010 C 
HETATM    4  C6  UNL     1      22.115   0.662  53.341  1.00  0.00     0.056 C 
HETATM    5  C7  UNL     1      20.988  -0.304  53.051  1.00  0.00    -0.010 C 
HETATM    6  C8  UNL     1      20.061   0.335  52.351  1.00  0.00    -0.025 C 
HETATM    7  C9  UNL     1      20.622   1.362  51.689  1.00  0.00    -0.042 C 
HETATM    8  C17 UNL     1      21.776   0.759  50.879  1.00  0.00     0.056 C 
HETATM    9  C18 UNL     1      21.158   1.040  49.532  1.00  0.00     0.041 C 
HETATM   10  C19 UNL     1      21.786   2.138  48.787  1.00  0.00    -0.024 C 
HETATM   11  C20 UNL     1      22.938   2.721  49.123  1.00  0.00     0.015 C 
HETATM   12  C21 UNL     1      23.612   2.239  50.331  1.00  0.00     0.018 C 
HETATM   13 BR1  UNL     1      25.249   3.265  50.510  1.00  0.00    -0.051 Br
HETATM   14  C22 UNL     1      23.076   1.275  51.097  1.00  0.00    -0.021 C 
ENDROOT
BRANCH   7  15
HETATM   15  C10 UNL     1      19.902   2.559  51.998  1.00  0.00     0.165 C 
BRANCH  15  16
HETATM   16  N1  UNL     1      20.674   3.791  51.766  1.00  0.00    -0.337 N 
HETATM   17  C11 UNL     1      21.809   4.218  52.349  1.00  0.00     0.094 A 
HETATM   18  C12 UNL     1      22.188   5.450  51.865  1.00  0.00     0.034 A 
HETATM   19  C13 UNL     1      21.211   5.751  50.946  1.00  0.00     0.030 A 
HETATM   20  C14 UNL     1      21.180   6.909  50.194  1.00  0.00     0.151 A 
HETATM   21  C16 UNL     1      20.273   4.744  50.869  1.00  0.00     0.161 A 
HETATM   22  N2  UNL     1      20.143   7.023  49.339  1.00  0.00    -0.074 NA
HETATM   23  C15 UNL     1      19.211   6.066  49.241  1.00  0.00     0.721 A 
HETATM   24  N4  UNL     1      19.249   4.924  49.987  1.00  0.00    -0.044 NA
BRANCH  23  25
HETATM   25  N3  UNL     1      18.109   6.185  48.327  1.00  0.00    -0.231 N 
HETATM   26  H13 UNL     1      17.384   6.603  48.998  1.00  0.00     0.174 HD
HETATM   27  H14 UNL     1      18.500   5.817  47.420  1.00  0.00     0.174 HD
ENDBRANCH  23  25
ENDBRANCH  15  16
ENDBRANCH   7  15
BRANCH   1  28
HETATM   28  C2  UNL     1      25.545   0.952  51.787  1.00  0.00     0.002 C 
HETATM   29  C1  UNL     1      26.771   0.424  51.900  1.00  0.00     0.012 C 
ENDBRANCH   1  28
TORSDOF 4
ENDMDL
MODEL 5
REMARK VINA RESULT:      -8.4      3.472      5.965
REMARK  4 active torsions:
REMARK  status: ('A' for Active; 'I' for Inactive)
REMARK    1  A    between atoms: C2_2  and  C3_3 
REMARK    2  A    between atoms: C9_9  and  C10_10 
REMARK    3  A    between atoms: C10_10  and  N1_11 
REMARK    4  A    between atoms: C15_17  and  N3_18 
ROOT
HETATM    1  C3  UNL     1      25.998   1.834  51.882  1.00  0.00    -0.018 C 
HETATM    2  C4  UNL     1      26.356   2.361  50.706  1.00  0.00    -0.018 C 
HETATM    3  C5  UNL     1      25.719   3.551  50.780  1.00  0.00    -0.010 C 
HETATM    4  C6  UNL     1      24.420   3.062  50.454  1.00  0.00     0.056 C 
HETATM    5  C7  UNL     1      23.244   3.945  50.810  1.00  0.00    -0.010 C 
HETATM    6  C8  UNL     1      22.160   3.184  50.887  1.00  0.00    -0.025 C 
HETATM    7  C9  UNL     1      22.515   1.919  51.170  1.00  0.00    -0.042 C 
HETATM    8  C17 UNL     1      23.370   1.997  52.441  1.00  0.00     0.056 C 
HETATM    9  C18 UNL     1      22.386   1.258  53.312  1.00  0.00     0.041 C 
HETATM   10  C19 UNL     1      22.780  -0.115  53.655  1.00  0.00    -0.024 C 
HETATM   11  C20 UNL     1      23.989  -0.634  53.430  1.00  0.00     0.015 C 
HETATM   12  C21 UNL     1      24.982   0.223  52.780  1.00  0.00     0.018 C 
HETATM   13 BR1  UNL     1      26.614  -0.817  52.633  1.00  0.00    -0.051 Br
HETATM   14  C22 UNL     1      24.683   1.472  52.387  1.00  0.00    -0.021 C 
ENDROOT
BRANCH   7  15
HETATM   15  C10 UNL     1      21.935   1.048  50.195  1.00  0.00     0.165 C 
BRANCH  15  16
HETATM   16  N1  UNL     1      20.483   1.228  50.028  1.00  0.00    -0.337 N 
HETATM   17  C11 UNL     1      19.805   1.947  49.115  1.00  0.00     0.094 A 
HETATM   18  C12 UNL     1      18.447   1.876  49.331  1.00  0.00     0.034 A 
HETATM   19  C13 UNL     1      18.337   1.066  50.436  1.00  0.00     0.030 A 
HETATM   20  C14 UNL     1      17.138   0.706  51.021  1.00  0.00     0.151 A 
HETATM   21  C16 UNL     1      19.576   0.656  50.879  1.00  0.00     0.161 A 
HETATM   22  N2  UNL     1      17.232  -0.103  52.096  1.00  0.00    -0.074 NA
HETATM   23  C15 UNL     1      18.420  -0.517  52.556  1.00  0.00     0.721 A 
HETATM   24  N4  UNL     1      19.600  -0.157  51.972  1.00  0.00    -0.044 NA
BRANCH  23  25
HETATM   25  N3  UNL     1      18.520  -1.382  53.699  1.00  0.00    -0.231 N 
HETATM   26  H13 UNL     1      18.624  -2.319  53.187  1.00  0.00     0.174 HD
HETATM   27  H14 UNL     1      18.452  -0.719  54.515  1.00  0.00     0.174 HD
ENDBRANCH  23  25
ENDBRANCH  15  16
ENDBRANCH   7  15
BRANCH   1  28
HETATM   28  C2  UNL     1      27.241   1.765  52.604  1.00  0.00     0.002 C 
HETATM   29  C1  UNL     1      28.327   2.192  53.263  1.00  0.00     0.012 C 
ENDBRANCH   1  28
TORSDOF 4
ENDMDL
MODEL 6
REMARK VINA RESULT:      -8.2      3.373      6.479
REMARK  4 active torsions:
REMARK  status: ('A' for Active; 'I' for Inactive)
REMARK    1  A    between atoms: C2_2  and  C3_3 
REMARK    2  A    between atoms: C9_9  and  C10_10 
REMARK    3  A    between atoms: C10_10  and  N1_11 
REMARK    4  A    between atoms: C15_17  and  N3_18 
ROOT
HETATM    1  C3  UNL     1      24.588   5.124  49.870  1.00  0.00    -0.018 C 
HETATM    2  C4  UNL     1      23.606   5.366  48.997  1.00  0.00    -0.018 C 
HETATM    3  C5  UNL     1      22.652   5.823  49.838  1.00  0.00    -0.010 C 
HETATM    4  C6  UNL     1      22.243   4.548  50.330  1.00  0.00     0.056 C 
HETATM    5  C7  UNL     1      21.466   4.528  51.627  1.00  0.00    -0.010 C 
HETATM    6  C8  UNL     1      21.583   3.322  52.166  1.00  0.00    -0.025 C 
HETATM    7  C9  UNL     1      22.714   2.741  51.731  1.00  0.00    -0.042 C 
HETATM    8  C17 UNL     1      23.843   3.729  52.049  1.00  0.00     0.056 C 
HETATM    9  C18 UNL     1      24.516   2.843  53.068  1.00  0.00     0.041 C 
HETATM   10  C19 UNL     1      25.771   2.230  52.614  1.00  0.00    -0.024 C 
HETATM   11  C20 UNL     1      26.418   2.567  51.497  1.00  0.00     0.015 C 
HETATM   12  C21 UNL     1      25.821   3.609  50.659  1.00  0.00     0.018 C 
HETATM   13 BR1  UNL     1      27.015   3.872  49.151  1.00  0.00    -0.051 Br
HETATM   14  C22 UNL     1      24.648   4.181  50.977  1.00  0.00    -0.021 C 
ENDROOT
BRANCH   7  15
HETATM   15  C10 UNL     1      22.394   1.458  51.184  1.00  0.00     0.165 C 
BRANCH  15  16
HETATM   16  N1  UNL     1      21.643   0.592  52.108  1.00  0.00    -0.337 N 
HETATM   17  C11 UNL     1      20.326   0.321  52.155  1.00  0.00     0.094 A 
HETATM   18  C12 UNL     1      20.025  -0.520  53.203  1.00  0.00     0.034 A 
HETATM   19  C13 UNL     1      21.244  -0.748  53.796  1.00  0.00     0.030 A 
HETATM   20  C14 UNL     1      21.433  -1.551  54.903  1.00  0.00     0.151 A 
HETATM   21  C16 UNL     1      22.251  -0.075  53.138  1.00  0.00     0.161 A 
HETATM   22  N2  UNL     1      22.706  -1.657  55.338  1.00  0.00    -0.074 NA
HETATM   23  C15 UNL     1      23.708  -1.015  54.725  1.00  0.00     0.721 A 
HETATM   24  N4  UNL     1      23.513  -0.222  53.631  1.00  0.00    -0.044 NA
BRANCH  23  25
HETATM   25  N3  UNL     1      25.064  -1.130  55.186  1.00  0.00    -0.231 N 
HETATM   26  H13 UNL     1      24.869  -1.410  56.203  1.00  0.00     0.174 HD
HETATM   27  H14 UNL     1      25.635  -0.895  54.331  1.00  0.00     0.174 HD
ENDBRANCH  23  25
ENDBRANCH  15  16
ENDBRANCH   7  15
BRANCH   1  28
HETATM   28  C2  UNL     1      25.594   6.089  49.513  1.00  0.00     0.002 C 
HETATM   29  C1  UNL     1      26.233   7.265  49.466  1.00  0.00     0.012 C 
ENDBRANCH   1  28
TORSDOF 4
ENDMDL
MODEL 7
REMARK VINA RESULT:      -8.2      2.345      3.558
REMARK  4 active torsions:
REMARK  status: ('A' for Active; 'I' for Inactive)
REMARK    1  A    between atoms: C2_2  and  C3_3 
REMARK    2  A    between atoms: C9_9  and  C10_10 
REMARK    3  A    between atoms: C10_10  and  N1_11 
REMARK    4  A    between atoms: C15_17  and  N3_18 
ROOT
HETATM    1  C3  UNL     1      22.732   0.046  53.502  1.00  0.00    -0.018 C 
HETATM    2  C4  UNL     1      22.083  -0.036  54.666  1.00  0.00    -0.018 C 
HETATM    3  C5  UNL     1      21.168  -0.982  54.357  1.00  0.00    -0.010 C 
HETATM    4  C6  UNL     1      20.285  -0.127  53.635  1.00  0.00     0.056 C 
HETATM    5  C7  UNL     1      19.288  -0.790  52.711  1.00  0.00    -0.010 C 
HETATM    6  C8  UNL     1      18.903   0.099  51.806  1.00  0.00    -0.025 C 
HETATM    7  C9  UNL     1      19.857   1.034  51.656  1.00  0.00    -0.042 C 
HETATM    8  C17 UNL     1      21.148   0.269  51.337  1.00  0.00     0.056 C 
HETATM    9  C18 UNL     1      21.278   0.802  49.932  1.00  0.00     0.041 C 
HETATM   10  C19 UNL     1      22.341   1.799  49.750  1.00  0.00    -0.024 C 
HETATM   11  C20 UNL     1      23.279   2.080  50.656  1.00  0.00     0.015 C 
HETATM   12  C21 UNL     1      23.231   1.352  51.926  1.00  0.00     0.018 C 
HETATM   13 BR1  UNL     1      24.733   1.971  52.987  1.00  0.00    -0.051 Br
HETATM   14  C22 UNL     1      22.260   0.463  52.190  1.00  0.00    -0.021 C 
ENDROOT
BRANCH   7  15
HETATM   15  C10 UNL     1      19.270   2.326  51.832  1.00  0.00     0.165 C 
BRANCH  15  16
HETATM   16  N1  UNL     1      19.181   3.111  50.589  1.00  0.00    -0.337 N 
HETATM   17  C11 UNL     1      18.477   2.870  49.468  1.00  0.00     0.094 A 
HETATM   18  C12 UNL     1      18.699   3.842  48.519  1.00  0.00     0.034 A 
HETATM   19  C13 UNL     1      19.586   4.696  49.131  1.00  0.00     0.030 A 
HETATM   20  C14 UNL     1      20.096   5.838  48.547  1.00  0.00     0.151 A 
HETATM   21  C16 UNL     1      19.894   4.265  50.403  1.00  0.00     0.161 A 
HETATM   22  N2  UNL     1      20.951   6.553  49.308  1.00  0.00    -0.074 NA
HETATM   23  C15 UNL     1      21.275   6.162  50.548  1.00  0.00     0.721 A 
HETATM   24  N4  UNL     1      20.766   5.031  51.117  1.00  0.00    -0.044 NA
BRANCH  23  25
HETATM   25  N3  UNL     1      22.182   6.924  51.360  1.00  0.00    -0.231 N 
HETATM   26  H13 UNL     1      22.834   7.283  50.587  1.00  0.00     0.174 HD
HETATM   27  H14 UNL     1      21.806   6.795  52.336  1.00  0.00     0.174 HD
ENDBRANCH  23  25
ENDBRANCH  15  16
ENDBRANCH   7  15
BRANCH   1  28
HETATM   28  C2  UNL     1      24.043  -0.457  53.818  1.00  0.00     0.002 C 
HETATM   29  C1  UNL     1      25.057  -0.915  54.564  1.00  0.00     0.012 C 
ENDBRANCH   1  28
TORSDOF 4
ENDMDL
MODEL 8
REMARK VINA RESULT:      -8.2      2.533      4.207
REMARK  4 active torsions:
REMARK  status: ('A' for Active; 'I' for Inactive)
REMARK    1  A    between atoms: C2_2  and  C3_3 
REMARK    2  A    between atoms: C9_9  and  C10_10 
REMARK    3  A    between atoms: C10_10  and  N1_11 
REMARK    4  A    between atoms: C15_17  and  N3_18 
ROOT
HETATM    1  C3  UNL     1      23.734   0.018  53.349  1.00  0.00    -0.018 C 
HETATM    2  C4  UNL     1      24.577  -0.964  53.016  1.00  0.00    -0.018 C 
HETATM    3  C5  UNL     1      25.706  -0.513  53.607  1.00  0.00    -0.010 C 
HETATM    4  C6  UNL     1      26.038   0.454  52.613  1.00  0.00     0.056 C 
HETATM    5  C7  UNL     1      27.014   1.540  53.007  1.00  0.00    -0.010 C 
HETATM    6  C8  UNL     1      26.847   2.569  52.188  1.00  0.00    -0.025 C 
HETATM    7  C9  UNL     1      25.598   2.553  51.691  1.00  0.00    -0.042 C 
HETATM    8  C17 UNL     1      24.663   2.506  52.906  1.00  0.00     0.056 C 
HETATM    9  C18 UNL     1      24.071   3.873  52.675  1.00  0.00     0.041 C 
HETATM   10  C19 UNL     1      22.694   3.867  52.164  1.00  0.00    -0.024 C 
HETATM   11  C20 UNL     1      21.913   2.787  52.103  1.00  0.00     0.015 C 
HETATM   12  C21 UNL     1      22.480   1.517  52.564  1.00  0.00     0.018 C 
HETATM   13 BR1  UNL     1      21.090   0.177  52.370  1.00  0.00    -0.051 Br
HETATM   14  C22 UNL     1      23.749   1.429  52.995  1.00  0.00    -0.021 C 
ENDROOT
BRANCH   7  15
HETATM   15  C10 UNL     1      25.668   2.609  50.263  1.00  0.00     0.165 C 
BRANCH  15  16
HETATM   16  N1  UNL     1      25.231   3.897  49.699  1.00  0.00    -0.337 N 
HETATM   17  C11 UNL     1      25.818   5.106  49.760  1.00  0.00     0.094 A 
HETATM   18  C12 UNL     1      25.060   6.063  49.125  1.00  0.00     0.034 A 
HETATM   19  C13 UNL     1      23.969   5.362  48.669  1.00  0.00     0.030 A 
HETATM   20  C14 UNL     1      22.926   5.921  47.956  1.00  0.00     0.151 A 
HETATM   21  C16 UNL     1      24.056   4.029  49.010  1.00  0.00     0.161 A 
HETATM   22  N2  UNL     1      21.946   5.069  47.589  1.00  0.00    -0.074 NA
HETATM   23  C15 UNL     1      21.996   3.769  47.907  1.00  0.00     0.721 A 
HETATM   24  N4  UNL     1      23.031   3.225  48.611  1.00  0.00    -0.044 NA
BRANCH  23  25
HETATM   25  N3  UNL     1      20.955   2.862  47.513  1.00  0.00    -0.231 N 
HETATM   26  H13 UNL     1      21.564   2.091  47.081  1.00  0.00     0.174 HD
HETATM   27  H14 UNL     1      20.073   3.350  47.822  1.00  0.00     0.174 HD
ENDBRANCH  23  25
ENDBRANCH  15  16
ENDBRANCH   7  15
BRANCH   1  28
HETATM   28  C2  UNL     1      22.804  -0.632  54.234  1.00  0.00     0.002 C 
HETATM   29  C1  UNL     1      22.359  -1.468  55.182  1.00  0.00     0.012 C 
ENDBRANCH   1  28
TORSDOF 4
ENDMDL
MODEL 9
REMARK VINA RESULT:      -8.1      2.840      5.182
REMARK  4 active torsions:
REMARK  status: ('A' for Active; 'I' for Inactive)
REMARK    1  A    between atoms: C2_2  and  C3_3 
REMARK    2  A    between atoms: C9_9  and  C10_10 
REMARK    3  A    between atoms: C10_10  and  N1_11 
REMARK    4  A    between atoms: C15_17  and  N3_18 
ROOT
HETATM    1  C3  UNL     1      25.166   2.942  51.564  1.00  0.00    -0.018 C 
HETATM    2  C4  UNL     1      25.963   2.344  50.673  1.00  0.00    -0.018 C 
HETATM    3  C5  UNL     1      26.745   3.388  50.320  1.00  0.00    -0.010 C 
HETATM    4  C6  UNL     1      25.806   4.008  49.444  1.00  0.00     0.056 C 
HETATM    5  C7  UNL     1      26.043   5.461  49.099  1.00  0.00    -0.010 C 
HETATM    6  C8  UNL     1      24.893   5.988  48.703  1.00  0.00    -0.025 C 
HETATM    7  C9  UNL     1      23.871   5.295  49.233  1.00  0.00    -0.042 C 
HETATM    8  C17 UNL     1      24.114   5.281  50.747  1.00  0.00     0.056 C 
HETATM    9  C18 UNL     1      22.907   6.119  51.086  1.00  0.00     0.041 C 
HETATM   10  C19 UNL     1      21.797   5.377  51.698  1.00  0.00    -0.024 C 
HETATM   11  C20 UNL     1      21.879   4.121  52.141  1.00  0.00     0.015 C 
HETATM   12  C21 UNL     1      23.163   3.433  51.987  1.00  0.00     0.018 C 
HETATM   13 BR1  UNL     1      22.947   1.661  52.750  1.00  0.00    -0.051 Br
HETATM   14  C22 UNL     1      24.210   4.024  51.390  1.00  0.00    -0.021 C 
ENDROOT
BRANCH   7  15
HETATM   15  C10 UNL     1      22.991   4.890  48.180  1.00  0.00     0.165 C 
BRANCH  15  16
HETATM   16  N1  UNL     1      22.246   3.654  48.474  1.00  0.00    -0.337 N 
HETATM   17  C11 UNL     1      22.672   2.378  48.498  1.00  0.00     0.094 A 
HETATM   18  C12 UNL     1      21.642   1.512  48.787  1.00  0.00     0.034 A 
HETATM   19  C13 UNL     1      20.555   2.340  48.939  1.00  0.00     0.030 A 
HETATM   20  C14 UNL     1      19.281   1.905  49.245  1.00  0.00     0.151 A 
HETATM   21  C16 UNL     1      20.906   3.660  48.752  1.00  0.00     0.161 A 
HETATM   22  N2  UNL     1      18.345   2.870  49.359  1.00  0.00    -0.074 NA
HETATM   23  C15 UNL     1      18.650   4.162  49.181  1.00  0.00     0.721 A 
HETATM   24  N4  UNL     1      19.912   4.584  48.879  1.00  0.00    -0.044 NA
BRANCH  23  25
HETATM   25  N3  UNL     1      17.654   5.190  49.307  1.00  0.00    -0.231 N 
HETATM   26  H13 UNL     1      17.810   5.444  50.338  1.00  0.00     0.174 HD
HETATM   27  H14 UNL     1      17.226   5.236  48.345  1.00  0.00     0.174 HD
ENDBRANCH  23  25
ENDBRANCH  15  16
ENDBRANCH   7  15
BRANCH   1  28
HETATM   28  C2  UNL     1      25.524   2.308  52.805  1.00  0.00     0.002 C 
HETATM   29  C1  UNL     1      26.301   1.883  53.811  1.00  0.00     0.012 C 
ENDBRANCH   1  28
TORSDOF 4
ENDMDL
