MODEL 1
REMARK VINA RESULT:      -7.9      0.000      0.000
REMARK  0 active torsions:
REMARK  status: ('A' for Active; 'I' for Inactive)
ROOT
HETATM    1  C1  UNL     1      21.573   3.126  50.124  1.00  0.00     0.035 C 
HETATM    2  C2  UNL     1      22.884   2.398  50.325  1.00  0.00     0.115 C 
HETATM    3  N1  UNL     1      22.649   1.273  51.170  1.00  0.00    -0.308 N 
HETATM    4  N2  UNL     1      23.433   0.630  52.095  1.00  0.00    -0.187 NA
HETATM    5  C3  UNL     1      24.678   0.734  52.345  1.00  0.00     0.042 C 
HETATM    6  C4  UNL     1      25.055  -0.200  53.468  1.00  0.00     0.085 C 
HETATM    7  C5  UNL     1      26.151  -1.098  53.019  1.00  0.00     0.003 C 
HETATM    8  C6  UNL     1      27.354  -0.965  53.537  1.00  0.00     0.131 C 
HETATM    9  O1  UNL     1      28.499  -0.591  54.254  1.00  0.00    -0.361 OA
HETATM   10  C7  UNL     1      28.552   0.766  54.683  1.00  0.00     0.200 C 
HETATM   11  C8  UNL     1      28.944   1.592  53.466  1.00  0.00     0.194 C 
HETATM   12  O2  UNL     1      27.981   1.422  52.470  1.00  0.00    -0.388 OA
HETATM   13  C9  UNL     1      26.736   1.897  52.776  1.00  0.00     0.178 C 
HETATM   14  C10 UNL     1      25.681   1.597  51.703  1.00  0.00     0.061 C 
HETATM   15  C11 UNL     1      25.262   2.788  51.012  1.00  0.00     0.034 C 
HETATM   16  C12 UNL     1      23.861   3.291  51.094  1.00  0.00     0.037 C 
HETATM   17  C13 UNL     1      23.362   3.556  52.450  1.00  0.00    -0.013 C 
HETATM   18  C14 UNL     1      23.380   4.778  52.997  1.00  0.00    -0.026 C 
HETATM   19  C15 UNL     1      23.911   5.952  52.257  1.00  0.00     0.055 C 
HETATM   20  C16 UNL     1      23.868   5.763  50.801  1.00  0.00    -0.003 C 
HETATM   21  C17 UNL     1      23.844   4.553  50.256  1.00  0.00     0.022 C 
HETATM   22 CL1  UNL     1      23.792   4.442  48.495  1.00  0.00    -0.088 Cl
HETATM   23  H5  UNL     1      21.684   0.848  51.067  1.00  0.00     0.182 HD
ENDROOT
TORSDOF 0
ENDMDL
MODEL 2
REMARK VINA RESULT:      -7.7      2.272      3.524
REMARK  0 active torsions:
REMARK  status: ('A' for Active; 'I' for Inactive)
ROOT
HETATM    1  C1  UNL     1      25.096   6.097  48.888  1.00  0.00     0.035 C 
HETATM    2  C2  UNL     1      25.225   5.277  50.153  1.00  0.00     0.115 C 
HETATM    3  N1  UNL     1      26.421   4.505  50.068  1.00  0.00    -0.308 N 
HETATM    4  N2  UNL     1      26.764   3.271  50.563  1.00  0.00    -0.187 NA
HETATM    5  C3  UNL     1      26.174   2.520  51.406  1.00  0.00     0.042 C 
HETATM    6  C4  UNL     1      26.969   1.254  51.611  1.00  0.00     0.085 C 
HETATM    7  C5  UNL     1      27.277   1.092  53.055  1.00  0.00     0.003 C 
HETATM    8  C6  UNL     1      26.704   0.121  53.737  1.00  0.00     0.131 C 
HETATM    9  O1  UNL     1      25.957  -0.977  54.185  1.00  0.00    -0.361 OA
HETATM   10  C7  UNL     1      24.751  -1.244  53.476  1.00  0.00     0.200 C 
HETATM   11  C8  UNL     1      23.723  -0.238  53.971  1.00  0.00     0.194 C 
HETATM   12  O2  UNL     1      24.182   1.053  53.704  1.00  0.00    -0.388 OA
HETATM   13  C9  UNL     1      24.304   1.366  52.378  1.00  0.00     0.178 C 
HETATM   14  C10 UNL     1      24.911   2.751  52.125  1.00  0.00     0.061 C 
HETATM   15  C11 UNL     1      23.944   3.674  51.593  1.00  0.00     0.034 C 
HETATM   16  C12 UNL     1      24.085   4.258  50.228  1.00  0.00     0.037 C 
HETATM   17  C13 UNL     1      24.186   3.284  49.131  1.00  0.00    -0.013 C 
HETATM   18  C14 UNL     1      23.130   2.913  48.399  1.00  0.00    -0.026 C 
HETATM   19  C15 UNL     1      21.774   3.467  48.653  1.00  0.00     0.055 C 
HETATM   20  C16 UNL     1      21.821   4.771  49.328  1.00  0.00    -0.003 C 
HETATM   21  C17 UNL     1      22.870   5.145  50.049  1.00  0.00     0.022 C 
HETATM   22 CL1  UNL     1      22.820   6.735  50.817  1.00  0.00    -0.088 Cl
HETATM   23  H5  UNL     1      27.199   4.969  49.519  1.00  0.00     0.182 HD
ENDROOT
TORSDOF 0
ENDMDL
MODEL 3
REMARK VINA RESULT:      -7.6      2.633      3.946
REMARK  0 active torsions:
REMARK  status: ('A' for Active; 'I' for Inactive)
ROOT
HETATM    1  C1  UNL     1      25.597   5.805  49.063  1.00  0.00     0.035 C 
HETATM    2  C2  UNL     1      25.283   5.022  50.319  1.00  0.00     0.115 C 
HETATM    3  N1  UNL     1      26.248   3.980  50.452  1.00  0.00    -0.308 N 
HETATM    4  N2  UNL     1      26.180   2.718  50.988  1.00  0.00    -0.187 NA
HETATM    5  C3  UNL     1      25.277   2.162  51.695  1.00  0.00     0.042 C 
HETATM    6  C4  UNL     1      25.685   0.749  52.031  1.00  0.00     0.085 C 
HETATM    7  C5  UNL     1      25.670   0.567  53.505  1.00  0.00     0.003 C 
HETATM    8  C6  UNL     1      24.760  -0.211  54.055  1.00  0.00     0.131 C 
HETATM    9  O1  UNL     1      23.697  -1.078  54.340  1.00  0.00    -0.361 OA
HETATM   10  C7  UNL     1      22.616  -1.069  53.412  1.00  0.00     0.200 C 
HETATM   11  C8  UNL     1      21.792   0.173  53.717  1.00  0.00     0.194 C 
HETATM   12  O2  UNL     1      22.594   1.304  53.557  1.00  0.00    -0.388 OA
HETATM   13  C9  UNL     1      23.034   1.532  52.282  1.00  0.00     0.178 C 
HETATM   14  C10 UNL     1      23.998   2.718  52.166  1.00  0.00     0.061 C 
HETATM   15  C11 UNL     1      23.404   3.830  51.471  1.00  0.00     0.034 C 
HETATM   16  C12 UNL     1      23.934   4.314  50.165  1.00  0.00     0.037 C 
HETATM   17  C13 UNL     1      23.997   3.308  49.095  1.00  0.00    -0.013 C 
HETATM   18  C14 UNL     1      23.036   3.179  48.172  1.00  0.00    -0.026 C 
HETATM   19  C15 UNL     1      21.835   4.054  48.173  1.00  0.00     0.055 C 
HETATM   20  C16 UNL     1      22.074   5.331  48.860  1.00  0.00    -0.003 C 
HETATM   21  C17 UNL     1      23.029   5.463  49.771  1.00  0.00     0.022 C 
HETATM   22 CL1  UNL     1      23.229   7.043  50.535  1.00  0.00    -0.088 Cl
HETATM   23  H5  UNL     1      27.203   4.222  50.066  1.00  0.00     0.182 HD
ENDROOT
TORSDOF 0
ENDMDL
MODEL 4
REMARK VINA RESULT:      -7.6      2.772      3.548
REMARK  0 active torsions:
REMARK  status: ('A' for Active; 'I' for Inactive)
ROOT
HETATM    1  C1  UNL     1      20.280   4.290  49.924  1.00  0.00     0.035 C 
HETATM    2  C2  UNL     1      20.724   2.935  50.431  1.00  0.00     0.115 C 
HETATM    3  N1  UNL     1      19.857   2.547  51.495  1.00  0.00    -0.308 N 
HETATM    4  N2  UNL     1      20.057   1.793  52.625  1.00  0.00    -0.187 NA
HETATM    5  C3  UNL     1      21.039   1.059  52.971  1.00  0.00     0.042 C 
HETATM    6  C4  UNL     1      20.767   0.441  54.320  1.00  0.00     0.085 C 
HETATM    7  C5  UNL     1      20.877  -1.037  54.219  1.00  0.00     0.003 C 
HETATM    8  C6  UNL     1      21.876  -1.657  54.812  1.00  0.00     0.131 C 
HETATM    9  O1  UNL     1      23.021  -2.025  55.532  1.00  0.00    -0.361 OA
HETATM   10  C7  UNL     1      24.046  -1.040  55.622  1.00  0.00     0.200 C 
HETATM   11  C8  UNL     1      24.780  -1.054  54.289  1.00  0.00     0.194 C 
HETATM   12  O2  UNL     1      23.879  -0.742  53.269  1.00  0.00    -0.388 OA
HETATM   13  C9  UNL     1      23.354   0.520  53.319  1.00  0.00     0.178 C 
HETATM   14  C10 UNL     1      22.291   0.787  52.247  1.00  0.00     0.061 C 
HETATM   15  C11 UNL     1      22.754   1.713  51.247  1.00  0.00     0.034 C 
HETATM   16  C12 UNL     1      22.116   3.048  51.058  1.00  0.00     0.037 C 
HETATM   17  C13 UNL     1      22.079   3.906  52.250  1.00  0.00    -0.013 C 
HETATM   18  C14 UNL     1      22.996   4.853  52.483  1.00  0.00    -0.026 C 
HETATM   19  C15 UNL     1      24.119   5.096  51.540  1.00  0.00     0.055 C 
HETATM   20  C16 UNL     1      23.814   4.641  50.177  1.00  0.00    -0.003 C 
HETATM   21  C17 UNL     1      22.901   3.707  49.943  1.00  0.00     0.022 C 
HETATM   22 CL1  UNL     1      22.613   3.236  48.265  1.00  0.00    -0.088 Cl
HETATM   23  H5  UNL     1      18.865   2.905  51.398  1.00  0.00     0.182 HD
ENDROOT
TORSDOF 0
ENDMDL
MODEL 5
REMARK VINA RESULT:      -7.5      2.358      3.526
REMARK  0 active torsions:
REMARK  status: ('A' for Active; 'I' for Inactive)
ROOT
HETATM    1  C1  UNL     1      20.835   4.302  51.460  1.00  0.00     0.035 C 
HETATM    2  C2  UNL     1      21.679   3.342  52.270  1.00  0.00     0.115 C 
HETATM    3  N1  UNL     1      22.858   4.024  52.691  1.00  0.00    -0.308 N 
HETATM    4  N2  UNL     1      24.142   3.597  52.925  1.00  0.00    -0.187 NA
HETATM    5  C3  UNL     1      24.623   2.420  53.012  1.00  0.00     0.042 C 
HETATM    6  C4  UNL     1      26.106   2.491  53.282  1.00  0.00     0.085 C 
HETATM    7  C5  UNL     1      26.422   1.727  54.516  1.00  0.00     0.003 C 
HETATM    8  C6  UNL     1      27.107   0.606  54.430  1.00  0.00     0.131 C 
HETATM    9  O1  UNL     1      27.832  -0.524  54.028  1.00  0.00    -0.361 OA
HETATM   10  C7  UNL     1      27.578  -0.993  52.708  1.00  0.00     0.200 C 
HETATM   11  C8  UNL     1      26.263  -1.756  52.763  1.00  0.00     0.194 C 
HETATM   12  O2  UNL     1      25.251  -0.893  53.187  1.00  0.00    -0.388 OA
HETATM   13  C9  UNL     1      24.972   0.141  52.336  1.00  0.00     0.178 C 
HETATM   14  C10 UNL     1      23.933   1.127  52.885  1.00  0.00     0.061 C 
HETATM   15  C11 UNL     1      22.686   1.049  52.170  1.00  0.00     0.034 C 
HETATM   16  C12 UNL     1      22.164   2.198  51.376  1.00  0.00     0.037 C 
HETATM   17  C13 UNL     1      23.064   2.704  50.330  1.00  0.00    -0.013 C 
HETATM   18  C14 UNL     1      22.964   2.326  49.050  1.00  0.00    -0.026 C 
HETATM   19  C15 UNL     1      21.926   1.360  48.604  1.00  0.00     0.055 C 
HETATM   20  C16 UNL     1      20.769   1.325  49.508  1.00  0.00    -0.003 C 
HETATM   21  C17 UNL     1      20.863   1.706  50.776  1.00  0.00     0.022 C 
HETATM   22 CL1  UNL     1      19.409   1.624  51.773  1.00  0.00    -0.088 Cl
HETATM   23  H5  UNL     1      22.723   5.061  52.858  1.00  0.00     0.182 HD
ENDROOT
TORSDOF 0
ENDMDL
MODEL 6
REMARK VINA RESULT:      -7.2      8.381      9.534
REMARK  0 active torsions:
REMARK  status: ('A' for Active; 'I' for Inactive)
ROOT
HETATM    1  C1  UNL     1      29.552  10.251  48.902  1.00  0.00     0.035 C 
HETATM    2  C2  UNL     1      30.228   8.914  49.113  1.00  0.00     0.115 C 
HETATM    3  N1  UNL     1      31.639   9.116  49.102  1.00  0.00    -0.308 N 
HETATM    4  N2  UNL     1      32.686   8.324  48.701  1.00  0.00    -0.187 NA
HETATM    5  C3  UNL     1      32.721   7.090  48.385  1.00  0.00     0.042 C 
HETATM    6  C4  UNL     1      34.128   6.695  48.012  1.00  0.00     0.085 C 
HETATM    7  C5  UNL     1      34.562   5.553  48.857  1.00  0.00     0.003 C 
HETATM    8  C6  UNL     1      34.732   4.366  48.310  1.00  0.00     0.131 C 
HETATM    9  O1  UNL     1      34.826   3.254  47.464  1.00  0.00    -0.361 OA
HETATM   10  C7  UNL     1      33.981   3.268  46.317  1.00  0.00     0.200 C 
HETATM   11  C8  UNL     1      32.589   2.888  46.798  1.00  0.00     0.194 C 
HETATM   12  O2  UNL     1      32.161   3.823  47.742  1.00  0.00    -0.388 OA
HETATM   13  C9  UNL     1      31.986   5.094  47.268  1.00  0.00     0.178 C 
HETATM   14  C10 UNL     1      31.621   6.112  48.354  1.00  0.00     0.061 C 
HETATM   15  C11 UNL     1      30.262   6.569  48.230  1.00  0.00     0.034 C 
HETATM   16  C12 UNL     1      29.937   7.992  47.927  1.00  0.00     0.037 C 
HETATM   17  C13 UNL     1      30.534   8.528  46.695  1.00  0.00    -0.013 C 
HETATM   18  C14 UNL     1      29.869   8.575  45.535  1.00  0.00    -0.026 C 
HETATM   19  C15 UNL     1      28.472   8.080  45.419  1.00  0.00     0.055 C 
HETATM   20  C16 UNL     1      27.768   8.086  46.708  1.00  0.00    -0.003 C 
HETATM   21  C17 UNL     1      28.424   8.047  47.861  1.00  0.00     0.022 C 
HETATM   22 CL1  UNL     1      27.478   8.059  49.351  1.00  0.00    -0.088 Cl
HETATM   23  H5  UNL     1      31.945  10.059  49.475  1.00  0.00     0.182 HD
ENDROOT
TORSDOF 0
ENDMDL
MODEL 7
REMARK VINA RESULT:      -7.2      1.580      2.051
REMARK  0 active torsions:
REMARK  status: ('A' for Active; 'I' for Inactive)
ROOT
HETATM    1  C1  UNL     1      20.664   4.831  49.769  1.00  0.00     0.035 C 
HETATM    2  C2  UNL     1      21.494   3.593  50.031  1.00  0.00     0.115 C 
HETATM    3  N1  UNL     1      20.987   2.950  51.198  1.00  0.00    -0.308 N 
HETATM    4  N2  UNL     1      21.588   2.202  52.179  1.00  0.00    -0.187 NA
HETATM    5  C3  UNL     1      22.759   1.703  52.244  1.00  0.00     0.042 C 
HETATM    6  C4  UNL     1      22.930   0.962  53.547  1.00  0.00     0.085 C 
HETATM    7  C5  UNL     1      23.337  -0.440  53.270  1.00  0.00     0.003 C 
HETATM    8  C6  UNL     1      24.552  -0.838  53.584  1.00  0.00     0.131 C 
HETATM    9  O1  UNL     1      25.878  -0.964  54.020  1.00  0.00    -0.361 OA
HETATM   10  C7  UNL     1      26.656   0.229  54.009  1.00  0.00     0.200 C 
HETATM   11  C8  UNL     1      27.067   0.466  52.563  1.00  0.00     0.194 C 
HETATM   12  O2  UNL     1      25.921   0.613  51.780  1.00  0.00    -0.388 OA
HETATM   13  C9  UNL     1      25.155   1.709  52.067  1.00  0.00     0.178 C 
HETATM   14  C10 UNL     1      23.852   1.778  51.262  1.00  0.00     0.061 C 
HETATM   15  C11 UNL     1      23.871   2.843  50.294  1.00  0.00     0.034 C 
HETATM   16  C12 UNL     1      22.930   3.997  50.378  1.00  0.00     0.037 C 
HETATM   17  C13 UNL     1      22.966   4.752  51.638  1.00  0.00    -0.013 C 
HETATM   18  C14 UNL     1      23.680   5.875  51.783  1.00  0.00    -0.026 C 
HETATM   19  C15 UNL     1      24.490   6.430  50.668  1.00  0.00     0.055 C 
HETATM   20  C16 UNL     1      24.003   5.995  49.352  1.00  0.00    -0.003 C 
HETATM   21  C17 UNL     1      23.289   4.886  49.206  1.00  0.00     0.022 C 
HETATM   22 CL1  UNL     1      22.755   4.458  47.578  1.00  0.00    -0.088 Cl
HETATM   23  H5  UNL     1      19.944   3.067  51.338  1.00  0.00     0.182 HD
ENDROOT
TORSDOF 0
ENDMDL
MODEL 8
REMARK VINA RESULT:      -7.0      4.503      7.045
REMARK  0 active torsions:
REMARK  status: ('A' for Active; 'I' for Inactive)
ROOT
HETATM    1  C1  UNL     1      24.514   0.843  52.222  1.00  0.00     0.035 C 
HETATM    2  C2  UNL     1      23.074   1.176  52.546  1.00  0.00     0.115 C 
HETATM    3  N1  UNL     1      22.260   0.069  52.165  1.00  0.00    -0.308 N 
HETATM    4  N2  UNL     1      20.968  -0.017  51.707  1.00  0.00    -0.187 NA
HETATM    5  C3  UNL     1      20.044   0.859  51.657  1.00  0.00     0.042 C 
HETATM    6  C4  UNL     1      18.798   0.256  51.059  1.00  0.00     0.085 C 
HETATM    7  C5  UNL     1      17.661   0.432  52.000  1.00  0.00     0.003 C 
HETATM    8  C6  UNL     1      16.681   1.255  51.688  1.00  0.00     0.131 C 
HETATM    9  O1  UNL     1      15.808   2.177  51.095  1.00  0.00    -0.361 OA
HETATM   10  C7  UNL     1      16.401   3.111  50.198  1.00  0.00     0.200 C 
HETATM   11  C8  UNL     1      17.070   4.174  51.058  1.00  0.00     0.194 C 
HETATM   12  O2  UNL     1      18.041   3.569  51.859  1.00  0.00    -0.388 OA
HETATM   13  C9  UNL     1      19.091   3.013  51.183  1.00  0.00     0.178 C 
HETATM   14  C10 UNL     1      20.079   2.266  52.087  1.00  0.00     0.061 C 
HETATM   15  C11 UNL     1      21.341   2.951  52.189  1.00  0.00     0.034 C 
HETATM   16  C12 UNL     1      22.605   2.347  51.679  1.00  0.00     0.037 C 
HETATM   17  C13 UNL     1      22.597   1.969  50.258  1.00  0.00    -0.013 C 
HETATM   18  C14 UNL     1      23.091   2.762  49.300  1.00  0.00    -0.026 C 
HETATM   19  C15 UNL     1      23.683   4.088  49.618  1.00  0.00     0.055 C 
HETATM   20  C16 UNL     1      24.160   4.170  51.004  1.00  0.00    -0.003 C 
HETATM   21  C17 UNL     1      23.677   3.381  51.955  1.00  0.00     0.022 C 
HETATM   22 CL1  UNL     1      24.323   3.565  53.588  1.00  0.00    -0.088 Cl
HETATM   23  H5  UNL     1      22.739  -0.871  52.252  1.00  0.00     0.182 HD
ENDROOT
TORSDOF 0
ENDMDL
MODEL 9
REMARK VINA RESULT:      -7.0      4.954      6.833
REMARK  0 active torsions:
REMARK  status: ('A' for Active; 'I' for Inactive)
ROOT
HETATM    1  C1  UNL     1      21.570   5.062  51.263  1.00  0.00     0.035 C 
HETATM    2  C2  UNL     1      23.030   5.440  51.136  1.00  0.00     0.115 C 
HETATM    3  N1  UNL     1      23.152   6.844  51.355  1.00  0.00    -0.308 N 
HETATM    4  N2  UNL     1      24.017   7.787  50.859  1.00  0.00    -0.187 NA
HETATM    5  C3  UNL     1      25.093   7.658  50.189  1.00  0.00     0.042 C 
HETATM    6  C4  UNL     1      25.674   9.016  49.883  1.00  0.00     0.085 C 
HETATM    7  C5  UNL     1      27.071   9.081  50.385  1.00  0.00     0.003 C 
HETATM    8  C6  UNL     1      28.068   9.133  49.527  1.00  0.00     0.131 C 
HETATM    9  O1  UNL     1      28.898   9.178  48.398  1.00  0.00    -0.361 OA
HETATM   10  C7  UNL     1      28.382   8.570  47.218  1.00  0.00     0.200 C 
HETATM   11  C8  UNL     1      28.559   7.068  47.390  1.00  0.00     0.194 C 
HETATM   12  O2  UNL     1      27.847   6.650  48.517  1.00  0.00    -0.388 OA
HETATM   13  C9  UNL     1      26.490   6.794  48.436  1.00  0.00     0.178 C 
HETATM   14  C10 UNL     1      25.754   6.426  49.730  1.00  0.00     0.061 C 
HETATM   15  C11 UNL     1      24.989   5.215  49.589  1.00  0.00     0.034 C 
HETATM   16  C12 UNL     1      23.502   5.208  49.698  1.00  0.00     0.037 C 
HETATM   17  C13 UNL     1      22.796   6.103  48.770  1.00  0.00    -0.013 C 
HETATM   18  C14 UNL     1      22.286   5.676  47.608  1.00  0.00    -0.026 C 
HETATM   19  C15 UNL     1      22.405   4.258  47.181  1.00  0.00     0.055 C 
HETATM   20  C16 UNL     1      22.596   3.346  48.317  1.00  0.00    -0.003 C 
HETATM   21  C17 UNL     1      23.095   3.767  49.472  1.00  0.00     0.022 C 
HETATM   22 CL1  UNL     1      23.281   2.585  50.771  1.00  0.00    -0.088 Cl
HETATM   23  H5  UNL     1      22.440   7.240  52.033  1.00  0.00     0.182 HD
ENDROOT
TORSDOF 0
ENDMDL
