MODEL 1
REMARK VINA RESULT:      -8.8      0.000      0.000
REMARK  2 active torsions:
REMARK  status: ('A' for Active; 'I' for Inactive)
REMARK    1  A    between atoms: C3_3  and  C4_4 
REMARK    2  A    between atoms: C5_5  and  C6_6 
ROOT
HETATM    1  C6  UNL     1      25.600   2.966  50.373  1.00  0.00     0.228 C 
HETATM    2  N1  UNL     1      24.235   2.644  50.275  1.00  0.00    -0.276 NA
HETATM    3  C7  UNL     1      23.581   1.822  51.027  1.00  0.00     0.095 C 
HETATM    4  C8  UNL     1      23.519   1.711  52.510  1.00  0.00     0.058 C 
HETATM    5  C9  UNL     1      24.458   0.642  52.897  1.00  0.00     0.046 C 
HETATM    6  C10 UNL     1      25.180  -0.294  53.521  1.00  0.00     0.120 C 
HETATM    7  C11 UNL     1      26.170  -0.993  52.684  1.00  0.00     0.209 C 
HETATM    8  O1  UNL     1      27.478  -0.911  53.037  1.00  0.00    -0.386 OA
HETATM    9  C12 UNL     1      28.133   0.276  52.982  1.00  0.00     0.193 C 
HETATM   10  O2  UNL     1      27.569   1.309  53.862  1.00  0.00     0.000 OA
HETATM   11  C13 UNL     1      26.486   1.949  53.419  1.00  0.00    -0.016 A 
HETATM   12  C14 UNL     1      26.340   1.035  54.395  1.00  0.00     0.056 A 
HETATM   13  C15 UNL     1      26.412  -0.018  55.463  1.00  0.00     0.179 C 
HETATM   14  O3  UNL     1      25.471  -1.008  54.772  1.00  0.00    -0.374 OA
HETATM   15  C16 UNL     1      25.356   2.602  52.971  1.00  0.00     0.034 C 
HETATM   16  C17 UNL     1      24.081   3.015  53.121  1.00  0.00     0.013 C 
HETATM   17  N2  UNL     1      26.166   2.781  51.732  1.00  0.00    -0.364 N 
HETATM   18  H20 UNL     1      27.246   2.799  51.752  1.00  0.00     0.162 HD
ENDROOT
BRANCH   1  19
HETATM   19  C5  UNL     1      25.904   4.381  49.944  1.00  0.00     0.021 C 
HETATM   20  C4  UNL     1      26.951   4.289  49.173  1.00  0.00    -0.001 C 
BRANCH  20  21
HETATM   21  C3  UNL     1      27.626   5.410  48.515  1.00  0.00    -0.005 C 
HETATM   22  C2  UNL     1      28.894   5.611  48.257  1.00  0.00    -0.031 C 
HETATM   23  C1  UNL     1      29.729   6.622  47.635  1.00  0.00     0.036 C 
ENDBRANCH  20  21
ENDBRANCH   1  19
TORSDOF 2
ENDMDL
MODEL 2
REMARK VINA RESULT:      -7.8      1.401      1.585
REMARK  2 active torsions:
REMARK  status: ('A' for Active; 'I' for Inactive)
REMARK    1  A    between atoms: C3_3  and  C4_4 
REMARK    2  A    between atoms: C5_5  and  C6_6 
ROOT
HETATM    1  C6  UNL     1      25.878   2.773  50.465  1.00  0.00     0.228 C 
HETATM    2  N1  UNL     1      24.489   2.584  50.359  1.00  0.00    -0.276 NA
HETATM    3  C7  UNL     1      23.749   1.849  51.121  1.00  0.00     0.095 C 
HETATM    4  C8  UNL     1      23.663   1.781  52.606  1.00  0.00     0.058 C 
HETATM    5  C9  UNL     1      24.488   0.634  53.028  1.00  0.00     0.046 C 
HETATM    6  C10 UNL     1      25.108  -0.354  53.683  1.00  0.00     0.120 C 
HETATM    7  C11 UNL     1      26.032  -1.166  52.874  1.00  0.00     0.209 C 
HETATM    8  O1  UNL     1      27.339  -1.205  53.241  1.00  0.00    -0.386 OA
HETATM    9  C12 UNL     1      28.108  -0.090  53.167  1.00  0.00     0.193 C 
HETATM   10  O2  UNL     1      27.640   1.015  54.015  1.00  0.00     0.000 OA
HETATM   11  C13 UNL     1      26.630   1.747  53.544  1.00  0.00    -0.016 A 
HETATM   12  C14 UNL     1      26.384   0.876  54.540  1.00  0.00     0.056 A 
HETATM   13  C15 UNL     1      26.342  -0.153  55.633  1.00  0.00     0.179 C 
HETATM   14  O3  UNL     1      25.315  -1.061  54.953  1.00  0.00    -0.374 OA
HETATM   15  C16 UNL     1      25.574   2.497  53.068  1.00  0.00     0.034 C 
HETATM   16  C17 UNL     1      24.344   3.037  53.193  1.00  0.00     0.013 C 
HETATM   17  N2  UNL     1      26.410   2.566  51.835  1.00  0.00    -0.364 N 
HETATM   18  H20 UNL     1      27.485   2.478  51.867  1.00  0.00     0.162 HD
ENDROOT
BRANCH   1  19
HETATM   19  C5  UNL     1      26.324   4.140  50.007  1.00  0.00     0.021 C 
HETATM   20  C4  UNL     1      25.238   4.737  49.603  1.00  0.00    -0.001 C 
BRANCH  20  21
HETATM   21  C3  UNL     1      25.164   6.096  49.060  1.00  0.00    -0.005 C 
HETATM   22  C2  UNL     1      25.344   7.257  49.636  1.00  0.00    -0.031 C 
HETATM   23  C1  UNL     1      25.316   8.664  49.279  1.00  0.00     0.036 C 
ENDBRANCH  20  21
ENDBRANCH   1  19
TORSDOF 2
ENDMDL
MODEL 3
REMARK VINA RESULT:      -7.6      3.215      4.524
REMARK  2 active torsions:
REMARK  status: ('A' for Active; 'I' for Inactive)
REMARK    1  A    between atoms: C3_3  and  C4_4 
REMARK    2  A    between atoms: C5_5  and  C6_6 
ROOT
HETATM    1  C6  UNL     1      24.774   4.047  49.893  1.00  0.00     0.228 C 
HETATM    2  N1  UNL     1      24.618   5.239  50.621  1.00  0.00    -0.276 NA
HETATM    3  C7  UNL     1      23.691   5.503  51.481  1.00  0.00     0.095 C 
HETATM    4  C8  UNL     1      23.196   4.709  52.640  1.00  0.00     0.058 C 
HETATM    5  C9  UNL     1      21.980   4.009  52.188  1.00  0.00     0.046 C 
HETATM    6  C10 UNL     1      20.848   3.305  52.074  1.00  0.00     0.120 C 
HETATM    7  C11 UNL     1      20.308   3.193  50.709  1.00  0.00     0.209 C 
HETATM    8  O1  UNL     1      20.170   1.952  50.175  1.00  0.00    -0.386 OA
HETATM    9  C12 UNL     1      21.262   1.195  49.904  1.00  0.00     0.193 C 
HETATM   10  O2  UNL     1      22.073   0.873  51.087  1.00  0.00     0.000 OA
HETATM   11  C13 UNL     1      22.906   1.820  51.520  1.00  0.00    -0.016 A 
HETATM   12  C14 UNL     1      21.783   1.579  52.221  1.00  0.00     0.056 A 
HETATM   13  C15 UNL     1      20.482   1.148  52.835  1.00  0.00     0.179 C 
HETATM   14  O3  UNL     1      19.804   2.517  52.743  1.00  0.00    -0.374 OA
HETATM   15  C16 UNL     1      23.757   2.803  51.981  1.00  0.00     0.034 C 
HETATM   16  C17 UNL     1      24.232   3.606  52.955  1.00  0.00     0.013 C 
HETATM   17  N2  UNL     1      24.182   2.857  50.552  1.00  0.00    -0.364 N 
HETATM   18  H20 UNL     1      24.093   2.004  49.897  1.00  0.00     0.162 HD
ENDROOT
BRANCH   1  19
HETATM   19  C5  UNL     1      26.217   3.727  49.589  1.00  0.00     0.021 C 
HETATM   20  C4  UNL     1      26.690   4.792  49.006  1.00  0.00    -0.001 C 
BRANCH  20  21
HETATM   21  C3  UNL     1      28.060   4.960  48.516  1.00  0.00    -0.005 C 
HETATM   22  C2  UNL     1      28.725   6.038  48.188  1.00  0.00    -0.031 C 
HETATM   23  C1  UNL     1      30.044   6.396  47.700  1.00  0.00     0.036 C 
ENDBRANCH  20  21
ENDBRANCH   1  19
TORSDOF 2
ENDMDL
MODEL 4
REMARK VINA RESULT:      -7.4      3.629      6.163
REMARK  2 active torsions:
REMARK  status: ('A' for Active; 'I' for Inactive)
REMARK    1  A    between atoms: C3_3  and  C4_4 
REMARK    2  A    between atoms: C5_5  and  C6_6 
ROOT
HETATM    1  C6  UNL     1      23.834   0.599  53.234  1.00  0.00     0.228 C 
HETATM    2  N1  UNL     1      22.568   0.232  53.724  1.00  0.00    -0.276 NA
HETATM    3  C7  UNL     1      21.441   0.802  53.454  1.00  0.00     0.095 C 
HETATM    4  C8  UNL     1      20.844   1.184  52.144  1.00  0.00     0.058 C 
HETATM    5  C9  UNL     1      21.123   2.618  51.951  1.00  0.00     0.046 C 
HETATM    6  C10 UNL     1      21.185   3.890  51.541  1.00  0.00     0.120 C 
HETATM    7  C11 UNL     1      22.062   4.769  52.332  1.00  0.00     0.209 C 
HETATM    8  O1  UNL     1      23.102   5.371  51.701  1.00  0.00    -0.386 OA
HETATM    9  C12 UNL     1      24.130   4.634  51.210  1.00  0.00     0.193 C 
HETATM   10  O2  UNL     1      23.731   3.669  50.176  1.00  0.00     0.000 OA
HETATM   11  C13 UNL     1      23.186   2.528  50.597  1.00  0.00    -0.016 A 
HETATM   12  C14 UNL     1      22.386   3.457  50.042  1.00  0.00     0.056 A 
HETATM   13  C15 UNL     1      21.693   4.626  49.404  1.00  0.00     0.179 C 
HETATM   14  O3  UNL     1      20.745   4.904  50.573  1.00  0.00    -0.374 OA
HETATM   15  C16 UNL     1      22.606   1.353  51.028  1.00  0.00     0.034 C 
HETATM   16  C17 UNL     1      21.609   0.445  51.023  1.00  0.00     0.013 C 
HETATM   17  N2  UNL     1      23.793   1.306  51.930  1.00  0.00    -0.364 N 
HETATM   18  H20 UNL     1      24.724   1.788  51.675  1.00  0.00     0.162 HD
ENDROOT
BRANCH   1  19
HETATM   19  C5  UNL     1      24.771  -0.576  53.084  1.00  0.00     0.021 C 
HETATM   20  C4  UNL     1      25.970  -0.072  53.173  1.00  0.00    -0.001 C 
BRANCH  20  21
HETATM   21  C3  UNL     1      27.221  -0.828  53.081  1.00  0.00    -0.005 C 
HETATM   22  C2  UNL     1      28.435  -0.521  53.462  1.00  0.00    -0.031 C 
HETATM   23  C1  UNL     1      29.759  -1.115  53.458  1.00  0.00     0.036 C 
ENDBRANCH  20  21
ENDBRANCH   1  19
TORSDOF 2
ENDMDL
MODEL 5
REMARK VINA RESULT:      -7.1      3.287      5.674
REMARK  2 active torsions:
REMARK  status: ('A' for Active; 'I' for Inactive)
REMARK    1  A    between atoms: C3_3  and  C4_4 
REMARK    2  A    between atoms: C5_5  and  C6_6 
ROOT
HETATM    1  C6  UNL     1      25.525   2.352  50.920  1.00  0.00     0.228 C 
HETATM    2  N1  UNL     1      25.610   3.739  50.704  1.00  0.00    -0.276 NA
HETATM    3  C7  UNL     1      24.626   4.575  50.664  1.00  0.00     0.095 C 
HETATM    4  C8  UNL     1      23.489   4.772  51.606  1.00  0.00     0.058 C 
HETATM    5  C9  UNL     1      22.336   4.051  51.037  1.00  0.00     0.046 C 
HETATM    6  C10 UNL     1      21.135   3.541  50.741  1.00  0.00     0.120 C 
HETATM    7  C11 UNL     1      21.106   2.612  49.599  1.00  0.00     0.209 C 
HETATM    8  O1  UNL     1      20.685   1.340  49.819  1.00  0.00    -0.386 OA
HETATM    9  C12 UNL     1      21.410   0.501  50.601  1.00  0.00     0.193 C 
HETATM   10  O2  UNL     1      21.561   0.961  51.989  1.00  0.00     0.000 OA
HETATM   11  C13 UNL     1      22.492   1.888  52.216  1.00  0.00    -0.016 A 
HETATM   12  C14 UNL     1      21.198   2.257  52.232  1.00  0.00     0.056 A 
HETATM   13  C15 UNL     1      19.708   2.440  52.197  1.00  0.00     0.179 C 
HETATM   14  O3  UNL     1      19.704   3.469  51.064  1.00  0.00    -0.374 OA
HETATM   15  C16 UNL     1      23.443   2.859  52.453  1.00  0.00     0.034 C 
HETATM   16  C17 UNL     1      23.826   4.059  52.935  1.00  0.00     0.013 C 
HETATM   17  N2  UNL     1      24.323   1.933  51.682  1.00  0.00    -0.364 N 
HETATM   18  H20 UNL     1      24.139   0.871  51.642  1.00  0.00     0.162 HD
ENDROOT
BRANCH   1  19
HETATM   19  C5  UNL     1      26.732   1.791  51.633  1.00  0.00     0.021 C 
HETATM   20  C4  UNL     1      26.396   0.579  51.975  1.00  0.00    -0.001 C 
BRANCH  20  21
HETATM   21  C3  UNL     1      27.246  -0.368  52.702  1.00  0.00    -0.005 C 
HETATM   22  C2  UNL     1      28.492  -0.274  53.088  1.00  0.00    -0.031 C 
HETATM   23  C1  UNL     1      29.474  -1.076  53.795  1.00  0.00     0.036 C 
ENDBRANCH  20  21
ENDBRANCH   1  19
TORSDOF 2
ENDMDL
MODEL 6
REMARK VINA RESULT:      -7.1      3.708      6.800
REMARK  2 active torsions:
REMARK  status: ('A' for Active; 'I' for Inactive)
REMARK    1  A    between atoms: C3_3  and  C4_4 
REMARK    2  A    between atoms: C5_5  and  C6_6 
ROOT
HETATM    1  C6  UNL     1      24.140   3.382  52.674  1.00  0.00     0.228 C 
HETATM    2  N1  UNL     1      22.880   2.842  52.360  1.00  0.00    -0.276 NA
HETATM    3  C7  UNL     1      22.088   3.230  51.417  1.00  0.00     0.095 C 
HETATM    4  C8  UNL     1      22.357   3.488  49.975  1.00  0.00     0.058 C 
HETATM    5  C9  UNL     1      22.543   4.944  49.830  1.00  0.00     0.046 C 
HETATM    6  C10 UNL     1      22.703   6.200  49.402  1.00  0.00     0.120 C 
HETATM    7  C11 UNL     1      22.832   7.218  50.458  1.00  0.00     0.209 C 
HETATM    8  O1  UNL     1      23.972   7.954  50.501  1.00  0.00    -0.386 OA
HETATM    9  C12 UNL     1      25.160   7.367  50.793  1.00  0.00     0.193 C 
HETATM   10  O2  UNL     1      25.565   6.330  49.834  1.00  0.00     0.000 OA
HETATM   11  C13 UNL     1      25.001   5.130  49.973  1.00  0.00    -0.016 A 
HETATM   12  C14 UNL     1      24.600   5.917  48.957  1.00  0.00     0.056 A 
HETATM   13  C15 UNL     1      24.309   6.954  47.911  1.00  0.00     0.179 C 
HETATM   14  O3  UNL     1      22.827   7.115  48.258  1.00  0.00    -0.374 OA
HETATM   15  C16 UNL     1      24.407   3.892  50.103  1.00  0.00     0.034 C 
HETATM   16  C17 UNL     1      23.714   2.846  49.609  1.00  0.00     0.013 C 
HETATM   17  N2  UNL     1      24.813   4.044  51.530  1.00  0.00    -0.364 N 
HETATM   18  H20 UNL     1      25.655   4.654  51.823  1.00  0.00     0.162 HD
ENDROOT
BRANCH   1  19
HETATM   19  C5  UNL     1      25.098   2.357  53.233  1.00  0.00     0.021 C 
HETATM   20  C4  UNL     1      24.686   1.212  52.766  1.00  0.00    -0.001 C 
BRANCH  20  21
HETATM   21  C3  UNL     1      25.299  -0.090  53.038  1.00  0.00    -0.005 C 
HETATM   22  C2  UNL     1      26.330  -0.680  52.490  1.00  0.00    -0.031 C 
HETATM   23  C1  UNL     1      27.065  -1.925  52.618  1.00  0.00     0.036 C 
ENDBRANCH  20  21
ENDBRANCH   1  19
TORSDOF 2
ENDMDL
MODEL 7
REMARK VINA RESULT:      -6.8      2.958      3.656
REMARK  2 active torsions:
REMARK  status: ('A' for Active; 'I' for Inactive)
REMARK    1  A    between atoms: C3_3  and  C4_4 
REMARK    2  A    between atoms: C5_5  and  C6_6 
ROOT
HETATM    1  C6  UNL     1      22.515   1.396  50.320  1.00  0.00     0.228 C 
HETATM    2  N1  UNL     1      21.589   0.505  50.892  1.00  0.00    -0.276 NA
HETATM    3  C7  UNL     1      21.779  -0.244  51.927  1.00  0.00     0.095 C 
HETATM    4  C8  UNL     1      22.318   0.089  53.274  1.00  0.00     0.058 C 
HETATM    5  C9  UNL     1      23.741  -0.297  53.270  1.00  0.00     0.046 C 
HETATM    6  C10 UNL     1      25.012  -0.591  53.565  1.00  0.00     0.120 C 
HETATM    7  C11 UNL     1      25.844  -1.015  52.427  1.00  0.00     0.209 C 
HETATM    8  O1  UNL     1      26.942  -0.275  52.127  1.00  0.00    -0.386 OA
HETATM    9  C12 UNL     1      26.812   0.998  51.676  1.00  0.00     0.193 C 
HETATM   10  O2  UNL     1      26.150   1.902  52.627  1.00  0.00     0.000 OA
HETATM   11  C13 UNL     1      24.819   1.845  52.683  1.00  0.00    -0.016 A 
HETATM   12  C14 UNL     1      25.531   1.304  53.689  1.00  0.00     0.056 A 
HETATM   13  C15 UNL     1      26.517   0.768  54.686  1.00  0.00     0.179 C 
HETATM   14  O3  UNL     1      26.056  -0.689  54.595  1.00  0.00    -0.374 OA
HETATM   15  C16 UNL     1      23.443   1.776  52.756  1.00  0.00     0.034 C 
HETATM   16  C17 UNL     1      22.293   1.625  53.444  1.00  0.00     0.013 C 
HETATM   17  N2  UNL     1      23.535   1.898  51.272  1.00  0.00    -0.364 N 
HETATM   18  H20 UNL     1      24.370   2.383  50.789  1.00  0.00     0.162 HD
ENDROOT
BRANCH   1  19
HETATM   19  C5  UNL     1      21.860   2.597  49.682  1.00  0.00     0.021 C 
HETATM   20  C4  UNL     1      22.188   2.538  48.422  1.00  0.00    -0.001 C 
BRANCH  20  21
HETATM   21  C3  UNL     1      21.790   3.501  47.392  1.00  0.00    -0.005 C 
HETATM   22  C2  UNL     1      21.907   3.455  46.089  1.00  0.00    -0.031 C 
HETATM   23  C1  UNL     1      21.585   4.279  44.939  1.00  0.00     0.036 C 
ENDBRANCH  20  21
ENDBRANCH   1  19
TORSDOF 2
ENDMDL
MODEL 8
REMARK VINA RESULT:      -6.8      6.509      8.848
REMARK  2 active torsions:
REMARK  status: ('A' for Active; 'I' for Inactive)
REMARK    1  A    between atoms: C3_3  and  C4_4 
REMARK    2  A    between atoms: C5_5  and  C6_6 
ROOT
HETATM    1  C6  UNL     1      28.547   9.125  49.436  1.00  0.00     0.228 C 
HETATM    2  N1  UNL     1      28.622   9.960  48.308  1.00  0.00    -0.276 NA
HETATM    3  C7  UNL     1      29.365   9.785  47.266  1.00  0.00     0.095 C 
HETATM    4  C8  UNL     1      29.558   8.582  46.410  1.00  0.00     0.058 C 
HETATM    5  C9  UNL     1      30.796   7.926  46.871  1.00  0.00     0.046 C 
HETATM    6  C10 UNL     1      31.881   7.163  47.038  1.00  0.00     0.120 C 
HETATM    7  C11 UNL     1      32.685   7.459  48.235  1.00  0.00     0.209 C 
HETATM    8  O1  UNL     1      32.853   6.472  49.153  1.00  0.00    -0.386 OA
HETATM    9  C12 UNL     1      31.796   6.006  49.864  1.00  0.00     0.193 C 
HETATM   10  O2  UNL     1      30.739   5.406  49.038  1.00  0.00     0.000 OA
HETATM   11  C13 UNL     1      29.895   6.246  48.439  1.00  0.00    -0.016 A 
HETATM   12  C14 UNL     1      30.831   5.632  47.693  1.00  0.00     0.056 A 
HETATM   13  C15 UNL     1      31.947   4.847  47.065  1.00  0.00     0.179 C 
HETATM   14  O3  UNL     1      32.713   6.061  46.534  1.00  0.00    -0.374 OA
HETATM   15  C16 UNL     1      29.030   7.113  47.804  1.00  0.00     0.034 C 
HETATM   16  C17 UNL     1      28.414   7.586  46.701  1.00  0.00     0.013 C 
HETATM   17  N2  UNL     1      28.914   7.713  49.165  1.00  0.00    -0.364 N 
HETATM   18  H20 UNL     1      29.084   7.135  50.061  1.00  0.00     0.162 HD
ENDROOT
BRANCH   1  19
HETATM   19  C5  UNL     1      27.181   9.123  50.079  1.00  0.00     0.021 C 
HETATM   20  C4  UNL     1      26.705   7.927  49.869  1.00  0.00    -0.001 C 
BRANCH  20  21
HETATM   21  C3  UNL     1      25.393   7.444  50.305  1.00  0.00    -0.005 C 
HETATM   22  C2  UNL     1      24.223   8.030  50.303  1.00  0.00    -0.031 C 
HETATM   23  C1  UNL     1      22.854   7.726  50.680  1.00  0.00     0.036 C 
ENDBRANCH  20  21
ENDBRANCH   1  19
TORSDOF 2
ENDMDL
MODEL 9
REMARK VINA RESULT:      -6.7      4.394      7.433
REMARK  2 active torsions:
REMARK  status: ('A' for Active; 'I' for Inactive)
REMARK    1  A    between atoms: C3_3  and  C4_4 
REMARK    2  A    between atoms: C5_5  and  C6_6 
ROOT
HETATM    1  C6  UNL     1      21.593   3.583  51.044  1.00  0.00     0.228 C 
HETATM    2  N1  UNL     1      22.083   2.625  50.139  1.00  0.00    -0.276 NA
HETATM    3  C7  UNL     1      23.058   2.779  49.305  1.00  0.00     0.095 C 
HETATM    4  C8  UNL     1      24.433   3.308  49.517  1.00  0.00     0.058 C 
HETATM    5  C9  UNL     1      24.416   4.720  49.092  1.00  0.00     0.046 C 
HETATM    6  C10 UNL     1      24.702   5.978  48.740  1.00  0.00     0.120 C 
HETATM    7  C11 UNL     1      23.545   6.815  48.382  1.00  0.00     0.209 C 
HETATM    8  O1  UNL     1      23.316   7.936  49.112  1.00  0.00    -0.386 OA
HETATM    9  C12 UNL     1      22.966   7.848  50.419  1.00  0.00     0.193 C 
HETATM   10  O2  UNL     1      23.976   7.197  51.265  1.00  0.00     0.000 OA
HETATM   11  C13 UNL     1      24.012   5.865  51.241  1.00  0.00    -0.016 A 
HETATM   12  C14 UNL     1      24.981   6.547  50.603  1.00  0.00     0.056 A 
HETATM   13  C15 UNL     1      25.945   7.503  49.963  1.00  0.00     0.179 C 
HETATM   14  O3  UNL     1      25.733   7.004  48.532  1.00  0.00    -0.374 OA
HETATM   15  C16 UNL     1      24.063   4.486  51.207  1.00  0.00     0.034 C 
HETATM   16  C17 UNL     1      24.723   3.323  51.035  1.00  0.00     0.013 C 
HETATM   17  N2  UNL     1      22.594   4.603  51.441  1.00  0.00    -0.364 N 
HETATM   18  H20 UNL     1      22.161   5.457  51.939  1.00  0.00     0.162 HD
ENDROOT
BRANCH   1  19
HETATM   19  C5  UNL     1      21.044   2.970  52.310  1.00  0.00     0.021 C 
HETATM   20  C4  UNL     1      21.590   1.788  52.384  1.00  0.00    -0.001 C 
BRANCH  20  21
HETATM   21  C3  UNL     1      21.357   0.807  53.446  1.00  0.00    -0.005 C 
HETATM   22  C2  UNL     1      21.987  -0.303  53.736  1.00  0.00    -0.031 C 
HETATM   23  C1  UNL     1      21.910  -1.373  54.714  1.00  0.00     0.036 C 
ENDBRANCH  20  21
ENDBRANCH   1  19
TORSDOF 2
ENDMDL
