MODEL 1
REMARK VINA RESULT:      -7.8      0.000      0.000
REMARK  7 active torsions:
REMARK  status: ('A' for Active; 'I' for Inactive)
REMARK    1  A    between atoms: C3_3  and  N1_4 
REMARK    2  A    between atoms: N1_4  and  C4_5 
REMARK    3  A    between atoms: C5_7  and  N3_8 
REMARK    4  A    between atoms: C7_11  and  C8_12 
REMARK    5  A    between atoms: C9_13  and  C10_14 
REMARK    6  A    between atoms: C10_14  and  C11_15 
REMARK    7  A    between atoms: C11_15  and  C12_16 
ROOT
HETATM    1  C4  UNL     1      26.979   1.636  52.479  1.00  0.00     0.158 A 
HETATM    2  N2  UNL     1      28.142   2.130  52.929  1.00  0.00    -0.044 NA
HETATM    3  C5  UNL     1      28.657   1.725  54.109  1.00  0.00     0.721 A 
HETATM    4  N4  UNL     1      27.982   0.808  54.842  1.00  0.00    -0.074 NA
HETATM    5  C6  UNL     1      26.827   0.279  54.457  1.00  0.00     0.151 A 
HETATM    6  C7  UNL     1      26.318   0.705  53.250  1.00  0.00     0.028 A 
ENDROOT
BRANCH   6   7
HETATM    7  C8  UNL     1      25.062   0.190  52.733  1.00  0.00     0.013 C 
HETATM    8  C9  UNL     1      23.954   0.036  53.441  1.00  0.00    -0.025 C 
BRANCH   8   9
HETATM    9  C10 UNL     1      22.609  -0.474  53.045  1.00  0.00     0.032 C 
BRANCH   9  10
HETATM   10  C11 UNL     1      21.762   0.712  52.720  1.00  0.00     0.043 C 
BRANCH  10  11
HETATM   11  C12 UNL     1      21.912   1.270  51.377  1.00  0.00    -0.052 A 
HETATM   12  C13 UNL     1      21.438   0.571  50.269  1.00  0.00     0.007 A 
HETATM   13  C14 UNL     1      21.530   1.007  48.983  1.00  0.00     0.001 A 
HETATM   14  C15 UNL     1      22.129   2.224  48.725  1.00  0.00     0.001 A 
HETATM   15  C16 UNL     1      22.609   2.943  49.795  1.00  0.00     0.007 A 
HETATM   16  C17 UNL     1      22.509   2.485  51.115  1.00  0.00    -0.056 A 
HETATM   17  C18 UNL     1      23.037   3.281  52.256  1.00  0.00     0.049 C 
ENDBRANCH  10  11
ENDBRANCH   9  10
ENDBRANCH   8   9
ENDBRANCH   6   7
BRANCH   1  18
HETATM   18  N1  UNL     1      26.555   2.148  51.223  1.00  0.00    -0.350 N 
HETATM   19  H6  UNL     1      26.484   1.254  50.678  1.00  0.00     0.166 HD
BRANCH  18  20
HETATM   20  C3  UNL     1      26.245   3.402  50.616  1.00  0.00     0.085 C 
HETATM   21  C2  UNL     1      26.740   3.744  49.449  1.00  0.00    -0.014 C 
HETATM   22  C1  UNL     1      26.324   5.076  48.956  1.00  0.00     0.037 C 
ENDBRANCH  18  20
ENDBRANCH   1  18
BRANCH   3  23
HETATM   23  N3  UNL     1      29.889   2.246  54.589  1.00  0.00    -0.231 N 
HETATM   24  H7  UNL     1      30.710   2.280  53.938  1.00  0.00     0.174 HD
HETATM   25  H8  UNL     1      29.978   2.585  55.552  1.00  0.00     0.174 HD
ENDBRANCH   3  23
TORSDOF 7
ENDMDL
MODEL 2
REMARK VINA RESULT:      -7.6      0.825      1.485
REMARK  7 active torsions:
REMARK  status: ('A' for Active; 'I' for Inactive)
REMARK    1  A    between atoms: C3_3  and  N1_4 
REMARK    2  A    between atoms: N1_4  and  C4_5 
REMARK    3  A    between atoms: C5_7  and  N3_8 
REMARK    4  A    between atoms: C7_11  and  C8_12 
REMARK    5  A    between atoms: C9_13  and  C10_14 
REMARK    6  A    between atoms: C10_14  and  C11_15 
REMARK    7  A    between atoms: C11_15  and  C12_16 
ROOT
HETATM    1  C4  UNL     1      27.196   1.514  52.600  1.00  0.00     0.158 A 
HETATM    2  N2  UNL     1      28.332   2.074  53.042  1.00  0.00    -0.044 NA
HETATM    3  C5  UNL     1      28.858   1.727  54.236  1.00  0.00     0.721 A 
HETATM    4  N4  UNL     1      28.222   0.801  54.991  1.00  0.00    -0.074 NA
HETATM    5  C6  UNL     1      27.095   0.208  54.615  1.00  0.00     0.151 A 
HETATM    6  C7  UNL     1      26.574   0.575  53.394  1.00  0.00     0.028 A 
ENDROOT
BRANCH   6   7
HETATM    7  C8  UNL     1      25.347  -0.011  52.886  1.00  0.00     0.013 C 
HETATM    8  C9  UNL     1      24.210  -0.097  53.558  1.00  0.00    -0.025 C 
BRANCH   8   9
HETATM    9  C10 UNL     1      22.888  -0.666  53.165  1.00  0.00     0.032 C 
BRANCH   9  10
HETATM   10  C11 UNL     1      21.947   0.479  52.983  1.00  0.00     0.043 C 
BRANCH  10  11
HETATM   11  C12 UNL     1      21.653   0.865  51.604  1.00  0.00    -0.052 A 
HETATM   12  C13 UNL     1      22.640   1.446  50.811  1.00  0.00     0.007 A 
HETATM   13  C14 UNL     1      22.463   1.838  49.520  1.00  0.00     0.001 A 
HETATM   14  C15 UNL     1      21.230   1.659  48.924  1.00  0.00     0.001 A 
HETATM   15  C16 UNL     1      20.230   1.087  49.677  1.00  0.00     0.007 A 
HETATM   16  C17 UNL     1      20.423   0.688  51.005  1.00  0.00    -0.056 A 
HETATM   17  C18 UNL     1      19.325   0.073  51.799  1.00  0.00     0.049 C 
ENDBRANCH  10  11
ENDBRANCH   9  10
ENDBRANCH   8   9
ENDBRANCH   6   7
BRANCH   1  18
HETATM   18  N1  UNL     1      26.757   1.970  51.328  1.00  0.00    -0.350 N 
HETATM   19  H6  UNL     1      27.024   1.145  50.738  1.00  0.00     0.166 HD
BRANCH  18  20
HETATM   20  C3  UNL     1      26.129   3.113  50.748  1.00  0.00     0.085 C 
HETATM   21  C2  UNL     1      26.566   3.646  49.630  1.00  0.00    -0.014 C 
HETATM   22  C1  UNL     1      25.807   4.826  49.159  1.00  0.00     0.037 C 
ENDBRANCH  18  20
ENDBRANCH   1  18
BRANCH   3  23
HETATM   23  N3  UNL     1      30.062   2.318  54.707  1.00  0.00    -0.231 N 
HETATM   24  H7  UNL     1      30.035   2.882  55.590  1.00  0.00     0.174 HD
HETATM   25  H8  UNL     1      30.942   2.197  54.196  1.00  0.00     0.174 HD
ENDBRANCH   3  23
TORSDOF 7
ENDMDL
MODEL 3
REMARK VINA RESULT:      -7.4      1.894      3.859
REMARK  7 active torsions:
REMARK  status: ('A' for Active; 'I' for Inactive)
REMARK    1  A    between atoms: C3_3  and  N1_4 
REMARK    2  A    between atoms: N1_4  and  C4_5 
REMARK    3  A    between atoms: C5_7  and  N3_8 
REMARK    4  A    between atoms: C7_11  and  C8_12 
REMARK    5  A    between atoms: C9_13  and  C10_14 
REMARK    6  A    between atoms: C10_14  and  C11_15 
REMARK    7  A    between atoms: C11_15  and  C12_16 
ROOT
HETATM    1  C4  UNL     1      26.803   0.058  54.318  1.00  0.00     0.158 A 
HETATM    2  N2  UNL     1      27.885  -0.734  54.330  1.00  0.00    -0.044 NA
HETATM    3  C5  UNL     1      29.084  -0.277  53.910  1.00  0.00     0.721 A 
HETATM    4  N4  UNL     1      29.184   1.000  53.472  1.00  0.00    -0.074 NA
HETATM    5  C6  UNL     1      28.154   1.837  53.433  1.00  0.00     0.151 A 
HETATM    6  C7  UNL     1      26.940   1.352  53.865  1.00  0.00     0.028 A 
ENDROOT
BRANCH   6   7
HETATM    7  C8  UNL     1      25.749   2.182  53.865  1.00  0.00     0.013 C 
HETATM    8  C9  UNL     1      24.994   2.430  52.807  1.00  0.00    -0.025 C 
BRANCH   8   9
HETATM    9  C10 UNL     1      23.758   3.253  52.665  1.00  0.00     0.032 C 
BRANCH   9  10
HETATM   10  C11 UNL     1      22.648   2.328  52.287  1.00  0.00     0.043 C 
BRANCH  10  11
HETATM   11  C12 UNL     1      22.441   2.112  50.856  1.00  0.00    -0.052 A 
HETATM   12  C13 UNL     1      23.101   2.907  49.922  1.00  0.00     0.007 A 
HETATM   13  C14 UNL     1      22.974   2.782  48.573  1.00  0.00     0.001 A 
HETATM   14  C15 UNL     1      22.141   1.807  48.062  1.00  0.00     0.001 A 
HETATM   15  C16 UNL     1      21.473   1.000  48.954  1.00  0.00     0.007 A 
HETATM   16  C17 UNL     1      21.611   1.138  50.341  1.00  0.00    -0.056 A 
HETATM   17  C18 UNL     1      20.876   0.254  51.286  1.00  0.00     0.049 C 
ENDBRANCH  10  11
ENDBRANCH   9  10
ENDBRANCH   8   9
ENDBRANCH   6   7
BRANCH   1  18
HETATM   18  N1  UNL     1      25.607  -0.551  54.787  1.00  0.00    -0.350 N 
HETATM   19  H6  UNL     1      25.889  -0.766  55.775  1.00  0.00     0.166 HD
BRANCH  18  20
HETATM   20  C3  UNL     1      24.306  -0.888  54.307  1.00  0.00     0.085 C 
HETATM   21  C2  UNL     1      23.287  -1.032  55.123  1.00  0.00    -0.014 C 
HETATM   22  C1  UNL     1      22.006  -1.383  54.472  1.00  0.00     0.037 C 
ENDBRANCH  18  20
ENDBRANCH   1  18
BRANCH   3  23
HETATM   23  N3  UNL     1      30.233  -1.114  53.922  1.00  0.00    -0.231 N 
HETATM   24  H7  UNL     1      30.720  -1.288  54.834  1.00  0.00     0.174 HD
HETATM   25  H8  UNL     1      30.581  -1.542  53.059  1.00  0.00     0.174 HD
ENDBRANCH   3  23
TORSDOF 7
ENDMDL
MODEL 4
REMARK VINA RESULT:      -7.4      1.644      2.497
REMARK  7 active torsions:
REMARK  status: ('A' for Active; 'I' for Inactive)
REMARK    1  A    between atoms: C3_3  and  N1_4 
REMARK    2  A    between atoms: N1_4  and  C4_5 
REMARK    3  A    between atoms: C5_7  and  N3_8 
REMARK    4  A    between atoms: C7_11  and  C8_12 
REMARK    5  A    between atoms: C9_13  and  C10_14 
REMARK    6  A    between atoms: C10_14  and  C11_15 
REMARK    7  A    between atoms: C11_15  and  C12_16 
ROOT
HETATM    1  C4  UNL     1      26.589   1.740  52.448  1.00  0.00     0.158 A 
HETATM    2  N2  UNL     1      27.853   2.090  52.729  1.00  0.00    -0.044 NA
HETATM    3  C5  UNL     1      28.428   1.734  53.896  1.00  0.00     0.721 A 
HETATM    4  N4  UNL     1      27.711   1.013  54.791  1.00  0.00    -0.074 NA
HETATM    5  C6  UNL     1      26.457   0.633  54.577  1.00  0.00     0.151 A 
HETATM    6  C7  UNL     1      25.888   1.006  53.380  1.00  0.00     0.028 A 
ENDROOT
BRANCH   6   7
HETATM    7  C8  UNL     1      24.522   0.642  53.044  1.00  0.00     0.013 C 
HETATM    8  C9  UNL     1      23.930  -0.489  53.388  1.00  0.00    -0.025 C 
BRANCH   8   9
HETATM    9  C10 UNL     1      22.551  -0.988  53.116  1.00  0.00     0.032 C 
BRANCH   9  10
HETATM   10  C11 UNL     1      21.634   0.190  53.161  1.00  0.00     0.043 C 
BRANCH  10  11
HETATM   11  C12 UNL     1      20.304   0.001  52.585  1.00  0.00    -0.052 A 
HETATM   12  C13 UNL     1      19.306  -0.638  53.316  1.00  0.00     0.007 A 
HETATM   13  C14 UNL     1      18.041  -0.860  52.866  1.00  0.00     0.001 A 
HETATM   14  C15 UNL     1      17.689  -0.432  51.602  1.00  0.00     0.001 A 
HETATM   15  C16 UNL     1      18.650   0.205  50.850  1.00  0.00     0.007 A 
HETATM   16  C17 UNL     1      19.950   0.428  51.321  1.00  0.00    -0.056 A 
HETATM   17  C18 UNL     1      20.971   1.118  50.489  1.00  0.00     0.049 C 
ENDBRANCH  10  11
ENDBRANCH   9  10
ENDBRANCH   8   9
ENDBRANCH   6   7
BRANCH   1  18
HETATM   18  N1  UNL     1      26.110   2.180  51.184  1.00  0.00    -0.350 N 
HETATM   19  H6  UNL     1      25.880   1.255  50.746  1.00  0.00     0.166 HD
BRANCH  18  20
HETATM   20  C3  UNL     1      25.897   3.400  50.475  1.00  0.00     0.085 C 
HETATM   21  C2  UNL     1      26.781   3.865  49.623  1.00  0.00    -0.014 C 
HETATM   22  C1  UNL     1      26.413   5.141  48.970  1.00  0.00     0.037 C 
ENDBRANCH  18  20
ENDBRANCH   1  18
BRANCH   3  23
HETATM   23  N3  UNL     1      29.767   2.104  54.197  1.00  0.00    -0.231 N 
HETATM   24  H7  UNL     1      29.988   2.464  55.157  1.00  0.00     0.174 HD
HETATM   25  H8  UNL     1      30.507   2.021  53.493  1.00  0.00     0.174 HD
ENDBRANCH   3  23
TORSDOF 7
ENDMDL
MODEL 5
REMARK VINA RESULT:      -7.3      3.897      6.887
REMARK  7 active torsions:
REMARK  status: ('A' for Active; 'I' for Inactive)
REMARK    1  A    between atoms: C3_3  and  N1_4 
REMARK    2  A    between atoms: N1_4  and  C4_5 
REMARK    3  A    between atoms: C5_7  and  N3_8 
REMARK    4  A    between atoms: C7_11  and  C8_12 
REMARK    5  A    between atoms: C9_13  and  C10_14 
REMARK    6  A    between atoms: C10_14  and  C11_15 
REMARK    7  A    between atoms: C11_15  and  C12_16 
ROOT
HETATM    1  C4  UNL     1      20.723   0.366  52.144  1.00  0.00     0.158 A 
HETATM    2  N2  UNL     1      19.527  -0.130  52.494  1.00  0.00    -0.044 NA
HETATM    3  C5  UNL     1      19.415  -1.037  53.488  1.00  0.00     0.721 A 
HETATM    4  N4  UNL     1      20.533  -1.447  54.134  1.00  0.00    -0.074 NA
HETATM    5  C6  UNL     1      21.747  -0.998  53.838  1.00  0.00     0.151 A 
HETATM    6  C7  UNL     1      21.840  -0.073  52.821  1.00  0.00     0.028 A 
ENDROOT
BRANCH   6   7
HETATM    7  C8  UNL     1      23.119   0.483  52.418  1.00  0.00     0.013 C 
HETATM    8  C9  UNL     1      23.904   1.221  53.186  1.00  0.00    -0.025 C 
BRANCH   8   9
HETATM    9  C10 UNL     1      25.228   1.849  52.907  1.00  0.00     0.032 C 
BRANCH   9  10
HETATM   10  C11 UNL     1      26.018   0.879  52.091  1.00  0.00     0.043 C 
BRANCH  10  11
HETATM   11  C12 UNL     1      27.266   0.400  52.681  1.00  0.00    -0.052 A 
HETATM   12  C13 UNL     1      28.208   1.304  53.166  1.00  0.00     0.007 A 
HETATM   13  C14 UNL     1      29.396   0.955  53.731  1.00  0.00     0.001 A 
HETATM   14  C15 UNL     1      29.719  -0.382  53.849  1.00  0.00     0.001 A 
HETATM   15  C16 UNL     1      28.813  -1.305  53.382  1.00  0.00     0.007 A 
HETATM   16  C17 UNL     1      27.593  -0.935  52.801  1.00  0.00    -0.056 A 
HETATM   17  C18 UNL     1      26.630  -1.953  52.303  1.00  0.00     0.049 C 
ENDBRANCH  10  11
ENDBRANCH   9  10
ENDBRANCH   8   9
ENDBRANCH   6   7
BRANCH   1  18
HETATM   18  N1  UNL     1      20.695   1.312  51.085  1.00  0.00    -0.350 N 
HETATM   19  H6  UNL     1      20.325   2.149  51.599  1.00  0.00     0.166 HD
BRANCH  18  20
HETATM   20  C3  UNL     1      21.006   1.387  49.694  1.00  0.00     0.085 C 
HETATM   21  C2  UNL     1      22.162   1.843  49.270  1.00  0.00    -0.014 C 
HETATM   22  C1  UNL     1      22.331   1.857  47.800  1.00  0.00     0.037 C 
ENDBRANCH  18  20
ENDBRANCH   1  18
BRANCH   3  23
HETATM   23  N3  UNL     1      18.149  -1.563  53.861  1.00  0.00    -0.231 N 
HETATM   24  H7  UNL     1      18.058  -2.596  54.015  1.00  0.00     0.174 HD
HETATM   25  H8  UNL     1      17.338  -0.949  53.980  1.00  0.00     0.174 HD
ENDBRANCH   3  23
TORSDOF 7
ENDMDL
MODEL 6
REMARK VINA RESULT:      -7.0      3.083      6.437
REMARK  7 active torsions:
REMARK  status: ('A' for Active; 'I' for Inactive)
REMARK    1  A    between atoms: C3_3  and  N1_4 
REMARK    2  A    between atoms: N1_4  and  C4_5 
REMARK    3  A    between atoms: C5_7  and  N3_8 
REMARK    4  A    between atoms: C7_11  and  C8_12 
REMARK    5  A    between atoms: C9_13  and  C10_14 
REMARK    6  A    between atoms: C10_14  and  C11_15 
REMARK    7  A    between atoms: C11_15  and  C12_16 
ROOT
HETATM    1  C4  UNL     1      22.520   4.099  51.494  1.00  0.00     0.158 A 
HETATM    2  N2  UNL     1      21.532   4.734  50.847  1.00  0.00    -0.044 NA
HETATM    3  C5  UNL     1      20.265   4.269  50.888  1.00  0.00     0.721 A 
HETATM    4  N4  UNL     1      19.999   3.145  51.594  1.00  0.00    -0.074 NA
HETATM    5  C6  UNL     1      20.929   2.468  52.257  1.00  0.00     0.151 A 
HETATM    6  C7  UNL     1      22.215   2.958  52.203  1.00  0.00     0.028 A 
ENDROOT
BRANCH   6   7
HETATM    7  C8  UNL     1      23.308   2.296  52.893  1.00  0.00     0.013 C 
HETATM    8  C9  UNL     1      23.821   1.123  52.556  1.00  0.00    -0.025 C 
BRANCH   8   9
HETATM    9  C10 UNL     1      24.931   0.335  53.166  1.00  0.00     0.032 C 
BRANCH   9  10
HETATM   10  C11 UNL     1      26.091   0.399  52.227  1.00  0.00     0.043 C 
BRANCH  10  11
HETATM   11  C12 UNL     1      27.381  -0.035  52.758  1.00  0.00    -0.052 A 
HETATM   12  C13 UNL     1      27.710  -1.388  52.792  1.00  0.00     0.007 A 
HETATM   13  C14 UNL     1      28.884  -1.887  53.266  1.00  0.00     0.001 A 
HETATM   14  C15 UNL     1      29.838  -1.017  53.753  1.00  0.00     0.001 A 
HETATM   15  C16 UNL     1      29.550   0.328  53.735  1.00  0.00     0.007 A 
HETATM   16  C17 UNL     1      28.338   0.832  53.246  1.00  0.00    -0.056 A 
HETATM   17  C18 UNL     1      28.050   2.291  53.238  1.00  0.00     0.049 C 
ENDBRANCH  10  11
ENDBRANCH   9  10
ENDBRANCH   8   9
ENDBRANCH   6   7
BRANCH   1  18
HETATM   18  N1  UNL     1      23.803   4.697  51.367  1.00  0.00    -0.350 N 
HETATM   19  H6  UNL     1      23.735   5.432  52.113  1.00  0.00     0.166 HD
BRANCH  18  20
HETATM   20  C3  UNL     1      24.988   4.557  50.584  1.00  0.00     0.085 C 
HETATM   21  C2  UNL     1      25.404   3.383  50.168  1.00  0.00    -0.014 C 
HETATM   22  C1  UNL     1      26.648   3.404  49.368  1.00  0.00     0.037 C 
ENDBRANCH  18  20
ENDBRANCH   1  18
BRANCH   3  23
HETATM   23  N3  UNL     1      19.216   4.939  50.203  1.00  0.00    -0.231 N 
HETATM   24  H7  UNL     1      18.514   4.369  49.672  1.00  0.00     0.174 HD
HETATM   25  H8  UNL     1      19.141   5.961  50.225  1.00  0.00     0.174 HD
ENDBRANCH   3  23
TORSDOF 7
ENDMDL
MODEL 7
REMARK VINA RESULT:      -6.9      2.763      5.670
REMARK  7 active torsions:
REMARK  status: ('A' for Active; 'I' for Inactive)
REMARK    1  A    between atoms: C3_3  and  N1_4 
REMARK    2  A    between atoms: N1_4  and  C4_5 
REMARK    3  A    between atoms: C5_7  and  N3_8 
REMARK    4  A    between atoms: C7_11  and  C8_12 
REMARK    5  A    between atoms: C9_13  and  C10_14 
REMARK    6  A    between atoms: C10_14  and  C11_15 
REMARK    7  A    between atoms: C11_15  and  C12_16 
ROOT
HETATM    1  C4  UNL     1      22.543   0.762  52.131  1.00  0.00     0.158 A 
HETATM    2  N2  UNL     1      21.810  -0.197  52.715  1.00  0.00    -0.044 NA
HETATM    3  C5  UNL     1      22.322  -0.954  53.709  1.00  0.00     0.721 A 
HETATM    4  N4  UNL     1      23.595  -0.734  54.114  1.00  0.00    -0.074 NA
HETATM    5  C6  UNL     1      24.376   0.197  53.579  1.00  0.00     0.151 A 
HETATM    6  C7  UNL     1      23.836   0.958  52.567  1.00  0.00     0.028 A 
ENDROOT
BRANCH   6   7
HETATM    7  C8  UNL     1      24.602   2.005  51.913  1.00  0.00     0.013 C 
HETATM    8  C9  UNL     1      25.870   1.905  51.550  1.00  0.00    -0.025 C 
BRANCH   8   9
HETATM    9  C10 UNL     1      26.771   2.886  50.878  1.00  0.00     0.032 C 
BRANCH   9  10
HETATM   10  C11 UNL     1      26.081   3.346  49.636  1.00  0.00     0.043 C 
BRANCH  10  11
HETATM   11  C12 UNL     1      26.524   4.624  49.082  1.00  0.00    -0.052 A 
HETATM   12  C13 UNL     1      27.854   4.807  48.713  1.00  0.00     0.007 A 
HETATM   13  C14 UNL     1      28.360   5.957  48.189  1.00  0.00     0.001 A 
HETATM   14  C15 UNL     1      27.521   7.036  47.996  1.00  0.00     0.001 A 
HETATM   15  C16 UNL     1      26.198   6.892  48.348  1.00  0.00     0.007 A 
HETATM   16  C17 UNL     1      25.688   5.704  48.887  1.00  0.00    -0.056 A 
HETATM   17  C18 UNL     1      24.254   5.574  49.261  1.00  0.00     0.049 C 
ENDBRANCH  10  11
ENDBRANCH   9  10
ENDBRANCH   8   9
ENDBRANCH   6   7
BRANCH   1  18
HETATM   18  N1  UNL     1      21.880   1.482  51.101  1.00  0.00    -0.350 N 
HETATM   19  H6  UNL     1      21.315   2.148  51.681  1.00  0.00     0.166 HD
BRANCH  18  20
HETATM   20  C3  UNL     1      21.812   1.512  49.676  1.00  0.00     0.085 C 
HETATM   21  C2  UNL     1      22.584   2.303  48.966  1.00  0.00    -0.014 C 
HETATM   22  C1  UNL     1      22.391   2.217  47.501  1.00  0.00     0.037 C 
ENDBRANCH  18  20
ENDBRANCH   1  18
BRANCH   3  23
HETATM   23  N3  UNL     1      21.547  -1.970  54.330  1.00  0.00    -0.231 N 
HETATM   24  H7  UNL     1      21.670  -2.142  55.357  1.00  0.00     0.174 HD
HETATM   25  H8  UNL     1      20.879  -2.527  53.789  1.00  0.00     0.174 HD
ENDBRANCH   3  23
TORSDOF 7
ENDMDL
MODEL 8
REMARK VINA RESULT:      -6.9      2.625      6.082
REMARK  7 active torsions:
REMARK  status: ('A' for Active; 'I' for Inactive)
REMARK    1  A    between atoms: C3_3  and  N1_4 
REMARK    2  A    between atoms: N1_4  and  C4_5 
REMARK    3  A    between atoms: C5_7  and  N3_8 
REMARK    4  A    between atoms: C7_11  and  C8_12 
REMARK    5  A    between atoms: C9_13  and  C10_14 
REMARK    6  A    between atoms: C10_14  and  C11_15 
REMARK    7  A    between atoms: C11_15  and  C12_16 
ROOT
HETATM    1  C4  UNL     1      24.803   0.231  53.514  1.00  0.00     0.158 A 
HETATM    2  N2  UNL     1      23.975  -0.727  53.958  1.00  0.00    -0.044 NA
HETATM    3  C5  UNL     1      22.686  -0.766  53.561  1.00  0.00     0.721 A 
HETATM    4  N4  UNL     1      22.231   0.178  52.704  1.00  0.00    -0.074 NA
HETATM    5  C6  UNL     1      22.996   1.152  52.226  1.00  0.00     0.151 A 
HETATM    6  C7  UNL     1      24.308   1.176  52.643  1.00  0.00     0.028 A 
ENDROOT
BRANCH   6   7
HETATM    7  C8  UNL     1      25.232   2.198  52.181  1.00  0.00     0.013 C 
HETATM    8  C9  UNL     1      25.735   2.272  50.960  1.00  0.00    -0.025 C 
BRANCH   8   9
HETATM    9  C10 UNL     1      26.681   3.254  50.355  1.00  0.00     0.032 C 
BRANCH   9  10
HETATM   10  C11 UNL     1      25.871   4.210  49.543  1.00  0.00     0.043 C 
BRANCH  10  11
HETATM   11  C12 UNL     1      26.607   5.280  48.872  1.00  0.00    -0.052 A 
HETATM   12  C13 UNL     1      27.961   5.128  48.583  1.00  0.00     0.007 A 
HETATM   13  C14 UNL     1      28.729   6.064  47.963  1.00  0.00     0.001 A 
HETATM   14  C15 UNL     1      28.156   7.260  47.580  1.00  0.00     0.001 A 
HETATM   15  C16 UNL     1      26.819   7.447  47.848  1.00  0.00     0.007 A 
HETATM   16  C17 UNL     1      26.038   6.476  48.488  1.00  0.00    -0.056 A 
HETATM   17  C18 UNL     1      24.594   6.702  48.768  1.00  0.00     0.049 C 
ENDBRANCH  10  11
ENDBRANCH   9  10
ENDBRANCH   8   9
ENDBRANCH   6   7
BRANCH   1  18
HETATM   18  N1  UNL     1      26.133   0.153  54.011  1.00  0.00    -0.350 N 
HETATM   19  H6  UNL     1      26.015   0.658  54.923  1.00  0.00     0.166 HD
BRANCH  18  20
HETATM   20  C3  UNL     1      27.401  -0.374  53.623  1.00  0.00     0.085 C 
HETATM   21  C2  UNL     1      28.519   0.060  54.159  1.00  0.00    -0.014 C 
HETATM   22  C1  UNL     1      29.751  -0.585  53.650  1.00  0.00     0.037 C 
ENDBRANCH  18  20
ENDBRANCH   1  18
BRANCH   3  23
HETATM   23  N3  UNL     1      21.805  -1.779  54.030  1.00  0.00    -0.231 N 
HETATM   24  H7  UNL     1      21.620  -2.610  53.417  1.00  0.00     0.174 HD
HETATM   25  H8  UNL     1      21.358  -1.704  54.949  1.00  0.00     0.174 HD
ENDBRANCH   3  23
TORSDOF 7
ENDMDL
MODEL 9
REMARK VINA RESULT:      -6.9      2.138      4.376
REMARK  7 active torsions:
REMARK  status: ('A' for Active; 'I' for Inactive)
REMARK    1  A    between atoms: C3_3  and  N1_4 
REMARK    2  A    between atoms: N1_4  and  C4_5 
REMARK    3  A    between atoms: C5_7  and  N3_8 
REMARK    4  A    between atoms: C7_11  and  C8_12 
REMARK    5  A    between atoms: C9_13  and  C10_14 
REMARK    6  A    between atoms: C10_14  and  C11_15 
REMARK    7  A    between atoms: C11_15  and  C12_16 
ROOT
HETATM    1  C4  UNL     1      25.466  -0.331  53.764  1.00  0.00     0.158 A 
HETATM    2  N2  UNL     1      26.108  -1.500  53.616  1.00  0.00    -0.044 NA
HETATM    3  C5  UNL     1      27.361  -1.545  53.117  1.00  0.00     0.721 A 
HETATM    4  N4  UNL     1      27.970  -0.388  52.762  1.00  0.00    -0.074 NA
HETATM    5  C6  UNL     1      27.393   0.801  52.882  1.00  0.00     0.151 A 
HETATM    6  C7  UNL     1      26.115   0.826  53.393  1.00  0.00     0.028 A 
ENDROOT
BRANCH   6   7
HETATM    7  C8  UNL     1      25.392   2.074  53.566  1.00  0.00     0.013 C 
HETATM    8  C9  UNL     1      24.611   2.634  52.657  1.00  0.00    -0.025 C 
BRANCH   8   9
HETATM    9  C10 UNL     1      23.817   3.896  52.699  1.00  0.00     0.032 C 
BRANCH   9  10
HETATM   10  C11 UNL     1      22.936   3.908  51.493  1.00  0.00     0.043 C 
BRANCH  10  11
HETATM   11  C12 UNL     1      22.050   2.758  51.325  1.00  0.00    -0.052 A 
HETATM   12  C13 UNL     1      21.171   2.393  52.342  1.00  0.00     0.007 A 
HETATM   13  C14 UNL     1      20.309   1.342  52.278  1.00  0.00     0.001 A 
HETATM   14  C15 UNL     1      20.279   0.563  51.138  1.00  0.00     0.001 A 
HETATM   15  C16 UNL     1      21.133   0.894  50.112  1.00  0.00     0.007 A 
HETATM   16  C17 UNL     1      22.017   1.978  50.188  1.00  0.00    -0.056 A 
HETATM   17  C18 UNL     1      22.932   2.315  49.064  1.00  0.00     0.049 C 
ENDBRANCH  10  11
ENDBRANCH   9  10
ENDBRANCH   8   9
ENDBRANCH   6   7
BRANCH   1  18
HETATM   18  N1  UNL     1      24.154  -0.430  54.301  1.00  0.00    -0.350 N 
HETATM   19  H6  UNL     1      24.325  -0.055  55.266  1.00  0.00     0.166 HD
BRANCH  18  20
HETATM   20  C3  UNL     1      22.851  -0.853  53.900  1.00  0.00     0.085 C 
HETATM   21  C2  UNL     1      21.940  -1.204  54.778  1.00  0.00    -0.014 C 
HETATM   22  C1  UNL     1      20.641  -1.618  54.204  1.00  0.00     0.037 C 
ENDBRANCH  18  20
ENDBRANCH   1  18
BRANCH   3  23
HETATM   23  N3  UNL     1      28.044  -2.781  52.959  1.00  0.00    -0.231 N 
HETATM   24  H7  UNL     1      28.342  -3.074  51.997  1.00  0.00     0.174 HD
HETATM   25  H8  UNL     1      28.243  -3.379  53.767  1.00  0.00     0.174 HD
ENDBRANCH   3  23
TORSDOF 7
ENDMDL
