MODEL 1
REMARK VINA RESULT:      -9.1      0.000      0.000
REMARK  4 active torsions:
REMARK  status: ('A' for Active; 'I' for Inactive)
REMARK       I    between atoms: C2_2  and  N1_4 
REMARK    1  A    between atoms: N1_4  and  C3_5 
REMARK    2  A    between atoms: C3_5  and  C4_6 
REMARK    3  A    between atoms: C7_9  and  N2_10 
REMARK    4  A    between atoms: N2_10  and  C8_11 
ROOT
HETATM    1  C8  UNL     1      24.298   2.903  52.252  1.00  0.00     0.708 A 
HETATM    2  N3  UNL     1      25.631   2.899  52.561  1.00  0.00    -0.060 NA
HETATM    3  C9  UNL     1      25.897   1.681  53.028  1.00  0.00     0.139 A 
HETATM    4  C10 UNL     1      27.202   1.325  53.408  1.00  0.00     0.168 C 
HETATM    5  C11 UNL     1      28.514   2.032  53.483  1.00  0.00     0.055 C 
HETATM    6  C12 UNL     1      29.207   0.699  53.712  1.00  0.00     0.185 A 
HETATM    7  C13 UNL     1      29.837  -0.352  53.276  1.00  0.00     0.063 A 
HETATM    8  C14 UNL     1      28.299  -1.189  53.387  1.00  0.00     0.253 A 
HETATM    9  N4  UNL     1      27.754   0.085  53.755  1.00  0.00    -0.017 N 
HETATM   10  C15 UNL     1      28.508   0.223  55.066  1.00  0.00     0.290 A 
HETATM   11  C16 UNL     1      24.796   0.906  53.038  1.00  0.00     0.105 A 
HETATM   12  C17 UNL     1      24.661  -0.408  53.452  1.00  0.00     0.149 A 
HETATM   13  N5  UNL     1      23.420  -0.956  53.358  1.00  0.00    -0.269 NA
HETATM   14  C18 UNL     1      22.401  -0.192  52.869  1.00  0.00     0.134 A 
HETATM   15  C19 UNL     1      22.606   1.111  52.474  1.00  0.00     0.135 A 
HETATM   16  N6  UNL     1      23.818   1.685  52.552  1.00  0.00    -0.151 N 
ENDROOT
BRANCH   1  17
HETATM   17  N2  UNL     1      23.641   4.021  51.720  1.00  0.00    -0.219 N 
HETATM   18  H13 UNL     1      22.992   4.544  52.379  1.00  0.00     0.178 HD
BRANCH  17  19
HETATM   19  C7  UNL     1      23.605   4.701  50.460  1.00  0.00     0.099 C 
HETATM   20  C6  UNL     1      24.430   4.052  49.387  1.00  0.00     0.026 C 
HETATM   21  C5  UNL     1      25.834   4.570  49.272  1.00  0.00     0.008 C 
HETATM   22  C4  UNL     1      25.763   6.061  49.101  1.00  0.00     0.003 C 
HETATM   23  C21 UNL     1      25.276   6.603  50.426  1.00  0.00     0.008 C 
HETATM   24  C20 UNL     1      23.861   6.179  50.592  1.00  0.00     0.026 C 
BRANCH  22  25
HETATM   25  C3  UNL     1      27.030   6.689  48.638  1.00  0.00     0.127 C 
BRANCH  25  26
HETATM   26  N1  UNL     1      28.193   5.857  48.883  1.00  0.00    -0.361 N 
HETATM   27  C2  UNL     1      29.219   6.155  47.940  1.00  0.00     0.213 C 
HETATM   28  C1  UNL     1      30.546   5.470  47.923  1.00  0.00     0.117 C 
HETATM   29  O1  UNL     1      28.995   7.053  47.062  1.00  0.00    -0.274 OA
HETATM   30  H4  UNL     1      28.474   5.112  49.555  1.00  0.00     0.162 HD
ENDBRANCH  25  26
ENDBRANCH  22  25
ENDBRANCH  17  19
ENDBRANCH   1  17
TORSDOF 4
ENDMDL
MODEL 2
REMARK VINA RESULT:      -9.0      2.466      7.307
REMARK  4 active torsions:
REMARK  status: ('A' for Active; 'I' for Inactive)
REMARK       I    between atoms: C2_2  and  N1_4 
REMARK    1  A    between atoms: N1_4  and  C3_5 
REMARK    2  A    between atoms: C3_5  and  C4_6 
REMARK    3  A    between atoms: C7_9  and  N2_10 
REMARK    4  A    between atoms: N2_10  and  C8_11 
ROOT
HETATM    1  C8  UNL     1      24.954   4.092  50.300  1.00  0.00     0.708 A 
HETATM    2  N3  UNL     1      26.152   4.263  49.662  1.00  0.00    -0.060 NA
HETATM    3  C9  UNL     1      26.246   5.564  49.396  1.00  0.00     0.139 A 
HETATM    4  C10 UNL     1      27.388   6.090  48.768  1.00  0.00     0.168 C 
HETATM    5  C11 UNL     1      28.649   5.519  48.212  1.00  0.00     0.055 C 
HETATM    6  C12 UNL     1      29.216   6.923  48.084  1.00  0.00     0.185 A 
HETATM    7  C13 UNL     1      29.911   7.922  48.543  1.00  0.00     0.063 A 
HETATM    8  C14 UNL     1      28.378   8.637  49.009  1.00  0.00     0.253 A 
HETATM    9  N4  UNL     1      27.789   7.414  48.547  1.00  0.00    -0.017 N 
HETATM   10  C15 UNL     1      28.161   7.586  47.085  1.00  0.00     0.290 A 
HETATM   11  C16 UNL     1      25.163   6.235  49.831  1.00  0.00     0.105 A 
HETATM   12  C17 UNL     1      24.883   7.588  49.741  1.00  0.00     0.149 A 
HETATM   13  N5  UNL     1      23.700   8.006  50.265  1.00  0.00    -0.269 NA
HETATM   14  C18 UNL     1      22.874   7.083  50.839  1.00  0.00     0.134 A 
HETATM   15  C19 UNL     1      23.216   5.750  50.894  1.00  0.00     0.135 A 
HETATM   16  N6  UNL     1      24.376   5.302  50.388  1.00  0.00    -0.151 N 
ENDROOT
BRANCH   1  17
HETATM   17  N2  UNL     1      24.499   2.846  50.748  1.00  0.00    -0.219 N 
HETATM   18  H13 UNL     1      24.501   2.058  50.034  1.00  0.00     0.178 HD
BRANCH  17  19
HETATM   19  C7  UNL     1      24.009   2.300  51.978  1.00  0.00     0.099 C 
HETATM   20  C6  UNL     1      24.558   2.965  53.208  1.00  0.00     0.026 C 
HETATM   21  C5  UNL     1      25.790   2.322  53.776  1.00  0.00     0.008 C 
HETATM   22  C4  UNL     1      25.485   0.870  54.012  1.00  0.00     0.003 C 
HETATM   23  C21 UNL     1      25.345   0.252  52.639  1.00  0.00     0.008 C 
HETATM   24  C20 UNL     1      24.106   0.798  52.025  1.00  0.00     0.026 C 
BRANCH  22  25
HETATM   25  C3  UNL     1      26.471   0.167  54.876  1.00  0.00     0.127 C 
BRANCH  25  26
HETATM   26  N1  UNL     1      27.421  -0.626  54.119  1.00  0.00    -0.361 N 
HETATM   27  C2  UNL     1      28.738  -0.112  54.287  1.00  0.00     0.213 C 
HETATM   28  C1  UNL     1      29.944  -0.706  53.637  1.00  0.00     0.117 C 
HETATM   29  O1  UNL     1      28.900   0.911  55.033  1.00  0.00    -0.274 OA
HETATM   30  H4  UNL     1      27.396  -1.460  53.494  1.00  0.00     0.162 HD
ENDBRANCH  25  26
ENDBRANCH  22  25
ENDBRANCH  17  19
ENDBRANCH   1  17
TORSDOF 4
ENDMDL
MODEL 3
REMARK VINA RESULT:      -8.7      1.692      4.196
REMARK  4 active torsions:
REMARK  status: ('A' for Active; 'I' for Inactive)
REMARK       I    between atoms: C2_2  and  N1_4 
REMARK    1  A    between atoms: N1_4  and  C3_5 
REMARK    2  A    between atoms: C3_5  and  C4_6 
REMARK    3  A    between atoms: C7_9  and  N2_10 
REMARK    4  A    between atoms: N2_10  and  C8_11 
ROOT
HETATM    1  C8  UNL     1      26.089   2.474  51.648  1.00  0.00     0.708 A 
HETATM    2  N3  UNL     1      24.778   2.085  51.629  1.00  0.00    -0.060 NA
HETATM    3  C9  UNL     1      24.670   1.110  52.529  1.00  0.00     0.139 A 
HETATM    4  C10 UNL     1      23.429   0.504  52.790  1.00  0.00     0.168 C 
HETATM    5  C11 UNL     1      22.048   0.638  52.239  1.00  0.00     0.055 C 
HETATM    6  C12 UNL     1      21.521  -0.210  53.385  1.00  0.00     0.185 A 
HETATM    7  C13 UNL     1      21.000  -0.334  54.571  1.00  0.00     0.063 A 
HETATM    8  C14 UNL     1      22.627  -0.672  55.135  1.00  0.00     0.253 A 
HETATM    9  N4  UNL     1      23.036  -0.397  53.788  1.00  0.00    -0.017 N 
HETATM   10  C15 UNL     1      22.320  -1.572  53.147  1.00  0.00     0.290 A 
HETATM   11  C16 UNL     1      25.851   0.852  53.121  1.00  0.00     0.105 A 
HETATM   12  C17 UNL     1      26.152  -0.084  54.095  1.00  0.00     0.149 A 
HETATM   13  N5  UNL     1      27.443  -0.137  54.519  1.00  0.00    -0.269 NA
HETATM   14  C18 UNL     1      28.349   0.722  53.968  1.00  0.00     0.134 A 
HETATM   15  C19 UNL     1      27.982   1.630  53.000  1.00  0.00     0.135 A 
HETATM   16  N6  UNL     1      26.716   1.711  52.558  1.00  0.00    -0.151 N 
ENDROOT
BRANCH   1  17
HETATM   17  N2  UNL     1      26.593   3.496  50.833  1.00  0.00    -0.219 N 
HETATM   18  H13 UNL     1      27.453   4.006  51.193  1.00  0.00     0.178 HD
BRANCH  17  19
HETATM   19  C7  UNL     1      26.258   4.075  49.567  1.00  0.00     0.099 C 
HETATM   20  C6  UNL     1      27.440   4.340  48.679  1.00  0.00     0.026 C 
HETATM   21  C5  UNL     1      28.026   5.716  48.802  1.00  0.00     0.008 C 
HETATM   22  C4  UNL     1      26.920   6.709  48.576  1.00  0.00     0.003 C 
HETATM   23  C21 UNL     1      26.008   6.586  49.775  1.00  0.00     0.008 C 
HETATM   24  C20 UNL     1      25.339   5.261  49.697  1.00  0.00     0.026 C 
BRANCH  22  25
HETATM   25  C3  UNL     1      27.384   8.101  48.329  1.00  0.00     0.127 C 
BRANCH  25  26
HETATM   26  N1  UNL     1      28.323   8.568  49.331  1.00  0.00    -0.361 N 
HETATM   27  C2  UNL     1      29.499   9.074  48.708  1.00  0.00     0.213 C 
HETATM   28  C1  UNL     1      30.659   9.631  49.466  1.00  0.00     0.117 C 
HETATM   29  O1  UNL     1      29.570   9.050  47.434  1.00  0.00    -0.274 OA
HETATM   30  H4  UNL     1      28.364   8.633  50.371  1.00  0.00     0.162 HD
ENDBRANCH  25  26
ENDBRANCH  22  25
ENDBRANCH  17  19
ENDBRANCH   1  17
TORSDOF 4
ENDMDL
MODEL 4
REMARK VINA RESULT:      -8.5      3.287      6.721
REMARK  4 active torsions:
REMARK  status: ('A' for Active; 'I' for Inactive)
REMARK       I    between atoms: C2_2  and  N1_4 
REMARK    1  A    between atoms: N1_4  and  C3_5 
REMARK    2  A    between atoms: C3_5  and  C4_6 
REMARK    3  A    between atoms: C7_9  and  N2_10 
REMARK    4  A    between atoms: N2_10  and  C8_11 
ROOT
HETATM    1  C8  UNL     1      23.204   2.787  50.522  1.00  0.00     0.708 A 
HETATM    2  N3  UNL     1      23.528   1.791  51.403  1.00  0.00    -0.060 NA
HETATM    3  C9  UNL     1      24.854   1.817  51.517  1.00  0.00     0.139 A 
HETATM    4  C10 UNL     1      25.520   0.935  52.385  1.00  0.00     0.168 C 
HETATM    5  C11 UNL     1      25.105  -0.182  53.283  1.00  0.00     0.055 C 
HETATM    6  C12 UNL     1      26.496  -0.193  53.895  1.00  0.00     0.185 A 
HETATM    7  C13 UNL     1      27.348   0.177  54.806  1.00  0.00     0.063 A 
HETATM    8  C14 UNL     1      27.925   1.353  53.638  1.00  0.00     0.253 A 
HETATM    9  N4  UNL     1      26.857   0.887  52.801  1.00  0.00    -0.017 N 
HETATM   10  C15 UNL     1      27.388  -0.522  52.612  1.00  0.00     0.290 A 
HETATM   11  C16 UNL     1      25.396   2.780  50.748  1.00  0.00     0.105 A 
HETATM   12  C17 UNL     1      26.729   3.120  50.588  1.00  0.00     0.149 A 
HETATM   13  N5  UNL     1      27.004   4.143  49.735  1.00  0.00    -0.269 NA
HETATM   14  C18 UNL     1      25.967   4.763  49.100  1.00  0.00     0.134 A 
HETATM   15  C19 UNL     1      24.662   4.373  49.305  1.00  0.00     0.135 A 
HETATM   16  N6  UNL     1      24.354   3.368  50.141  1.00  0.00    -0.151 N 
ENDROOT
BRANCH   1  17
HETATM   17  N2  UNL     1      21.886   3.076  50.149  1.00  0.00    -0.219 N 
HETATM   18  H13 UNL     1      21.761   3.775  49.357  1.00  0.00     0.178 HD
BRANCH  17  19
HETATM   19  C7  UNL     1      20.577   2.663  50.557  1.00  0.00     0.099 C 
HETATM   20  C6  UNL     1      20.238   3.009  51.978  1.00  0.00     0.026 C 
HETATM   21  C5  UNL     1      20.549   1.935  52.980  1.00  0.00     0.008 C 
HETATM   22  C4  UNL     1      19.865   0.674  52.531  1.00  0.00     0.003 C 
HETATM   23  C21 UNL     1      20.594   0.236  51.281  1.00  0.00     0.008 C 
HETATM   24  C20 UNL     1      20.289   1.225  50.213  1.00  0.00     0.026 C 
BRANCH  22  25
HETATM   25  C3  UNL     1      19.788  -0.387  53.570  1.00  0.00     0.127 C 
BRANCH  25  26
HETATM   26  N1  UNL     1      20.765  -0.212  54.629  1.00  0.00    -0.361 N 
HETATM   27  C2  UNL     1      21.728  -1.261  54.590  1.00  0.00     0.213 C 
HETATM   28  C1  UNL     1      22.867  -1.369  55.549  1.00  0.00     0.117 C 
HETATM   29  O1  UNL     1      21.613  -2.158  53.690  1.00  0.00    -0.274 OA
HETATM   30  H4  UNL     1      20.947   0.468  55.398  1.00  0.00     0.162 HD
ENDBRANCH  25  26
ENDBRANCH  22  25
ENDBRANCH  17  19
ENDBRANCH   1  17
TORSDOF 4
ENDMDL
MODEL 5
REMARK VINA RESULT:      -8.4      3.192      8.534
REMARK  4 active torsions:
REMARK  status: ('A' for Active; 'I' for Inactive)
REMARK       I    between atoms: C2_2  and  N1_4 
REMARK    1  A    between atoms: N1_4  and  C3_5 
REMARK    2  A    between atoms: C3_5  and  C4_6 
REMARK    3  A    between atoms: C7_9  and  N2_10 
REMARK    4  A    between atoms: N2_10  and  C8_11 
ROOT
HETATM    1  C8  UNL     1      29.096   6.126  48.529  1.00  0.00     0.708 A 
HETATM    2  N3  UNL     1      29.798   5.085  47.986  1.00  0.00    -0.060 NA
HETATM    3  C9  UNL     1      31.005   5.567  47.695  1.00  0.00     0.139 A 
HETATM    4  C10 UNL     1      31.999   4.738  47.149  1.00  0.00     0.168 C 
HETATM    5  C11 UNL     1      32.068   3.312  46.713  1.00  0.00     0.055 C 
HETATM    6  C12 UNL     1      33.578   3.433  46.595  1.00  0.00     0.185 A 
HETATM    7  C13 UNL     1      34.778   3.306  47.082  1.00  0.00     0.063 A 
HETATM    8  C14 UNL     1      34.715   5.030  47.403  1.00  0.00     0.253 A 
HETATM    9  N4  UNL     1      33.364   4.961  46.926  1.00  0.00    -0.017 N 
HETATM   10  C15 UNL     1      33.705   4.584  45.496  1.00  0.00     0.290 A 
HETATM   11  C16 UNL     1      31.108   6.869  48.022  1.00  0.00     0.105 A 
HETATM   12  C17 UNL     1      32.188   7.722  47.873  1.00  0.00     0.149 A 
HETATM   13  N5  UNL     1      32.018   9.006  48.287  1.00  0.00    -0.269 NA
HETATM   14  C18 UNL     1      30.814   9.370  48.816  1.00  0.00     0.134 A 
HETATM   15  C19 UNL     1      29.779   8.469  48.935  1.00  0.00     0.135 A 
HETATM   16  N6  UNL     1      29.912   7.193  48.538  1.00  0.00    -0.151 N 
ENDROOT
BRANCH   1  17
HETATM   17  N2  UNL     1      27.772   6.005  48.972  1.00  0.00    -0.219 N 
HETATM   18  H13 UNL     1      27.453   6.706  49.705  1.00  0.00     0.178 HD
BRANCH  17  19
HETATM   19  C7  UNL     1      26.657   5.152  48.690  1.00  0.00     0.099 C 
HETATM   20  C6  UNL     1      25.323   5.751  49.031  1.00  0.00     0.026 C 
HETATM   21  C5  UNL     1      24.821   5.430  50.408  1.00  0.00     0.008 C 
HETATM   22  C4  UNL     1      24.820   3.935  50.561  1.00  0.00     0.003 C 
HETATM   23  C21 UNL     1      26.275   3.526  50.593  1.00  0.00     0.008 C 
HETATM   24  C20 UNL     1      26.838   3.761  49.237  1.00  0.00     0.026 C 
BRANCH  22  25
HETATM   25  C3  UNL     1      24.043   3.437  51.728  1.00  0.00     0.127 C 
BRANCH  25  26
HETATM   26  N1  UNL     1      24.778   2.475  52.527  1.00  0.00    -0.361 N 
HETATM   27  C2  UNL     1      24.158   1.195  52.452  1.00  0.00     0.213 C 
HETATM   28  C1  UNL     1      24.673  -0.013  53.164  1.00  0.00     0.117 C 
HETATM   29  O1  UNL     1      23.107   1.069  51.739  1.00  0.00    -0.274 OA
HETATM   30  H4  UNL     1      25.627   2.471  53.131  1.00  0.00     0.162 HD
ENDBRANCH  25  26
ENDBRANCH  22  25
ENDBRANCH  17  19
ENDBRANCH   1  17
TORSDOF 4
ENDMDL
MODEL 6
REMARK VINA RESULT:      -8.0      4.636      8.349
REMARK  4 active torsions:
REMARK  status: ('A' for Active; 'I' for Inactive)
REMARK       I    between atoms: C2_2  and  N1_4 
REMARK    1  A    between atoms: N1_4  and  C3_5 
REMARK    2  A    between atoms: C3_5  and  C4_6 
REMARK    3  A    between atoms: C7_9  and  N2_10 
REMARK    4  A    between atoms: N2_10  and  C8_11 
ROOT
HETATM    1  C8  UNL     1      22.828   1.494  51.649  1.00  0.00     0.708 A 
HETATM    2  N3  UNL     1      23.582   0.727  52.494  1.00  0.00    -0.060 NA
HETATM    3  C9  UNL     1      24.848   1.073  52.275  1.00  0.00     0.139 A 
HETATM    4  C10 UNL     1      25.892   0.491  53.015  1.00  0.00     0.168 C 
HETATM    5  C11 UNL     1      25.985  -0.562  54.068  1.00  0.00     0.055 C 
HETATM    6  C12 UNL     1      27.432  -0.171  54.316  1.00  0.00     0.185 A 
HETATM    7  C13 UNL     1      28.341   0.503  54.958  1.00  0.00     0.063 A 
HETATM    8  C14 UNL     1      28.326   1.614  53.600  1.00  0.00     0.253 A 
HETATM    9  N4  UNL     1      27.254   0.808  53.091  1.00  0.00    -0.017 N 
HETATM   10  C15 UNL     1      28.073  -0.453  52.881  1.00  0.00     0.290 A 
HETATM   11  C16 UNL     1      24.943   2.024  51.327  1.00  0.00     0.105 A 
HETATM   12  C17 UNL     1      26.075   2.637  50.818  1.00  0.00     0.149 A 
HETATM   13  N5  UNL     1      25.883   3.572  49.850  1.00  0.00    -0.269 NA
HETATM   14  C18 UNL     1      24.609   3.847  49.446  1.00  0.00     0.134 A 
HETATM   15  C19 UNL     1      23.526   3.198  49.996  1.00  0.00     0.135 A 
HETATM   16  N6  UNL     1      23.677   2.269  50.954  1.00  0.00    -0.151 N 
ENDROOT
BRANCH   1  17
HETATM   17  N2  UNL     1      21.430   1.420  51.593  1.00  0.00    -0.219 N 
HETATM   18  H13 UNL     1      20.999   1.367  50.623  1.00  0.00     0.178 HD
BRANCH  17  19
HETATM   19  C7  UNL     1      20.353   1.386  52.537  1.00  0.00     0.099 C 
HETATM   20  C6  UNL     1      20.646   0.587  53.774  1.00  0.00     0.026 C 
HETATM   21  C5  UNL     1      20.222  -0.852  53.711  1.00  0.00     0.008 C 
HETATM   22  C4  UNL     1      18.763  -0.886  53.351  1.00  0.00     0.003 C 
HETATM   23  C21 UNL     1      18.683  -0.414  51.918  1.00  0.00     0.008 C 
HETATM   24  C20 UNL     1      19.036   1.030  51.900  1.00  0.00     0.026 C 
BRANCH  22  25
HETATM   25  C3  UNL     1      18.106  -2.203  53.575  1.00  0.00     0.127 C 
BRANCH  25  26
HETATM   26  N1  UNL     1      16.733  -2.235  53.108  1.00  0.00    -0.361 N 
HETATM   27  C2  UNL     1      16.250  -3.575  53.091  1.00  0.00     0.213 C 
HETATM   28  C1  UNL     1      14.870  -3.947  52.658  1.00  0.00     0.117 C 
HETATM   29  O1  UNL     1      17.035  -4.509  53.464  1.00  0.00    -0.274 OA
HETATM   30  H4  UNL     1      16.017  -1.549  52.786  1.00  0.00     0.162 HD
ENDBRANCH  25  26
ENDBRANCH  22  25
ENDBRANCH  17  19
ENDBRANCH   1  17
TORSDOF 4
ENDMDL
MODEL 7
REMARK VINA RESULT:      -7.7      3.879      5.856
REMARK  4 active torsions:
REMARK  status: ('A' for Active; 'I' for Inactive)
REMARK       I    between atoms: C2_2  and  N1_4 
REMARK    1  A    between atoms: N1_4  and  C3_5 
REMARK    2  A    between atoms: C3_5  and  C4_6 
REMARK    3  A    between atoms: C7_9  and  N2_10 
REMARK    4  A    between atoms: N2_10  and  C8_11 
ROOT
HETATM    1  C8  UNL     1      24.451   2.651  51.399  1.00  0.00     0.708 A 
HETATM    2  N3  UNL     1      25.762   2.707  51.788  1.00  0.00    -0.060 NA
HETATM    3  C9  UNL     1      25.975   1.616  52.521  1.00  0.00     0.139 A 
HETATM    4  C10 UNL     1      27.246   1.343  53.054  1.00  0.00     0.168 C 
HETATM    5  C11 UNL     1      28.564   2.044  53.063  1.00  0.00     0.055 C 
HETATM    6  C12 UNL     1      29.216   0.787  53.616  1.00  0.00     0.185 A 
HETATM    7  C13 UNL     1      29.853  -0.336  53.456  1.00  0.00     0.063 A 
HETATM    8  C14 UNL     1      28.296  -1.123  53.641  1.00  0.00     0.253 A 
HETATM    9  N4  UNL     1      27.752   0.203  53.693  1.00  0.00    -0.017 N 
HETATM   10  C15 UNL     1      28.423   0.614  54.991  1.00  0.00     0.290 A 
HETATM   11  C16 UNL     1      24.862   0.865  52.623  1.00  0.00     0.105 A 
HETATM   12  C17 UNL     1      24.675  -0.329  53.298  1.00  0.00     0.149 A 
HETATM   13  N5  UNL     1      23.433  -0.879  53.241  1.00  0.00    -0.269 NA
HETATM   14  C18 UNL     1      22.462  -0.232  52.533  1.00  0.00     0.134 A 
HETATM   15  C19 UNL     1      22.716   0.956  51.885  1.00  0.00     0.135 A 
HETATM   16  N6  UNL     1      23.931   1.527  51.919  1.00  0.00    -0.151 N 
ENDROOT
BRANCH   1  17
HETATM   17  N2  UNL     1      23.851   3.632  50.599  1.00  0.00    -0.219 N 
HETATM   18  H13 UNL     1      24.257   3.759  49.624  1.00  0.00     0.178 HD
BRANCH  17  19
HETATM   19  C7  UNL     1      22.773   4.564  50.733  1.00  0.00     0.099 C 
HETATM   20  C6  UNL     1      22.232   4.683  52.129  1.00  0.00     0.026 C 
HETATM   21  C5  UNL     1      21.075   3.778  52.436  1.00  0.00     0.008 C 
HETATM   22  C4  UNL     1      20.013   4.020  51.400  1.00  0.00     0.003 C 
HETATM   23  C21 UNL     1      20.573   3.478  50.105  1.00  0.00     0.008 C 
HETATM   24  C20 UNL     1      21.698   4.360  49.698  1.00  0.00     0.026 C 
BRANCH  22  25
HETATM   25  C3  UNL     1      18.679   3.460  51.745  1.00  0.00     0.127 C 
BRANCH  25  26
HETATM   26  N1  UNL     1      17.701   3.641  50.689  1.00  0.00    -0.361 N 
HETATM   27  C2  UNL     1      16.455   4.060  51.238  1.00  0.00     0.213 C 
HETATM   28  C1  UNL     1      15.241   4.333  50.412  1.00  0.00     0.117 C 
HETATM   29  O1  UNL     1      16.367   4.210  52.502  1.00  0.00    -0.274 OA
HETATM   30  H4  UNL     1      17.668   3.549  49.652  1.00  0.00     0.162 HD
ENDBRANCH  25  26
ENDBRANCH  22  25
ENDBRANCH  17  19
ENDBRANCH   1  17
TORSDOF 4
ENDMDL
MODEL 8
REMARK VINA RESULT:      -7.7      2.809      8.326
REMARK  4 active torsions:
REMARK  status: ('A' for Active; 'I' for Inactive)
REMARK       I    between atoms: C2_2  and  N1_4 
REMARK    1  A    between atoms: N1_4  and  C3_5 
REMARK    2  A    between atoms: C3_5  and  C4_6 
REMARK    3  A    between atoms: C7_9  and  N2_10 
REMARK    4  A    between atoms: N2_10  and  C8_11 
ROOT
HETATM    1  C8  UNL     1      27.855   5.814  48.594  1.00  0.00     0.708 A 
HETATM    2  N3  UNL     1      29.068   5.188  48.504  1.00  0.00    -0.060 NA
HETATM    3  C9  UNL     1      29.825   5.960  47.728  1.00  0.00     0.139 A 
HETATM    4  C10 UNL     1      31.162   5.620  47.457  1.00  0.00     0.168 C 
HETATM    5  C11 UNL     1      32.055   4.476  47.804  1.00  0.00     0.055 C 
HETATM    6  C12 UNL     1      33.246   5.261  47.281  1.00  0.00     0.185 A 
HETATM    7  C13 UNL     1      34.257   6.060  47.459  1.00  0.00     0.063 A 
HETATM    8  C14 UNL     1      33.215   7.340  46.864  1.00  0.00     0.253 A 
HETATM    9  N4  UNL     1      32.186   6.341  46.831  1.00  0.00    -0.017 N 
HETATM   10  C15 UNL     1      32.821   5.476  45.757  1.00  0.00     0.290 A 
HETATM   11  C16 UNL     1      29.154   7.050  47.312  1.00  0.00     0.105 A 
HETATM   12  C17 UNL     1      29.586   8.081  46.496  1.00  0.00     0.149 A 
HETATM   13  N5  UNL     1      28.691   9.069  46.227  1.00  0.00    -0.269 NA
HETATM   14  C18 UNL     1      27.441   8.986  46.770  1.00  0.00     0.134 A 
HETATM   15  C19 UNL     1      27.076   7.930  47.575  1.00  0.00     0.135 A 
HETATM   16  N6  UNL     1      27.935   6.938  47.862  1.00  0.00    -0.151 N 
ENDROOT
BRANCH   1  17
HETATM   17  N2  UNL     1      26.786   5.303  49.340  1.00  0.00    -0.219 N 
HETATM   18  H13 UNL     1      26.526   5.839  50.221  1.00  0.00     0.178 HD
BRANCH  17  19
HETATM   19  C7  UNL     1      25.885   4.194  49.239  1.00  0.00     0.099 C 
HETATM   20  C6  UNL     1      24.611   4.365  50.017  1.00  0.00     0.026 C 
HETATM   21  C5  UNL     1      24.644   3.809  51.410  1.00  0.00     0.008 C 
HETATM   22  C4  UNL     1      25.059   2.368  51.322  1.00  0.00     0.003 C 
HETATM   23  C21 UNL     1      26.509   2.384  50.896  1.00  0.00     0.008 C 
HETATM   24  C20 UNL     1      26.560   2.873  49.493  1.00  0.00     0.026 C 
BRANCH  22  25
HETATM   25  C3  UNL     1      24.818   1.581  52.562  1.00  0.00     0.127 C 
BRANCH  25  26
HETATM   26  N1  UNL     1      25.845   0.587  52.808  1.00  0.00    -0.361 N 
HETATM   27  C2  UNL     1      26.621   0.952  53.946  1.00  0.00     0.213 C 
HETATM   28  C1  UNL     1      27.760   0.136  54.463  1.00  0.00     0.117 C 
HETATM   29  O1  UNL     1      26.330   2.033  54.559  1.00  0.00    -0.274 OA
HETATM   30  H4  UNL     1      26.162  -0.309  52.382  1.00  0.00     0.162 HD
ENDBRANCH  25  26
ENDBRANCH  22  25
ENDBRANCH  17  19
ENDBRANCH   1  17
TORSDOF 4
ENDMDL
MODEL 9
REMARK VINA RESULT:      -7.6      4.738      8.755
REMARK  4 active torsions:
REMARK  status: ('A' for Active; 'I' for Inactive)
REMARK       I    between atoms: C2_2  and  N1_4 
REMARK    1  A    between atoms: N1_4  and  C3_5 
REMARK    2  A    between atoms: C3_5  and  C4_6 
REMARK    3  A    between atoms: C7_9  and  N2_10 
REMARK    4  A    between atoms: N2_10  and  C8_11 
ROOT
HETATM    1  C8  UNL     1      20.436   1.755  51.997  1.00  0.00     0.708 A 
HETATM    2  N3  UNL     1      19.658   0.679  52.327  1.00  0.00    -0.060 NA
HETATM    3  C9  UNL     1      18.426   0.977  51.919  1.00  0.00     0.139 A 
HETATM    4  C10 UNL     1      17.373   0.058  52.075  1.00  0.00     0.168 C 
HETATM    5  C11 UNL     1      17.232  -1.297  52.685  1.00  0.00     0.055 C 
HETATM    6  C12 UNL     1      15.856  -1.425  52.052  1.00  0.00     0.185 A 
HETATM    7  C13 UNL     1      15.072  -1.813  51.089  1.00  0.00     0.063 A 
HETATM    8  C14 UNL     1      15.123  -0.154  50.521  1.00  0.00     0.253 A 
HETATM    9  N4  UNL     1      16.063   0.068  51.582  1.00  0.00    -0.017 N 
HETATM   10  C15 UNL     1      15.097  -0.192  52.724  1.00  0.00     0.290 A 
HETATM   11  C16 UNL     1      18.377   2.194  51.346  1.00  0.00     0.105 A 
HETATM   12  C17 UNL     1      17.290   2.859  50.805  1.00  0.00     0.149 A 
HETATM   13  N5  UNL     1      17.521   4.095  50.289  1.00  0.00    -0.269 NA
HETATM   14  C18 UNL     1      18.790   4.597  50.333  1.00  0.00     0.134 A 
HETATM   15  C19 UNL     1      19.827   3.881  50.887  1.00  0.00     0.135 A 
HETATM   16  N6  UNL     1      19.635   2.657  51.405  1.00  0.00    -0.151 N 
ENDROOT
BRANCH   1  17
HETATM   17  N2  UNL     1      21.810   1.812  52.262  1.00  0.00    -0.219 N 
HETATM   18  H13 UNL     1      22.133   2.588  52.914  1.00  0.00     0.178 HD
BRANCH  17  19
HETATM   19  C7  UNL     1      22.973   1.067  51.884  1.00  0.00     0.099 C 
HETATM   20  C6  UNL     1      23.095  -0.267  52.561  1.00  0.00     0.026 C 
HETATM   21  C5  UNL     1      23.897  -0.260  53.830  1.00  0.00     0.008 C 
HETATM   22  C4  UNL     1      25.240   0.340  53.523  1.00  0.00     0.003 C 
HETATM   23  C21 UNL     1      24.982   1.802  53.240  1.00  0.00     0.008 C 
HETATM   24  C20 UNL     1      24.235   1.886  51.957  1.00  0.00     0.026 C 
BRANCH  22  25
HETATM   25  C3  UNL     1      26.268   0.116  54.575  1.00  0.00     0.127 C 
BRANCH  25  26
HETATM   26  N1  UNL     1      27.347  -0.748  54.136  1.00  0.00    -0.361 N 
HETATM   27  C2  UNL     1      28.598  -0.079  54.261  1.00  0.00     0.213 C 
HETATM   28  C1  UNL     1      29.905  -0.698  53.890  1.00  0.00     0.117 C 
HETATM   29  O1  UNL     1      28.606   1.115  54.713  1.00  0.00    -0.274 OA
HETATM   30  H4  UNL     1      27.449  -1.715  53.759  1.00  0.00     0.162 HD
ENDBRANCH  25  26
ENDBRANCH  22  25
ENDBRANCH  17  19
ENDBRANCH   1  17
TORSDOF 4
ENDMDL
