MODEL 1
REMARK VINA RESULT:      -9.4      0.000      0.000
REMARK  2 active torsions:
REMARK  status: ('A' for Active; 'I' for Inactive)
REMARK    1  A    between atoms: C2_2  and  C3_3 
REMARK    2  A    between atoms: C10_11  and  C11_12 
ROOT
HETATM    1  C3  UNL     1      22.885   0.053  53.259  1.00  0.00    -0.041 A 
HETATM    2  C4  UNL     1      23.918  -0.535  53.821  1.00  0.00     0.011 A 
HETATM    3  C5  UNL     1      25.220  -0.183  53.334  1.00  0.00     0.026 A 
HETATM    4  C6  UNL     1      25.349   0.700  52.363  1.00  0.00     0.015 A 
HETATM    5  C7  UNL     1      26.769   0.926  52.004  1.00  0.00     0.077 C 
HETATM    6  C8  UNL     1      27.158   2.386  52.140  1.00  0.00     0.126 C 
HETATM    7  N1  UNL     1      26.734   3.139  50.975  1.00  0.00    -0.385 N 
HETATM    8  C9  UNL     1      25.412   3.222  50.473  1.00  0.00     0.102 A 
HETATM    9  C10 UNL     1      25.382   4.211  49.601  1.00  0.00     0.070 A 
HETATM   10  N2  UNL     1      24.074   4.387  49.020  1.00  0.00    -0.369 N 
HETATM   11  C17 UNL     1      22.875   3.619  49.271  1.00  0.00     0.273 A 
HETATM   12  N3  UNL     1      23.056   2.573  50.256  1.00  0.00    -0.251 NA
HETATM   13  C18 UNL     1      24.225   2.430  50.773  1.00  0.00     0.156 A 
HETATM   14  N4  UNL     1      24.228   1.373  51.762  1.00  0.00    -0.329 N 
HETATM   15  C19 UNL     1      22.876   1.028  52.152  1.00  0.00     0.169 A 
HETATM   16  H10 UNL     1      27.451   3.656  50.430  1.00  0.00     0.159 HD
HETATM   17  H16 UNL     1      23.904   5.142  48.329  1.00  0.00     0.161 HD
ENDROOT
BRANCH   9  18
HETATM   18  C11 UNL     1      26.404   5.129  49.139  1.00  0.00    -0.007 A 
HETATM   19  C12 UNL     1      26.156   6.490  49.274  1.00  0.00     0.014 A 
HETATM   20  C13 UNL     1      27.111   7.408  48.897  1.00  0.00     0.001 A 
HETATM   21  C14 UNL     1      28.335   7.051  48.379  1.00  0.00     0.000 A 
HETATM   22  C15 UNL     1      28.624   5.713  48.227  1.00  0.00     0.001 A 
HETATM   23  C16 UNL     1      27.662   4.836  48.609  1.00  0.00     0.014 A 
ENDBRANCH   9  18
BRANCH   1  24
HETATM   24  C2  UNL     1      21.643  -0.405  53.866  1.00  0.00    -0.002 C 
HETATM   25  C1  UNL     1      21.465  -1.491  54.582  1.00  0.00     0.012 C 
ENDBRANCH   1  24
TORSDOF 2
ENDMDL
MODEL 2
REMARK VINA RESULT:      -8.8      3.892      6.078
REMARK  2 active torsions:
REMARK  status: ('A' for Active; 'I' for Inactive)
REMARK    1  A    between atoms: C2_2  and  C3_3 
REMARK    2  A    between atoms: C10_11  and  C11_12 
ROOT
HETATM    1  C3  UNL     1      19.204   0.220  52.276  1.00  0.00    -0.041 A 
HETATM    2  C4  UNL     1      19.261   1.199  51.399  1.00  0.00     0.011 A 
HETATM    3  C5  UNL     1      20.513   1.882  51.257  1.00  0.00     0.026 A 
HETATM    4  C6  UNL     1      21.552   1.523  51.986  1.00  0.00     0.015 A 
HETATM    5  C7  UNL     1      22.748   2.347  51.692  1.00  0.00     0.077 C 
HETATM    6  C8  UNL     1      23.924   1.496  51.253  1.00  0.00     0.126 C 
HETATM    7  N1  UNL     1      24.594   0.918  52.402  1.00  0.00    -0.385 N 
HETATM    8  C9  UNL     1      23.991   0.112  53.400  1.00  0.00     0.102 A 
HETATM    9  C10 UNL     1      24.962  -0.448  54.095  1.00  0.00     0.070 A 
HETATM   10  N2  UNL     1      24.460  -1.296  55.148  1.00  0.00    -0.369 N 
HETATM   11  C17 UNL     1      23.083  -1.557  55.504  1.00  0.00     0.273 A 
HETATM   12  N3  UNL     1      22.129  -0.881  54.649  1.00  0.00    -0.251 NA
HETATM   13  C18 UNL     1      22.587  -0.134  53.709  1.00  0.00     0.156 A 
HETATM   14  N4  UNL     1      21.510   0.434  52.927  1.00  0.00    -0.329 N 
HETATM   15  C19 UNL     1      20.267  -0.266  53.176  1.00  0.00     0.169 A 
HETATM   16  H10 UNL     1      25.604   1.115  52.540  1.00  0.00     0.159 HD
HETATM   17  H16 UNL     1      25.116  -1.813  55.762  1.00  0.00     0.161 HD
ENDROOT
BRANCH   9  18
HETATM   18  C11 UNL     1      26.405  -0.367  53.987  1.00  0.00    -0.007 A 
HETATM   19  C12 UNL     1      27.067   0.501  54.846  1.00  0.00     0.014 A 
HETATM   20  C13 UNL     1      28.442   0.583  54.822  1.00  0.00     0.001 A 
HETATM   21  C14 UNL     1      29.226  -0.165  53.973  1.00  0.00     0.000 A 
HETATM   22  C15 UNL     1      28.612  -1.038  53.103  1.00  0.00     0.001 A 
HETATM   23  C16 UNL     1      27.257  -1.095  53.154  1.00  0.00     0.014 A 
ENDBRANCH   9  18
BRANCH   1  24
HETATM   24  C2  UNL     1      17.874  -0.372  52.297  1.00  0.00    -0.002 C 
HETATM   25  C1  UNL     1      17.423  -1.276  53.137  1.00  0.00     0.012 C 
ENDBRANCH   1  24
TORSDOF 2
ENDMDL
MODEL 3
REMARK VINA RESULT:      -8.6      1.680      2.440
REMARK  2 active torsions:
REMARK  status: ('A' for Active; 'I' for Inactive)
REMARK    1  A    between atoms: C2_2  and  C3_3 
REMARK    2  A    between atoms: C10_11  and  C11_12 
ROOT
HETATM    1  C3  UNL     1      20.334  -0.517  53.217  1.00  0.00    -0.041 A 
HETATM    2  C4  UNL     1      21.097  -0.766  54.259  1.00  0.00     0.011 A 
HETATM    3  C5  UNL     1      22.465  -0.343  54.186  1.00  0.00     0.026 A 
HETATM    4  C6  UNL     1      22.915   0.271  53.108  1.00  0.00     0.015 A 
HETATM    5  C7  UNL     1      24.348   0.626  53.229  1.00  0.00     0.077 C 
HETATM    6  C8  UNL     1      24.576   2.115  53.051  1.00  0.00     0.126 C 
HETATM    7  N1  UNL     1      24.598   2.464  51.643  1.00  0.00    -0.385 N 
HETATM    8  C9  UNL     1      23.573   2.199  50.703  1.00  0.00     0.102 A 
HETATM    9  C10 UNL     1      23.831   2.913  49.624  1.00  0.00     0.070 A 
HETATM   10  N2  UNL     1      22.844   2.719  48.591  1.00  0.00    -0.369 N 
HETATM   11  C17 UNL     1      21.685   1.855  48.616  1.00  0.00     0.273 A 
HETATM   12  N3  UNL     1      21.524   1.141  49.866  1.00  0.00    -0.251 NA
HETATM   13  C18 UNL     1      22.406   1.328  50.782  1.00  0.00     0.156 A 
HETATM   14  N4  UNL     1      22.080   0.575  51.975  1.00  0.00    -0.329 N 
HETATM   15  C19 UNL     1      20.704   0.126  51.942  1.00  0.00     0.169 A 
HETATM   16  H10 UNL     1      25.442   2.935  51.261  1.00  0.00     0.159 HD
HETATM   17  H16 UNL     1      22.917   3.234  47.694  1.00  0.00     0.161 HD
ENDROOT
BRANCH   9  18
HETATM   18  C11 UNL     1      24.902   3.836  49.305  1.00  0.00    -0.007 A 
HETATM   19  C12 UNL     1      24.554   5.147  49.002  1.00  0.00     0.014 A 
HETATM   20  C13 UNL     1      25.532   6.080  48.738  1.00  0.00     0.001 A 
HETATM   21  C14 UNL     1      26.877   5.786  48.757  1.00  0.00     0.000 A 
HETATM   22  C15 UNL     1      27.268   4.499  49.053  1.00  0.00     0.001 A 
HETATM   23  C16 UNL     1      26.279   3.606  49.308  1.00  0.00     0.014 A 
ENDBRANCH   9  18
BRANCH   1  24
HETATM   24  C2  UNL     1      18.980  -1.001  53.448  1.00  0.00    -0.002 C 
HETATM   25  C1  UNL     1      17.963  -0.935  52.619  1.00  0.00     0.012 C 
ENDBRANCH   1  24
TORSDOF 2
ENDMDL
MODEL 4
REMARK VINA RESULT:      -8.4      2.227      5.884
REMARK  2 active torsions:
REMARK  status: ('A' for Active; 'I' for Inactive)
REMARK    1  A    between atoms: C2_2  and  C3_3 
REMARK    2  A    between atoms: C10_11  and  C11_12 
ROOT
HETATM    1  C3  UNL     1      21.606   2.803  49.387  1.00  0.00    -0.041 A 
HETATM    2  C4  UNL     1      22.211   3.795  48.769  1.00  0.00     0.011 A 
HETATM    3  C5  UNL     1      23.560   4.086  49.158  1.00  0.00     0.026 A 
HETATM    4  C6  UNL     1      24.149   3.371  50.097  1.00  0.00     0.015 A 
HETATM    5  C7  UNL     1      25.536   3.827  50.353  1.00  0.00     0.077 C 
HETATM    6  C8  UNL     1      26.541   2.708  50.157  1.00  0.00     0.126 C 
HETATM    7  N1  UNL     1      26.594   1.857  51.331  1.00  0.00    -0.385 N 
HETATM    8  C9  UNL     1      25.497   1.182  51.920  1.00  0.00     0.102 A 
HETATM    9  C10 UNL     1      25.987   0.299  52.770  1.00  0.00     0.070 A 
HETATM   10  N2  UNL     1      24.951  -0.452  53.435  1.00  0.00    -0.369 N 
HETATM   11  C17 UNL     1      23.519  -0.323  53.284  1.00  0.00     0.273 A 
HETATM   12  N3  UNL     1      23.129   0.679  52.314  1.00  0.00    -0.251 NA
HETATM   13  C18 UNL     1      24.061   1.336  51.721  1.00  0.00     0.156 A 
HETATM   14  N4  UNL     1      23.508   2.265  50.759  1.00  0.00    -0.329 N 
HETATM   15  C19 UNL     1      22.125   1.946  50.470  1.00  0.00     0.169 A 
HETATM   16  H10 UNL     1      27.505   1.733  51.814  1.00  0.00     0.159 HD
HETATM   17  H16 UNL     1      25.197  -1.192  54.118  1.00  0.00     0.161 HD
ENDROOT
BRANCH   9  18
HETATM   18  C11 UNL     1      27.346  -0.042  53.139  1.00  0.00    -0.007 A 
HETATM   19  C12 UNL     1      27.764  -1.349  52.923  1.00  0.00     0.014 A 
HETATM   20  C13 UNL     1      29.060  -1.718  53.209  1.00  0.00     0.001 A 
HETATM   21  C14 UNL     1      29.998  -0.845  53.713  1.00  0.00     0.000 A 
HETATM   22  C15 UNL     1      29.628   0.461  53.944  1.00  0.00     0.001 A 
HETATM   23  C16 UNL     1      28.345   0.791  53.649  1.00  0.00     0.014 A 
ENDBRANCH   9  18
BRANCH   1  24
HETATM   24  C2  UNL     1      20.253   2.633  48.879  1.00  0.00    -0.002 C 
HETATM   25  C1  UNL     1      19.818   2.918  47.672  1.00  0.00     0.012 C 
ENDBRANCH   1  24
TORSDOF 2
ENDMDL
MODEL 5
REMARK VINA RESULT:      -8.3      2.465      5.487
REMARK  2 active torsions:
REMARK  status: ('A' for Active; 'I' for Inactive)
REMARK    1  A    between atoms: C2_2  and  C3_3 
REMARK    2  A    between atoms: C10_11  and  C11_12 
ROOT
HETATM    1  C3  UNL     1      20.664   2.886  51.840  1.00  0.00    -0.041 A 
HETATM    2  C4  UNL     1      19.981   1.919  52.412  1.00  0.00     0.011 A 
HETATM    3  C5  UNL     1      20.696   0.725  52.758  1.00  0.00     0.026 A 
HETATM    4  C6  UNL     1      21.987   0.627  52.505  1.00  0.00     0.015 A 
HETATM    5  C7  UNL     1      22.539  -0.679  52.937  1.00  0.00     0.077 C 
HETATM    6  C8  UNL     1      23.680  -0.509  53.921  1.00  0.00     0.126 C 
HETATM    7  N1  UNL     1      24.916  -0.206  53.225  1.00  0.00    -0.385 N 
HETATM    8  C9  UNL     1      25.124   0.871  52.329  1.00  0.00     0.102 A 
HETATM    9  C10 UNL     1      26.425   0.979  52.137  1.00  0.00     0.070 A 
HETATM   10  N2  UNL     1      26.756   2.053  51.233  1.00  0.00    -0.369 N 
HETATM   11  C17 UNL     1      25.854   2.950  50.545  1.00  0.00     0.273 A 
HETATM   12  N3  UNL     1      24.460   2.718  50.858  1.00  0.00    -0.251 NA
HETATM   13  C18 UNL     1      24.177   1.764  51.671  1.00  0.00     0.156 A 
HETATM   14  N4  UNL     1      22.751   1.691  51.908  1.00  0.00    -0.329 N 
HETATM   15  C19 UNL     1      22.093   2.904  51.471  1.00  0.00     0.169 A 
HETATM   16  H10 UNL     1      25.731  -0.834  53.363  1.00  0.00     0.159 HD
HETATM   17  H16 UNL     1      27.746   2.261  51.006  1.00  0.00     0.161 HD
ENDROOT
BRANCH   9  18
HETATM   18  C11 UNL     1      27.549   0.232  52.664  1.00  0.00    -0.007 A 
HETATM   19  C12 UNL     1      28.574   0.950  53.268  1.00  0.00     0.014 A 
HETATM   20  C13 UNL     1      29.645   0.290  53.830  1.00  0.00     0.001 A 
HETATM   21  C14 UNL     1      29.767  -1.081  53.830  1.00  0.00     0.000 A 
HETATM   22  C15 UNL     1      28.774  -1.834  53.242  1.00  0.00     0.001 A 
HETATM   23  C16 UNL     1      27.734  -1.152  52.700  1.00  0.00     0.014 A 
ENDBRANCH   9  18
BRANCH   1  24
HETATM   24  C2  UNL     1      19.802   4.024  51.558  1.00  0.00    -0.002 C 
HETATM   25  C1  UNL     1      19.545   4.551  50.382  1.00  0.00     0.012 C 
ENDBRANCH   1  24
TORSDOF 2
ENDMDL
MODEL 6
REMARK VINA RESULT:      -8.3      3.237      6.136
REMARK  2 active torsions:
REMARK  status: ('A' for Active; 'I' for Inactive)
REMARK    1  A    between atoms: C2_2  and  C3_3 
REMARK    2  A    between atoms: C10_11  and  C11_12 
ROOT
HETATM    1  C3  UNL     1      19.485   2.919  51.636  1.00  0.00    -0.041 A 
HETATM    2  C4  UNL     1      19.919   4.089  51.222  1.00  0.00     0.011 A 
HETATM    3  C5  UNL     1      21.290   4.414  51.490  1.00  0.00     0.026 A 
HETATM    4  C6  UNL     1      22.064   3.555  52.126  1.00  0.00     0.015 A 
HETATM    5  C7  UNL     1      23.440   4.076  52.305  1.00  0.00     0.077 C 
HETATM    6  C8  UNL     1      24.474   3.150  51.694  1.00  0.00     0.126 C 
HETATM    7  N1  UNL     1      24.765   2.047  52.590  1.00  0.00    -0.385 N 
HETATM    8  C9  UNL     1      23.821   1.136  53.124  1.00  0.00     0.102 A 
HETATM    9  C10 UNL     1      24.494   0.128  53.643  1.00  0.00     0.070 A 
HETATM   10  N2  UNL     1      23.626  -0.868  54.222  1.00  0.00    -0.369 N 
HETATM   11  C17 UNL     1      22.182  -0.855  54.301  1.00  0.00     0.273 A 
HETATM   12  N3  UNL     1      21.581   0.308  53.683  1.00  0.00    -0.251 NA
HETATM   13  C18 UNL     1      22.363   1.185  53.163  1.00  0.00     0.156 A 
HETATM   14  N4  UNL     1      21.607   2.260  52.557  1.00  0.00    -0.329 N 
HETATM   15  C19 UNL     1      20.221   1.880  52.381  1.00  0.00     0.169 A 
HETATM   16  H10 UNL     1      25.746   1.903  52.898  1.00  0.00     0.159 HD
HETATM   17  H16 UNL     1      24.023  -1.724  54.651  1.00  0.00     0.161 HD
ENDROOT
BRANCH   9  18
HETATM   18  C11 UNL     1      25.913  -0.151  53.728  1.00  0.00    -0.007 A 
HETATM   19  C12 UNL     1      26.458  -1.014  52.786  1.00  0.00     0.014 A 
HETATM   20  C13 UNL     1      27.811  -1.277  52.788  1.00  0.00     0.001 A 
HETATM   21  C14 UNL     1      28.684  -0.720  53.694  1.00  0.00     0.000 A 
HETATM   22  C15 UNL     1      28.188   0.142  54.646  1.00  0.00     0.001 A 
HETATM   23  C16 UNL     1      26.853   0.380  54.615  1.00  0.00     0.014 A 
ENDBRANCH   9  18
BRANCH   1  24
HETATM   24  C2  UNL     1      18.083   2.739  51.285  1.00  0.00    -0.002 C 
HETATM   25  C1  UNL     1      17.082   3.530  51.596  1.00  0.00     0.012 C 
ENDBRANCH   1  24
TORSDOF 2
ENDMDL
MODEL 7
REMARK VINA RESULT:      -8.2      1.121      7.499
REMARK  2 active torsions:
REMARK  status: ('A' for Active; 'I' for Inactive)
REMARK    1  A    between atoms: C2_2  and  C3_3 
REMARK    2  A    between atoms: C10_11  and  C11_12 
ROOT
HETATM    1  C3  UNL     1      26.411   5.670  48.826  1.00  0.00    -0.041 A 
HETATM    2  C4  UNL     1      25.344   6.246  48.318  1.00  0.00     0.011 A 
HETATM    3  C5  UNL     1      24.078   5.618  48.561  1.00  0.00     0.026 A 
HETATM    4  C6  UNL     1      24.014   4.508  49.273  1.00  0.00     0.015 A 
HETATM    5  C7  UNL     1      22.622   4.017  49.410  1.00  0.00     0.077 C 
HETATM    6  C8  UNL     1      22.214   3.885  50.865  1.00  0.00     0.126 C 
HETATM    7  N1  UNL     1      22.717   2.646  51.426  1.00  0.00    -0.385 N 
HETATM    8  C9  UNL     1      24.071   2.231  51.451  1.00  0.00     0.102 A 
HETATM    9  C10 UNL     1      24.157   1.213  52.285  1.00  0.00     0.070 A 
HETATM   10  N2  UNL     1      25.503   0.705  52.390  1.00  0.00    -0.369 N 
HETATM   11  C17 UNL     1      26.686   1.163  51.695  1.00  0.00     0.273 A 
HETATM   12  N3  UNL     1      26.441   2.290  50.820  1.00  0.00    -0.251 NA
HETATM   13  C18 UNL     1      25.239   2.740  50.741  1.00  0.00     0.156 A 
HETATM   14  N4  UNL     1      25.172   3.886  49.860  1.00  0.00    -0.329 N 
HETATM   15  C19 UNL     1      26.493   4.421  49.608  1.00  0.00     0.169 A 
HETATM   16  H10 UNL     1      22.038   1.974  51.835  1.00  0.00     0.159 HD
HETATM   17  H16 UNL     1      25.717  -0.086  53.025  1.00  0.00     0.161 HD
ENDROOT
BRANCH   9  18
HETATM   18  C11 UNL     1      23.166   0.537  53.097  1.00  0.00    -0.007 A 
HETATM   19  C12 UNL     1      23.594  -0.520  53.891  1.00  0.00     0.014 A 
HETATM   20  C13 UNL     1      22.705  -1.168  54.720  1.00  0.00     0.001 A 
HETATM   21  C14 UNL     1      21.376  -0.824  54.814  1.00  0.00     0.000 A 
HETATM   22  C15 UNL     1      20.906   0.217  54.045  1.00  0.00     0.001 A 
HETATM   23  C16 UNL     1      21.809   0.834  53.241  1.00  0.00     0.014 A 
ENDBRANCH   9  18
BRANCH   1  24
HETATM   24  C2  UNL     1      27.609   6.429  48.496  1.00  0.00    -0.002 C 
HETATM   25  C1  UNL     1      28.774   5.948  48.127  1.00  0.00     0.012 C 
ENDBRANCH   1  24
TORSDOF 2
ENDMDL
MODEL 8
REMARK VINA RESULT:      -7.9      1.883      4.415
REMARK  2 active torsions:
REMARK  status: ('A' for Active; 'I' for Inactive)
REMARK    1  A    between atoms: C2_2  and  C3_3 
REMARK    2  A    between atoms: C10_11  and  C11_12 
ROOT
HETATM    1  C3  UNL     1      27.198  -0.129  53.203  1.00  0.00    -0.041 A 
HETATM    2  C4  UNL     1      26.241  -0.685  53.912  1.00  0.00     0.011 A 
HETATM    3  C5  UNL     1      24.916  -0.158  53.757  1.00  0.00     0.026 A 
HETATM    4  C6  UNL     1      24.694   0.844  52.927  1.00  0.00     0.015 A 
HETATM    5  C7  UNL     1      23.267   1.242  52.909  1.00  0.00     0.077 C 
HETATM    6  C8  UNL     1      22.678   1.162  51.514  1.00  0.00     0.126 C 
HETATM    7  N1  UNL     1      23.027   2.340  50.743  1.00  0.00    -0.385 N 
HETATM    8  C9  UNL     1      24.338   2.814  50.493  1.00  0.00     0.102 A 
HETATM    9  C10 UNL     1      24.255   3.717  49.535  1.00  0.00     0.070 A 
HETATM   10  N2  UNL     1      25.542   4.273  49.197  1.00  0.00    -0.369 N 
HETATM   11  C17 UNL     1      26.828   3.970  49.786  1.00  0.00     0.273 A 
HETATM   12  N3  UNL     1      26.765   2.957  50.818  1.00  0.00    -0.251 NA
HETATM   13  C18 UNL     1      25.614   2.462  51.106  1.00  0.00     0.156 A 
HETATM   14  N4  UNL     1      25.729   1.441  52.124  1.00  0.00    -0.329 N 
HETATM   15  C19 UNL     1      27.104   1.009  52.268  1.00  0.00     0.169 A 
HETATM   16  H10 UNL     1      22.261   2.918  50.345  1.00  0.00     0.159 HD
HETATM   17  H16 UNL     1      25.625   4.983  48.446  1.00  0.00     0.161 HD
ENDROOT
BRANCH   9  18
HETATM   18  C11 UNL     1      23.130   4.231  48.779  1.00  0.00    -0.007 A 
HETATM   19  C12 UNL     1      22.663   5.499  49.101  1.00  0.00     0.014 A 
HETATM   20  C13 UNL     1      21.628   6.058  48.384  1.00  0.00     0.001 A 
HETATM   21  C14 UNL     1      21.008   5.418  47.335  1.00  0.00     0.000 A 
HETATM   22  C15 UNL     1      21.438   4.158  46.981  1.00  0.00     0.001 A 
HETATM   23  C16 UNL     1      22.459   3.638  47.707  1.00  0.00     0.014 A 
ENDBRANCH   9  18
BRANCH   1  24
HETATM   24  C2  UNL     1      28.475  -0.777  53.469  1.00  0.00    -0.002 C 
HETATM   25  C1  UNL     1      29.650  -0.200  53.572  1.00  0.00     0.012 C 
ENDBRANCH   1  24
TORSDOF 2
ENDMDL
MODEL 9
REMARK VINA RESULT:      -7.7      3.847      5.925
REMARK  2 active torsions:
REMARK  status: ('A' for Active; 'I' for Inactive)
REMARK    1  A    between atoms: C2_2  and  C3_3 
REMARK    2  A    between atoms: C10_11  and  C11_12 
ROOT
HETATM    1  C3  UNL     1      17.449   0.006  51.766  1.00  0.00    -0.041 A 
HETATM    2  C4  UNL     1      17.208  -0.774  52.798  1.00  0.00     0.011 A 
HETATM    3  C5  UNL     1      18.338  -1.260  53.533  1.00  0.00     0.026 A 
HETATM    4  C6  UNL     1      19.561  -0.921  53.172  1.00  0.00     0.015 A 
HETATM    5  C7  UNL     1      20.588  -1.523  54.055  1.00  0.00     0.077 C 
HETATM    6  C8  UNL     1      21.471  -0.466  54.692  1.00  0.00     0.126 C 
HETATM    7  N1  UNL     1      22.503  -0.039  53.767  1.00  0.00    -0.385 N 
HETATM    8  C9  UNL     1      22.294   0.483  52.467  1.00  0.00     0.102 A 
HETATM    9  C10 UNL     1      23.432   1.016  52.067  1.00  0.00     0.070 A 
HETATM   10  N2  UNL     1      23.335   1.582  50.744  1.00  0.00    -0.369 N 
HETATM   11  C17 UNL     1      22.188   1.599  49.863  1.00  0.00     0.273 A 
HETATM   12  N3  UNL     1      21.009   0.987  50.439  1.00  0.00    -0.251 NA
HETATM   13  C18 UNL     1      21.105   0.493  51.622  1.00  0.00     0.156 A 
HETATM   14  N4  UNL     1      19.836  -0.043  52.064  1.00  0.00    -0.329 N 
HETATM   15  C19 UNL     1      18.754   0.439  51.231  1.00  0.00     0.169 A 
HETATM   16  H10 UNL     1      23.497  -0.133  54.054  1.00  0.00     0.159 HD
HETATM   17  H16 UNL     1      24.154   2.049  50.312  1.00  0.00     0.161 HD
ENDROOT
BRANCH   9  18
HETATM   18  C11 UNL     1      24.727   1.133  52.707  1.00  0.00    -0.007 A 
HETATM   19  C12 UNL     1      25.631   0.094  52.529  1.00  0.00     0.014 A 
HETATM   20  C13 UNL     1      26.894   0.173  53.074  1.00  0.00     0.001 A 
HETATM   21  C14 UNL     1      27.331   1.253  53.807  1.00  0.00     0.000 A 
HETATM   22  C15 UNL     1      26.468   2.307  54.010  1.00  0.00     0.001 A 
HETATM   23  C16 UNL     1      25.233   2.197  53.459  1.00  0.00     0.014 A 
ENDBRANCH   9  18
BRANCH   1  24
HETATM   24  C2  UNL     1      16.205   0.416  51.132  1.00  0.00    -0.002 C 
HETATM   25  C1  UNL     1      14.984   0.163  51.546  1.00  0.00     0.012 C 
ENDBRANCH   1  24
TORSDOF 2
ENDMDL
