MODEL 1
REMARK VINA RESULT:      -7.6      0.000      0.000
REMARK  6 active torsions:
REMARK  status: ('A' for Active; 'I' for Inactive)
REMARK    1  A    between atoms: C2_2  and  N1_3 
REMARK    2  A    between atoms: N1_3  and  C3_4 
REMARK       I    between atoms: N1_3  and  C15_23 
REMARK    3  A    between atoms: C3_4  and  C4_5 
REMARK    4  A    between atoms: C4_5  and  C5_6 
REMARK    5  A    between atoms: C5_6  and  N2_7 
REMARK    6  A    between atoms: N2_7  and  C6_8 
ROOT
HETATM    1  C6  UNL     1      23.584   4.215  52.620  1.00  0.00     0.724 A 
HETATM    2  N3  UNL     1      22.446   3.541  52.431  1.00  0.00    -0.075 NA
HETATM    3  C7  UNL     1      22.351   2.203  52.529  1.00  0.00     0.147 A 
HETATM    4  C8  UNL     1      23.479   1.470  52.840  1.00  0.00     0.008 A 
HETATM    5  C9  UNL     1      24.671   2.138  53.041  1.00  0.00     0.174 A 
HETATM    6  N4  UNL     1      24.666   3.477  52.921  1.00  0.00    -0.043 NA
HETATM    7  N5  UNL     1      25.847   1.404  53.362  1.00  0.00    -0.227 N 
HETATM    8  N6  UNL     1      27.013   2.087  53.720  1.00  0.00    -0.176 NA
HETATM    9  C10 UNL     1      28.049   1.454  54.163  1.00  0.00     0.213 C 
HETATM   10  C11 UNL     1      28.034  -0.017  54.306  1.00  0.00     0.262 C 
HETATM   11  O1  UNL     1      28.993  -0.701  54.725  1.00  0.00    -0.267 OA
HETATM   12  N7  UNL     1      26.840  -0.703  53.939  1.00  0.00    -0.333 N 
HETATM   13  C12 UNL     1      25.727  -0.055  53.288  1.00  0.00     0.212 C 
HETATM   14  C13 UNL     1      24.405  -0.507  53.876  1.00  0.00     0.053 C 
HETATM   15  C14 UNL     1      23.321   0.004  52.936  1.00  0.00     0.048 C 
HETATM   16  H15 UNL     1      26.640  -1.715  54.092  1.00  0.00     0.165 HD
ENDROOT
BRANCH   1  17
HETATM   17  N2  UNL     1      23.669   5.651  52.510  1.00  0.00    -0.222 N 
HETATM   18  H12 UNL     1      23.867   6.166  53.405  1.00  0.00     0.177 HD
BRANCH  17  19
HETATM   19  C5  UNL     1      23.483   6.251  51.224  1.00  0.00     0.140 C 
BRANCH  19  20
HETATM   20  C4  UNL     1      24.798   6.721  50.650  1.00  0.00     0.040 C 
BRANCH  20  21
HETATM   21  C3  UNL     1      24.944   6.221  49.251  1.00  0.00     0.127 C 
BRANCH  21  22
HETATM   22  N1  UNL     1      26.130   5.393  49.178  1.00  0.00    -0.353 N 
HETATM   23  C15 UNL     1      27.260   5.954  48.546  1.00  0.00     0.215 C 
HETATM   24  C16 UNL     1      28.580   5.349  48.334  1.00  0.00     0.117 C 
HETATM   25  O2  UNL     1      27.284   7.130  48.047  1.00  0.00    -0.274 OA
BRANCH  22  26
HETATM   26  C2  UNL     1      26.192   4.045  49.719  1.00  0.00     0.121 C 
HETATM   27  C1  UNL     1      24.955   3.248  49.396  1.00  0.00     0.026 C 
ENDBRANCH  22  26
ENDBRANCH  21  22
ENDBRANCH  20  21
ENDBRANCH  19  20
ENDBRANCH  17  19
ENDBRANCH   1  17
TORSDOF 6
ENDMDL
MODEL 2
REMARK VINA RESULT:      -7.5      2.299      3.762
REMARK  6 active torsions:
REMARK  status: ('A' for Active; 'I' for Inactive)
REMARK    1  A    between atoms: C2_2  and  N1_3 
REMARK    2  A    between atoms: N1_3  and  C3_4 
REMARK       I    between atoms: N1_3  and  C15_23 
REMARK    3  A    between atoms: C3_4  and  C4_5 
REMARK    4  A    between atoms: C4_5  and  C5_6 
REMARK    5  A    between atoms: C5_6  and  N2_7 
REMARK    6  A    between atoms: N2_7  and  C6_8 
ROOT
HETATM    1  C6  UNL     1      26.434   4.316  49.497  1.00  0.00     0.724 A 
HETATM    2  N3  UNL     1      25.127   4.211  49.244  1.00  0.00    -0.075 NA
HETATM    3  C7  UNL     1      24.314   3.349  49.881  1.00  0.00     0.147 A 
HETATM    4  C8  UNL     1      24.841   2.521  50.853  1.00  0.00     0.008 A 
HETATM    5  C9  UNL     1      26.190   2.605  51.137  1.00  0.00     0.174 A 
HETATM    6  N4  UNL     1      26.920   3.498  50.447  1.00  0.00    -0.043 NA
HETATM    7  N5  UNL     1      26.755   1.762  52.134  1.00  0.00    -0.227 N 
HETATM    8  N6  UNL     1      28.080   1.956  52.534  1.00  0.00    -0.176 NA
HETATM    9  C10 UNL     1      28.576   1.311  53.538  1.00  0.00     0.213 C 
HETATM   10  C11 UNL     1      27.756   0.346  54.299  1.00  0.00     0.262 C 
HETATM   11  O1  UNL     1      28.160  -0.315  55.280  1.00  0.00    -0.267 OA
HETATM   12  N7  UNL     1      26.406   0.157  53.883  1.00  0.00    -0.333 N 
HETATM   13  C12 UNL     1      25.866   0.728  52.673  1.00  0.00     0.212 C 
HETATM   14  C13 UNL     1      24.478   1.294  52.902  1.00  0.00     0.053 C 
HETATM   15  C14 UNL     1      23.906   1.594  51.522  1.00  0.00     0.048 C 
HETATM   16  H15 UNL     1      25.679  -0.397  54.386  1.00  0.00     0.165 HD
ENDROOT
BRANCH   1  17
HETATM   17  N2  UNL     1      27.293   5.245  48.804  1.00  0.00    -0.222 N 
HETATM   18  H12 UNL     1      28.281   4.924  48.647  1.00  0.00     0.177 HD
BRANCH  17  19
HETATM   19  C5  UNL     1      26.749   6.504  48.394  1.00  0.00     0.140 C 
BRANCH  19  20
HETATM   20  C4  UNL     1      27.744   7.619  48.602  1.00  0.00     0.040 C 
BRANCH  20  21
HETATM   21  C3  UNL     1      28.934   7.401  47.728  1.00  0.00     0.127 C 
BRANCH  21  22
HETATM   22  N1  UNL     1      30.125   7.435  48.553  1.00  0.00    -0.353 N 
HETATM   23  C15 UNL     1      30.780   6.206  48.776  1.00  0.00     0.215 C 
HETATM   24  C16 UNL     1      31.992   5.948  49.561  1.00  0.00     0.117 C 
HETATM   25  O2  UNL     1      30.381   5.091  48.295  1.00  0.00    -0.274 OA
BRANCH  22  26
HETATM   26  C2  UNL     1      30.650   8.657  49.139  1.00  0.00     0.121 C 
HETATM   27  C1  UNL     1      31.512   9.425  48.172  1.00  0.00     0.026 C 
ENDBRANCH  22  26
ENDBRANCH  21  22
ENDBRANCH  20  21
ENDBRANCH  19  20
ENDBRANCH  17  19
ENDBRANCH   1  17
TORSDOF 6
ENDMDL
MODEL 3
REMARK VINA RESULT:      -7.4      1.031      1.604
REMARK  6 active torsions:
REMARK  status: ('A' for Active; 'I' for Inactive)
REMARK    1  A    between atoms: C2_2  and  N1_3 
REMARK    2  A    between atoms: N1_3  and  C3_4 
REMARK       I    between atoms: N1_3  and  C15_23 
REMARK    3  A    between atoms: C3_4  and  C4_5 
REMARK    4  A    between atoms: C4_5  and  C5_6 
REMARK    5  A    between atoms: C5_6  and  N2_7 
REMARK    6  A    between atoms: N2_7  and  C6_8 
ROOT
HETATM    1  C6  UNL     1      23.576   4.198  52.386  1.00  0.00     0.724 A 
HETATM    2  N3  UNL     1      22.398   3.574  52.302  1.00  0.00    -0.075 NA
HETATM    3  C7  UNL     1      22.246   2.249  52.481  1.00  0.00     0.147 A 
HETATM    4  C8  UNL     1      23.354   1.478  52.768  1.00  0.00     0.008 A 
HETATM    5  C9  UNL     1      24.587   2.094  52.861  1.00  0.00     0.174 A 
HETATM    6  N4  UNL     1      24.638   3.423  52.666  1.00  0.00    -0.043 NA
HETATM    7  N5  UNL     1      25.743   1.319  53.155  1.00  0.00    -0.227 N 
HETATM    8  N6  UNL     1      26.960   1.960  53.406  1.00  0.00    -0.176 NA
HETATM    9  C10 UNL     1      27.989   1.299  53.824  1.00  0.00     0.213 C 
HETATM   10  C11 UNL     1      27.913  -0.159  54.051  1.00  0.00     0.262 C 
HETATM   11  O1  UNL     1      28.861  -0.868  54.452  1.00  0.00    -0.267 OA
HETATM   12  N7  UNL     1      26.667  -0.802  53.792  1.00  0.00    -0.333 N 
HETATM   13  C12 UNL     1      25.550  -0.134  53.171  1.00  0.00     0.212 C 
HETATM   14  C13 UNL     1      24.245  -0.485  53.859  1.00  0.00     0.053 C 
HETATM   15  C14 UNL     1      23.132   0.029  52.956  1.00  0.00     0.048 C 
HETATM   16  H15 UNL     1      26.429  -1.793  54.014  1.00  0.00     0.165 HD
ENDROOT
BRANCH   1  17
HETATM   17  N2  UNL     1      23.724   5.620  52.191  1.00  0.00    -0.222 N 
HETATM   18  H12 UNL     1      23.789   6.197  53.067  1.00  0.00     0.177 HD
BRANCH  17  19
HETATM   19  C5  UNL     1      23.770   6.125  50.852  1.00  0.00     0.140 C 
BRANCH  19  20
HETATM   20  C4  UNL     1      25.186   6.452  50.444  1.00  0.00     0.040 C 
BRANCH  20  21
HETATM   21  C3  UNL     1      25.419   6.007  49.038  1.00  0.00     0.127 C 
BRANCH  21  22
HETATM   22  N1  UNL     1      26.743   6.437  48.633  1.00  0.00    -0.353 N 
HETATM   23  C15 UNL     1      27.739   5.441  48.558  1.00  0.00     0.215 C 
HETATM   24  C16 UNL     1      29.149   5.588  48.180  1.00  0.00     0.117 C 
HETATM   25  O2  UNL     1      27.534   4.208  48.825  1.00  0.00    -0.274 OA
BRANCH  22  26
HETATM   26  C2  UNL     1      27.066   7.816  48.310  1.00  0.00     0.121 C 
HETATM   27  C1  UNL     1      26.735   8.156  46.881  1.00  0.00     0.026 C 
ENDBRANCH  22  26
ENDBRANCH  21  22
ENDBRANCH  20  21
ENDBRANCH  19  20
ENDBRANCH  17  19
ENDBRANCH   1  17
TORSDOF 6
ENDMDL
MODEL 4
REMARK VINA RESULT:      -7.3      1.565      1.858
REMARK  6 active torsions:
REMARK  status: ('A' for Active; 'I' for Inactive)
REMARK    1  A    between atoms: C2_2  and  N1_3 
REMARK    2  A    between atoms: N1_3  and  C3_4 
REMARK       I    between atoms: N1_3  and  C15_23 
REMARK    3  A    between atoms: C3_4  and  C4_5 
REMARK    4  A    between atoms: C4_5  and  C5_6 
REMARK    5  A    between atoms: C5_6  and  N2_7 
REMARK    6  A    between atoms: N2_7  and  C6_8 
ROOT
HETATM    1  C6  UNL     1      22.317   4.128  52.343  1.00  0.00     0.724 A 
HETATM    2  N3  UNL     1      21.204   3.403  52.198  1.00  0.00    -0.075 NA
HETATM    3  C7  UNL     1      21.161   2.068  52.361  1.00  0.00     0.147 A 
HETATM    4  C8  UNL     1      22.319   1.394  52.694  1.00  0.00     0.008 A 
HETATM    5  C9  UNL     1      23.487   2.115  52.850  1.00  0.00     0.174 A 
HETATM    6  N4  UNL     1      23.429   3.446  52.667  1.00  0.00    -0.043 NA
HETATM    7  N5  UNL     1      24.692   1.442  53.192  1.00  0.00    -0.227 N 
HETATM    8  N6  UNL     1      25.834   2.185  53.506  1.00  0.00    -0.176 NA
HETATM    9  C10 UNL     1      26.897   1.612  53.966  1.00  0.00     0.213 C 
HETATM   10  C11 UNL     1      26.940   0.151  54.178  1.00  0.00     0.262 C 
HETATM   11  O1  UNL     1      27.927  -0.477  54.619  1.00  0.00    -0.267 OA
HETATM   12  N7  UNL     1      25.770  -0.596  53.857  1.00  0.00    -0.333 N 
HETATM   13  C12 UNL     1      24.627  -0.023  53.188  1.00  0.00     0.212 C 
HETATM   14  C13 UNL     1      23.328  -0.495  53.811  1.00  0.00     0.053 C 
HETATM   15  C14 UNL     1      22.218  -0.070  52.860  1.00  0.00     0.048 C 
HETATM   16  H15 UNL     1      25.610  -1.607  54.059  1.00  0.00     0.165 HD
ENDROOT
BRANCH   1  17
HETATM   17  N2  UNL     1      22.347   5.560  52.166  1.00  0.00    -0.222 N 
HETATM   18  H12 UNL     1      21.823   6.120  52.884  1.00  0.00     0.177 HD
BRANCH  17  19
HETATM   19  C5  UNL     1      23.070   6.095  51.052  1.00  0.00     0.140 C 
BRANCH  19  20
HETATM   20  C4  UNL     1      22.437   5.681  49.745  1.00  0.00     0.040 C 
BRANCH  20  21
HETATM   21  C3  UNL     1      23.502   5.326  48.761  1.00  0.00     0.127 C 
BRANCH  21  22
HETATM   22  N1  UNL     1      24.084   4.057  49.148  1.00  0.00    -0.353 N 
HETATM   23  C15 UNL     1      25.447   4.068  49.516  1.00  0.00     0.215 C 
HETATM   24  C16 UNL     1      26.284   2.943  49.947  1.00  0.00     0.117 C 
HETATM   25  O2  UNL     1      26.172   5.120  49.523  1.00  0.00    -0.274 OA
BRANCH  22  26
HETATM   26  C2  UNL     1      23.334   2.813  49.170  1.00  0.00     0.121 C 
HETATM   27  C1  UNL     1      22.668   2.530  47.850  1.00  0.00     0.026 C 
ENDBRANCH  22  26
ENDBRANCH  21  22
ENDBRANCH  20  21
ENDBRANCH  19  20
ENDBRANCH  17  19
ENDBRANCH   1  17
TORSDOF 6
ENDMDL
MODEL 5
REMARK VINA RESULT:      -7.2      1.187      1.341
REMARK  6 active torsions:
REMARK  status: ('A' for Active; 'I' for Inactive)
REMARK    1  A    between atoms: C2_2  and  N1_3 
REMARK    2  A    between atoms: N1_3  and  C3_4 
REMARK       I    between atoms: N1_3  and  C15_23 
REMARK    3  A    between atoms: C3_4  and  C4_5 
REMARK    4  A    between atoms: C4_5  and  C5_6 
REMARK    5  A    between atoms: C5_6  and  N2_7 
REMARK    6  A    between atoms: N2_7  and  C6_8 
ROOT
HETATM    1  C6  UNL     1      23.922   3.676  52.389  1.00  0.00     0.724 A 
HETATM    2  N3  UNL     1      22.794   2.970  52.512  1.00  0.00    -0.075 NA
HETATM    3  C7  UNL     1      22.768   1.657  52.806  1.00  0.00     0.147 A 
HETATM    4  C8  UNL     1      23.960   0.987  52.996  1.00  0.00     0.008 A 
HETATM    5  C9  UNL     1      25.144   1.689  52.876  1.00  0.00     0.174 A 
HETATM    6  N4  UNL     1      25.067   2.998  52.579  1.00  0.00    -0.043 NA
HETATM    7  N5  UNL     1      26.385   1.020  53.066  1.00  0.00    -0.227 N 
HETATM    8  N6  UNL     1      27.571   1.758  53.103  1.00  0.00    -0.176 NA
HETATM    9  C10 UNL     1      28.693   1.204  53.424  1.00  0.00     0.213 C 
HETATM   10  C11 UNL     1      28.759  -0.232  53.765  1.00  0.00     0.262 C 
HETATM   11  O1  UNL     1      29.803  -0.841  54.086  1.00  0.00    -0.267 OA
HETATM   12  N7  UNL     1      27.544  -0.975  53.726  1.00  0.00    -0.333 N 
HETATM   13  C12 UNL     1      26.307  -0.437  53.214  1.00  0.00     0.212 C 
HETATM   14  C13 UNL     1      25.134  -0.815  54.097  1.00  0.00     0.053 C 
HETATM   15  C14 UNL     1      23.876  -0.452  53.317  1.00  0.00     0.048 C 
HETATM   16  H15 UNL     1      27.413  -1.958  54.050  1.00  0.00     0.165 HD
ENDROOT
BRANCH   1  17
HETATM   17  N2  UNL     1      23.933   5.083  52.073  1.00  0.00    -0.222 N 
HETATM   18  H12 UNL     1      24.684   5.650  52.541  1.00  0.00     0.177 HD
BRANCH  17  19
HETATM   19  C5  UNL     1      22.946   5.587  51.167  1.00  0.00     0.140 C 
BRANCH  19  20
HETATM   20  C4  UNL     1      23.536   6.631  50.249  1.00  0.00     0.040 C 
BRANCH  20  21
HETATM   21  C3  UNL     1      24.890   7.025  50.738  1.00  0.00     0.127 C 
BRANCH  21  22
HETATM   22  N1  UNL     1      25.844   6.826  49.665  1.00  0.00    -0.353 N 
HETATM   23  C15 UNL     1      26.842   7.811  49.511  1.00  0.00     0.215 C 
HETATM   24  C16 UNL     1      27.924   7.866  48.522  1.00  0.00     0.117 C 
HETATM   25  O2  UNL     1      26.941   8.845  50.256  1.00  0.00    -0.274 OA
BRANCH  22  26
HETATM   26  C2  UNL     1      25.806   5.680  48.772  1.00  0.00     0.121 C 
HETATM   27  C1  UNL     1      26.524   4.489  49.349  1.00  0.00     0.026 C 
ENDBRANCH  22  26
ENDBRANCH  21  22
ENDBRANCH  20  21
ENDBRANCH  19  20
ENDBRANCH  17  19
ENDBRANCH   1  17
TORSDOF 6
ENDMDL
MODEL 6
REMARK VINA RESULT:      -7.2      2.784      7.963
REMARK  6 active torsions:
REMARK  status: ('A' for Active; 'I' for Inactive)
REMARK    1  A    between atoms: C2_2  and  N1_3 
REMARK    2  A    between atoms: N1_3  and  C3_4 
REMARK       I    between atoms: N1_3  and  C15_23 
REMARK    3  A    between atoms: C3_4  and  C4_5 
REMARK    4  A    between atoms: C4_5  and  C5_6 
REMARK    5  A    between atoms: C5_6  and  N2_7 
REMARK    6  A    between atoms: N2_7  and  C6_8 
ROOT
HETATM    1  C6  UNL     1      26.681   4.245  49.273  1.00  0.00     0.724 A 
HETATM    2  N3  UNL     1      25.806   5.246  49.134  1.00  0.00    -0.075 NA
HETATM    3  C7  UNL     1      26.125   6.442  48.605  1.00  0.00     0.147 A 
HETATM    4  C8  UNL     1      27.419   6.665  48.178  1.00  0.00     0.008 A 
HETATM    5  C9  UNL     1      28.347   5.651  48.309  1.00  0.00     0.174 A 
HETATM    6  N4  UNL     1      27.933   4.491  48.850  1.00  0.00    -0.043 NA
HETATM    7  N5  UNL     1      29.686   5.858  47.877  1.00  0.00    -0.227 N 
HETATM    8  N6  UNL     1      30.582   4.785  47.861  1.00  0.00    -0.176 NA
HETATM    9  C10 UNL     1      31.756   4.903  47.334  1.00  0.00     0.213 C 
HETATM   10  C11 UNL     1      32.190   6.179  46.728  1.00  0.00     0.262 C 
HETATM   11  O1  UNL     1      33.306   6.373  46.199  1.00  0.00    -0.267 OA
HETATM   12  N7  UNL     1      31.268   7.266  46.748  1.00  0.00    -0.333 N 
HETATM   13  C12 UNL     1      30.019   7.226  47.470  1.00  0.00     0.212 C 
HETATM   14  C13 UNL     1      28.891   7.823  46.652  1.00  0.00     0.053 C 
HETATM   15  C14 UNL     1      27.715   7.994  47.606  1.00  0.00     0.048 C 
HETATM   16  H15 UNL     1      31.386   8.181  46.263  1.00  0.00     0.165 HD
ENDROOT
BRANCH   1  17
HETATM   17  N2  UNL     1      26.325   2.969  49.842  1.00  0.00    -0.222 N 
HETATM   18  H12 UNL     1      25.800   2.316  49.207  1.00  0.00     0.177 HD
BRANCH  17  19
HETATM   19  C5  UNL     1      26.703   2.694  51.195  1.00  0.00     0.140 C 
BRANCH  19  20
HETATM   20  C4  UNL     1      25.548   2.114  51.974  1.00  0.00     0.040 C 
BRANCH  20  21
HETATM   21  C3  UNL     1      25.891   2.069  53.426  1.00  0.00     0.127 C 
BRANCH  21  22
HETATM   22  N1  UNL     1      26.626   0.848  53.689  1.00  0.00    -0.353 N 
HETATM   23  C15 UNL     1      27.961   0.990  54.124  1.00  0.00     0.215 C 
HETATM   24  C16 UNL     1      28.927  -0.062  54.460  1.00  0.00     0.117 C 
HETATM   25  O2  UNL     1      28.537   2.118  54.293  1.00  0.00    -0.274 OA
BRANCH  22  26
HETATM   26  C2  UNL     1      26.050  -0.476  53.523  1.00  0.00     0.121 C 
HETATM   27  C1  UNL     1      25.027  -0.785  54.585  1.00  0.00     0.026 C 
ENDBRANCH  22  26
ENDBRANCH  21  22
ENDBRANCH  20  21
ENDBRANCH  19  20
ENDBRANCH  17  19
ENDBRANCH   1  17
TORSDOF 6
ENDMDL
MODEL 7
REMARK VINA RESULT:      -6.9      2.006      3.073
REMARK  6 active torsions:
REMARK  status: ('A' for Active; 'I' for Inactive)
REMARK    1  A    between atoms: C2_2  and  N1_3 
REMARK    2  A    between atoms: N1_3  and  C3_4 
REMARK       I    between atoms: N1_3  and  C15_23 
REMARK    3  A    between atoms: C3_4  and  C4_5 
REMARK    4  A    between atoms: C4_5  and  C5_6 
REMARK    5  A    between atoms: C5_6  and  N2_7 
REMARK    6  A    between atoms: N2_7  and  C6_8 
ROOT
HETATM    1  C6  UNL     1      21.280   1.363  51.410  1.00  0.00     0.724 A 
HETATM    2  N3  UNL     1      20.284   0.649  51.942  1.00  0.00    -0.075 NA
HETATM    3  C7  UNL     1      20.457  -0.241  52.936  1.00  0.00     0.147 A 
HETATM    4  C8  UNL     1      21.724  -0.440  53.447  1.00  0.00     0.008 A 
HETATM    5  C9  UNL     1      22.776   0.283  52.918  1.00  0.00     0.174 A 
HETATM    6  N4  UNL     1      22.503   1.149  51.926  1.00  0.00    -0.043 NA
HETATM    7  N5  UNL     1      24.090   0.095  53.429  1.00  0.00    -0.227 N 
HETATM    8  N6  UNL     1      25.123   0.936  53.007  1.00  0.00    -0.176 NA
HETATM    9  C10 UNL     1      26.290   0.891  53.561  1.00  0.00     0.213 C 
HETATM   10  C11 UNL     1      26.570  -0.053  54.662  1.00  0.00     0.262 C 
HETATM   11  O1  UNL     1      27.669  -0.158  55.248  1.00  0.00    -0.267 OA
HETATM   12  N7  UNL     1      25.509  -0.906  55.085  1.00  0.00    -0.333 N 
HETATM   13  C12 UNL     1      24.251  -1.003  54.386  1.00  0.00     0.212 C 
HETATM   14  C13 UNL     1      23.084  -1.033  55.354  1.00  0.00     0.053 C 
HETATM   15  C14 UNL     1      21.860  -1.427  54.538  1.00  0.00     0.048 C 
HETATM   16  H15 UNL     1      25.520  -1.535  55.916  1.00  0.00     0.165 HD
ENDROOT
BRANCH   1  17
HETATM   17  N2  UNL     1      21.079   2.314  50.344  1.00  0.00    -0.222 N 
HETATM   18  H12 UNL     1      20.359   3.058  50.525  1.00  0.00     0.177 HD
BRANCH  17  19
HETATM   19  C5  UNL     1      21.855   2.175  49.149  1.00  0.00     0.140 C 
BRANCH  19  20
HETATM   20  C4  UNL     1      22.623   3.440  48.851  1.00  0.00     0.040 C 
BRANCH  20  21
HETATM   21  C3  UNL     1      23.903   3.444  49.619  1.00  0.00     0.127 C 
BRANCH  21  22
HETATM   22  N1  UNL     1      24.042   4.727  50.278  1.00  0.00    -0.353 N 
HETATM   23  C15 UNL     1      25.089   5.561  49.833  1.00  0.00     0.215 C 
HETATM   24  C16 UNL     1      25.457   6.897  50.315  1.00  0.00     0.117 C 
HETATM   25  O2  UNL     1      25.901   5.245  48.898  1.00  0.00    -0.274 OA
BRANCH  22  26
HETATM   26  C2  UNL     1      23.163   5.167  51.349  1.00  0.00     0.121 C 
HETATM   27  C1  UNL     1      23.513   4.529  52.667  1.00  0.00     0.026 C 
ENDBRANCH  22  26
ENDBRANCH  21  22
ENDBRANCH  20  21
ENDBRANCH  19  20
ENDBRANCH  17  19
ENDBRANCH   1  17
TORSDOF 6
ENDMDL
MODEL 8
REMARK VINA RESULT:      -6.9      2.137      3.479
REMARK  6 active torsions:
REMARK  status: ('A' for Active; 'I' for Inactive)
REMARK    1  A    between atoms: C2_2  and  N1_3 
REMARK    2  A    between atoms: N1_3  and  C3_4 
REMARK       I    between atoms: N1_3  and  C15_23 
REMARK    3  A    between atoms: C3_4  and  C4_5 
REMARK    4  A    between atoms: C4_5  and  C5_6 
REMARK    5  A    between atoms: C5_6  and  N2_7 
REMARK    6  A    between atoms: N2_7  and  C6_8 
ROOT
HETATM    1  C6  UNL     1      25.921   4.330  49.761  1.00  0.00     0.724 A 
HETATM    2  N3  UNL     1      24.621   4.099  49.559  1.00  0.00    -0.075 NA
HETATM    3  C7  UNL     1      23.935   3.124  50.184  1.00  0.00     0.147 A 
HETATM    4  C8  UNL     1      24.593   2.309  51.083  1.00  0.00     0.008 A 
HETATM    5  C9  UNL     1      25.938   2.522  51.313  1.00  0.00     0.174 A 
HETATM    6  N4  UNL     1      26.536   3.522  50.641  1.00  0.00    -0.043 NA
HETATM    7  N5  UNL     1      26.637   1.695  52.235  1.00  0.00    -0.227 N 
HETATM    8  N6  UNL     1      27.953   2.010  52.587  1.00  0.00    -0.176 NA
HETATM    9  C10 UNL     1      28.562   1.372  53.531  1.00  0.00     0.213 C 
HETATM   10  C11 UNL     1      27.886   0.288  54.273  1.00  0.00     0.262 C 
HETATM   11  O1  UNL     1      28.406  -0.375  55.197  1.00  0.00    -0.267 OA
HETATM   12  N7  UNL     1      26.544  -0.024  53.907  1.00  0.00    -0.333 N 
HETATM   13  C12 UNL     1      25.889   0.547  52.755  1.00  0.00     0.212 C 
HETATM   14  C13 UNL     1      24.462   0.948  53.075  1.00  0.00     0.053 C 
HETATM   15  C14 UNL     1      23.794   1.254  51.741  1.00  0.00     0.048 C 
HETATM   16  H15 UNL     1      25.905  -0.676  54.410  1.00  0.00     0.165 HD
ENDROOT
BRANCH   1  17
HETATM   17  N2  UNL     1      26.643   5.379  49.083  1.00  0.00    -0.222 N 
HETATM   18  H12 UNL     1      26.174   6.320  49.068  1.00  0.00     0.177 HD
BRANCH  17  19
HETATM   19  C5  UNL     1      27.911   5.068  48.497  1.00  0.00     0.140 C 
BRANCH  19  20
HETATM   20  C4  UNL     1      28.628   6.322  48.057  1.00  0.00     0.040 C 
BRANCH  20  21
HETATM   21  C3  UNL     1      27.831   7.521  48.449  1.00  0.00     0.127 C 
BRANCH  21  22
HETATM   22  N1  UNL     1      27.453   8.237  47.247  1.00  0.00    -0.353 N 
HETATM   23  C15 UNL     1      26.111   8.112  46.828  1.00  0.00     0.215 C 
HETATM   24  C16 UNL     1      25.460   8.719  45.662  1.00  0.00     0.117 C 
HETATM   25  O2  UNL     1      25.236   7.414  47.444  1.00  0.00    -0.274 OA
BRANCH  22  26
HETATM   26  C2  UNL     1      28.382   9.054  46.485  1.00  0.00     0.121 C 
HETATM   27  C1  UNL     1      28.926   8.323  45.286  1.00  0.00     0.026 C 
ENDBRANCH  22  26
ENDBRANCH  21  22
ENDBRANCH  20  21
ENDBRANCH  19  20
ENDBRANCH  17  19
ENDBRANCH   1  17
TORSDOF 6
ENDMDL
MODEL 9
REMARK VINA RESULT:      -6.8      2.565      3.738
REMARK  6 active torsions:
REMARK  status: ('A' for Active; 'I' for Inactive)
REMARK    1  A    between atoms: C2_2  and  N1_3 
REMARK    2  A    between atoms: N1_3  and  C3_4 
REMARK       I    between atoms: N1_3  and  C15_23 
REMARK    3  A    between atoms: C3_4  and  C4_5 
REMARK    4  A    between atoms: C4_5  and  C5_6 
REMARK    5  A    between atoms: C5_6  and  N2_7 
REMARK    6  A    between atoms: N2_7  and  C6_8 
ROOT
HETATM    1  C6  UNL     1      26.418   4.392  49.481  1.00  0.00     0.724 A 
HETATM    2  N3  UNL     1      25.112   4.293  49.216  1.00  0.00    -0.075 NA
HETATM    3  C7  UNL     1      24.293   3.425  49.837  1.00  0.00     0.147 A 
HETATM    4  C8  UNL     1      24.811   2.582  50.800  1.00  0.00     0.008 A 
HETATM    5  C9  UNL     1      26.159   2.660  51.096  1.00  0.00     0.174 A 
HETATM    6  N4  UNL     1      26.896   3.560  50.422  1.00  0.00    -0.043 NA
HETATM    7  N5  UNL     1      26.715   1.802  52.084  1.00  0.00    -0.227 N 
HETATM    8  N6  UNL     1      28.038   1.987  52.496  1.00  0.00    -0.176 NA
HETATM    9  C10 UNL     1      28.525   1.328  53.495  1.00  0.00     0.213 C 
HETATM   10  C11 UNL     1      27.698   0.355  54.237  1.00  0.00     0.262 C 
HETATM   11  O1  UNL     1      28.094  -0.321  55.211  1.00  0.00    -0.267 OA
HETATM   12  N7  UNL     1      26.350   0.174  53.809  1.00  0.00    -0.333 N 
HETATM   13  C12 UNL     1      25.821   0.763  52.604  1.00  0.00     0.212 C 
HETATM   14  C13 UNL     1      24.432   1.328  52.830  1.00  0.00     0.053 C 
HETATM   15  C14 UNL     1      23.870   1.648  51.451  1.00  0.00     0.048 C 
HETATM   16  H15 UNL     1      25.619  -0.385  54.300  1.00  0.00     0.165 HD
ENDROOT
BRANCH   1  17
HETATM   17  N2  UNL     1      27.284   5.329  48.807  1.00  0.00    -0.222 N 
HETATM   18  H12 UNL     1      28.290   5.038  48.718  1.00  0.00     0.177 HD
BRANCH  17  19
HETATM   19  C5  UNL     1      26.721   6.552  48.322  1.00  0.00     0.140 C 
BRANCH  19  20
HETATM   20  C4  UNL     1      27.117   7.716  49.198  1.00  0.00     0.040 C 
BRANCH  20  21
HETATM   21  C3  UNL     1      27.552   8.862  48.346  1.00  0.00     0.127 C 
BRANCH  21  22
HETATM   22  N1  UNL     1      28.955   9.121  48.604  1.00  0.00    -0.353 N 
HETATM   23  C15 UNL     1      29.316  10.459  48.869  1.00  0.00     0.215 C 
HETATM   24  C16 UNL     1      30.647  11.004  49.161  1.00  0.00     0.117 C 
HETATM   25  O2  UNL     1      28.484  11.429  48.891  1.00  0.00    -0.274 OA
BRANCH  22  26
HETATM   26  C2  UNL     1      29.969   8.080  48.600  1.00  0.00     0.121 C 
HETATM   27  C1  UNL     1      30.277   7.596  47.207  1.00  0.00     0.026 C 
ENDBRANCH  22  26
ENDBRANCH  21  22
ENDBRANCH  20  21
ENDBRANCH  19  20
ENDBRANCH  17  19
ENDBRANCH   1  17
TORSDOF 6
ENDMDL
