MODEL 1
REMARK VINA RESULT:     -10.1      0.000      0.000
REMARK  4 active torsions:
REMARK  status: ('A' for Active; 'I' for Inactive)
REMARK    1  A    between atoms: C2_2  and  C3_3 
REMARK    2  A    between atoms: C3_3  and  C4_4 
REMARK    3  A    between atoms: C4_4  and  C5_5 
REMARK       I    between atoms: C5_5  and  N1_7 
REMARK    4  A    between atoms: N1_7  and  C6_8 
ROOT
HETATM    1  C6  UNL     1      26.504   1.081  52.160  1.00  0.00     0.035 A 
HETATM    2  C7  UNL     1      27.402   0.667  53.115  1.00  0.00     0.032 A 
HETATM    3  C8  UNL     1      27.057  -0.068  54.226  1.00  0.00     0.033 A 
HETATM    4  C9  UNL     1      25.714  -0.402  54.373  1.00  0.00     0.046 A 
HETATM    5  C10 UNL     1      24.758  -0.019  53.450  1.00  0.00     0.011 A 
HETATM    6  C11 UNL     1      25.218   0.712  52.381  1.00  0.00     0.044 A 
HETATM    7  C12 UNL     1      23.431  -0.481  53.816  1.00  0.00     0.075 A 
HETATM    8  C13 UNL     1      22.260  -0.353  53.249  1.00  0.00     0.101 A 
HETATM    9  N2  UNL     1      21.804   0.276  52.071  1.00  0.00    -0.351 N 
HETATM   10  C14 UNL     1      20.406   0.160  51.841  1.00  0.00     0.047 A 
HETATM   11  C15 UNL     1      19.557   0.608  50.846  1.00  0.00     0.030 A 
HETATM   12  C16 UNL     1      18.208   0.347  50.868  1.00  0.00     0.002 A 
HETATM   13  C17 UNL     1      17.671  -0.373  51.897  1.00  0.00     0.001 A 
HETATM   14  C18 UNL     1      18.523  -0.811  52.880  1.00  0.00     0.018 A 
HETATM   15  C19 UNL     1      19.899  -0.564  52.886  1.00  0.00     0.043 A 
HETATM   16  C20 UNL     1      21.010  -0.894  53.769  1.00  0.00     0.212 A 
HETATM   17  O2  UNL     1      20.735  -1.566  54.796  1.00  0.00    -0.285 OA
HETATM   18  C21 UNL     1      23.685  -1.191  55.064  1.00  0.00     0.259 A 
HETATM   19  O3  UNL     1      22.967  -1.817  55.883  1.00  0.00    -0.267 OA
HETATM   20  N3  UNL     1      25.064  -1.144  55.404  1.00  0.00    -0.322 N 
HETATM   21  H14 UNL     1      22.360   0.801  51.371  1.00  0.00     0.166 HD
HETATM   22  H19 UNL     1      25.591  -1.542  56.220  1.00  0.00     0.169 HD
ENDROOT
BRANCH   1  23
HETATM   23  N1  UNL     1      26.825   1.835  51.009  1.00  0.00    -0.327 N 
HETATM   24  C5  UNL     1      26.288   3.056  50.562  1.00  0.00     0.222 C 
HETATM   25  O1  UNL     1      25.392   3.586  51.256  1.00  0.00    -0.273 OA
HETATM   26  H10 UNL     1      27.558   1.497  50.349  1.00  0.00     0.169 HD
BRANCH  24  27
HETATM   27  C4  UNL     1      26.702   3.765  49.328  1.00  0.00     0.103 C 
BRANCH  27  28
HETATM   28  C3  UNL     1      26.140   5.171  49.335  1.00  0.00     0.009 C 
BRANCH  28  29
HETATM   29  C2  UNL     1      26.999   6.134  48.588  1.00  0.00    -0.004 C 
HETATM   30  C1  UNL     1      28.352   5.495  48.356  1.00  0.00     0.005 C 
ENDBRANCH  28  29
ENDBRANCH  27  28
ENDBRANCH  24  27
ENDBRANCH   1  23
TORSDOF 4
ENDMDL
MODEL 2
REMARK VINA RESULT:      -9.7      2.508      6.083
REMARK  4 active torsions:
REMARK  status: ('A' for Active; 'I' for Inactive)
REMARK    1  A    between atoms: C2_2  and  C3_3 
REMARK    2  A    between atoms: C3_3  and  C4_4 
REMARK    3  A    between atoms: C4_4  and  C5_5 
REMARK       I    between atoms: C5_5  and  N1_7 
REMARK    4  A    between atoms: N1_7  and  C6_8 
ROOT
HETATM    1  C6  UNL     1      20.383   1.041  51.230  1.00  0.00     0.035 A 
HETATM    2  C7  UNL     1      19.279   0.380  51.713  1.00  0.00     0.032 A 
HETATM    3  C8  UNL     1      19.307  -0.473  52.793  1.00  0.00     0.033 A 
HETATM    4  C9  UNL     1      20.535  -0.664  53.419  1.00  0.00     0.046 A 
HETATM    5  C10 UNL     1      21.685  -0.030  52.984  1.00  0.00     0.011 A 
HETATM    6  C11 UNL     1      21.538   0.798  51.897  1.00  0.00     0.044 A 
HETATM    7  C12 UNL     1      22.840  -0.385  53.790  1.00  0.00     0.075 A 
HETATM    8  C13 UNL     1      24.098  -0.031  53.740  1.00  0.00     0.101 A 
HETATM    9  N2  UNL     1      24.845   0.823  52.902  1.00  0.00    -0.351 N 
HETATM   10  C14 UNL     1      26.226   0.910  53.225  1.00  0.00     0.047 A 
HETATM   11  C15 UNL     1      27.294   1.604  52.687  1.00  0.00     0.030 A 
HETATM   12  C16 UNL     1      28.562   1.506  53.209  1.00  0.00     0.002 A 
HETATM   13  C17 UNL     1      28.793   0.702  54.290  1.00  0.00     0.001 A 
HETATM   14  C18 UNL     1      27.725   0.018  54.813  1.00  0.00     0.018 A 
HETATM   15  C19 UNL     1      26.424   0.097  54.308  1.00  0.00     0.043 A 
HETATM   16  C20 UNL     1      25.139  -0.497  54.650  1.00  0.00     0.212 A 
HETATM   17  O2  UNL     1      25.123  -1.282  55.631  1.00  0.00    -0.285 OA
HETATM   18  C21 UNL     1      22.265  -1.304  54.765  1.00  0.00     0.259 A 
HETATM   19  O3  UNL     1      22.724  -1.961  55.733  1.00  0.00    -0.267 OA
HETATM   20  N3  UNL     1      20.872  -1.475  54.542  1.00  0.00    -0.322 N 
HETATM   21  H14 UNL     1      24.507   1.381  52.096  1.00  0.00     0.166 HD
HETATM   22  H19 UNL     1      20.156  -2.055  55.046  1.00  0.00     0.169 HD
ENDROOT
BRANCH   1  23
HETATM   23  N1  UNL     1      20.389   1.923  50.125  1.00  0.00    -0.327 N 
HETATM   24  C5  UNL     1      20.877   1.720  48.822  1.00  0.00     0.222 C 
HETATM   25  O1  UNL     1      21.389   0.609  48.559  1.00  0.00    -0.273 OA
HETATM   26  H10 UNL     1      19.989   2.881  50.219  1.00  0.00     0.169 HD
BRANCH  24  27
HETATM   27  C4  UNL     1      20.832   2.723  47.732  1.00  0.00     0.103 C 
BRANCH  27  28
HETATM   28  C3  UNL     1      22.241   3.105  47.332  1.00  0.00     0.009 C 
BRANCH  28  29
HETATM   29  C2  UNL     1      22.984   3.782  48.434  1.00  0.00    -0.004 C 
HETATM   30  C1  UNL     1      22.432   5.182  48.599  1.00  0.00     0.005 C 
ENDBRANCH  28  29
ENDBRANCH  27  28
ENDBRANCH  24  27
ENDBRANCH   1  23
TORSDOF 4
ENDMDL
MODEL 3
REMARK VINA RESULT:      -9.3      3.764      7.210
REMARK  4 active torsions:
REMARK  status: ('A' for Active; 'I' for Inactive)
REMARK    1  A    between atoms: C2_2  and  C3_3 
REMARK    2  A    between atoms: C3_3  and  C4_4 
REMARK    3  A    between atoms: C4_4  and  C5_5 
REMARK       I    between atoms: C5_5  and  N1_7 
REMARK    4  A    between atoms: N1_7  and  C6_8 
ROOT
HETATM    1  C6  UNL     1      28.767   5.754  48.004  1.00  0.00     0.035 A 
HETATM    2  C7  UNL     1      28.241   6.929  47.523  1.00  0.00     0.032 A 
HETATM    3  C8  UNL     1      26.961   7.362  47.784  1.00  0.00     0.033 A 
HETATM    4  C9  UNL     1      26.167   6.546  48.584  1.00  0.00     0.046 A 
HETATM    5  C10 UNL     1      26.632   5.350  49.101  1.00  0.00     0.011 A 
HETATM    6  C11 UNL     1      27.926   5.020  48.774  1.00  0.00     0.044 A 
HETATM    7  C12 UNL     1      25.627   4.675  49.902  1.00  0.00     0.075 A 
HETATM    8  C13 UNL     1      25.631   3.547  50.564  1.00  0.00     0.101 A 
HETATM    9  N2  UNL     1      26.592   2.536  50.773  1.00  0.00    -0.351 N 
HETATM   10  C14 UNL     1      26.149   1.457  51.585  1.00  0.00     0.047 A 
HETATM   11  C15 UNL     1      26.739   0.289  52.034  1.00  0.00     0.030 A 
HETATM   12  C16 UNL     1      26.066  -0.605  52.831  1.00  0.00     0.002 A 
HETATM   13  C17 UNL     1      24.775  -0.351  53.201  1.00  0.00     0.001 A 
HETATM   14  C18 UNL     1      24.201   0.810  52.748  1.00  0.00     0.018 A 
HETATM   15  C19 UNL     1      24.857   1.740  51.938  1.00  0.00     0.043 A 
HETATM   16  C20 UNL     1      24.508   3.016  51.327  1.00  0.00     0.212 A 
HETATM   17  O2  UNL     1      23.345   3.445  51.543  1.00  0.00    -0.285 OA
HETATM   18  C21 UNL     1      24.497   5.593  49.817  1.00  0.00     0.259 A 
HETATM   19  O3  UNL     1      23.330   5.599  50.283  1.00  0.00    -0.267 OA
HETATM   20  N3  UNL     1      24.821   6.725  49.020  1.00  0.00    -0.322 N 
HETATM   21  H14 UNL     1      27.562   2.491  50.409  1.00  0.00     0.166 HD
HETATM   22  H19 UNL     1      24.256   7.568  48.752  1.00  0.00     0.169 HD
ENDROOT
BRANCH   1  23
HETATM   23  N1  UNL     1      30.075   5.282  47.756  1.00  0.00    -0.327 N 
HETATM   24  C5  UNL     1      31.276   5.583  48.424  1.00  0.00     0.222 C 
HETATM   25  O1  UNL     1      31.222   6.382  49.385  1.00  0.00    -0.273 OA
HETATM   26  H10 UNL     1      30.250   4.609  46.979  1.00  0.00     0.169 HD
BRANCH  24  27
HETATM   27  C4  UNL     1      32.605   5.026  48.075  1.00  0.00     0.103 C 
BRANCH  27  28
HETATM   28  C3  UNL     1      32.430   3.749  47.281  1.00  0.00     0.009 C 
BRANCH  28  29
HETATM   29  C2  UNL     1      33.411   2.695  47.668  1.00  0.00    -0.004 C 
HETATM   30  C1  UNL     1      34.760   3.348  47.883  1.00  0.00     0.005 C 
ENDBRANCH  28  29
ENDBRANCH  27  28
ENDBRANCH  24  27
ENDBRANCH   1  23
TORSDOF 4
ENDMDL
MODEL 4
REMARK VINA RESULT:      -9.2      3.410      8.604
REMARK  4 active torsions:
REMARK  status: ('A' for Active; 'I' for Inactive)
REMARK    1  A    between atoms: C2_2  and  C3_3 
REMARK    2  A    between atoms: C3_3  and  C4_4 
REMARK    3  A    between atoms: C4_4  and  C5_5 
REMARK       I    between atoms: C5_5  and  N1_7 
REMARK    4  A    between atoms: N1_7  and  C6_8 
ROOT
HETATM    1  C6  UNL     1      24.855   1.717  52.188  1.00  0.00     0.035 A 
HETATM    2  C7  UNL     1      23.525   1.712  52.537  1.00  0.00     0.032 A 
HETATM    3  C8  UNL     1      22.614   2.648  52.103  1.00  0.00     0.033 A 
HETATM    4  C9  UNL     1      23.087   3.651  51.261  1.00  0.00     0.046 A 
HETATM    5  C10 UNL     1      24.412   3.715  50.871  1.00  0.00     0.011 A 
HETATM    6  C11 UNL     1      25.230   2.728  51.366  1.00  0.00     0.044 A 
HETATM    7  C12 UNL     1      24.667   4.845  49.995  1.00  0.00     0.075 A 
HETATM    8  C13 UNL     1      25.748   5.281  49.402  1.00  0.00     0.101 A 
HETATM    9  N2  UNL     1      27.090   4.846  49.365  1.00  0.00    -0.351 N 
HETATM   10  C14 UNL     1      27.950   5.648  48.567  1.00  0.00     0.047 A 
HETATM   11  C15 UNL     1      29.297   5.594  48.258  1.00  0.00     0.030 A 
HETATM   12  C16 UNL     1      29.892   6.522  47.437  1.00  0.00     0.002 A 
HETATM   13  C17 UNL     1      29.148   7.537  46.904  1.00  0.00     0.001 A 
HETATM   14  C18 UNL     1      27.813   7.580  47.221  1.00  0.00     0.018 A 
HETATM   15  C19 UNL     1      27.177   6.651  48.050  1.00  0.00     0.043 A 
HETATM   16  C20 UNL     1      25.820   6.456  48.543  1.00  0.00     0.212 A 
HETATM   17  O2  UNL     1      24.958   7.291  48.168  1.00  0.00    -0.285 OA
HETATM   18  C21 UNL     1      23.350   5.461  49.895  1.00  0.00     0.259 A 
HETATM   19  O3  UNL     1      22.891   6.466  49.295  1.00  0.00    -0.267 OA
HETATM   20  N3  UNL     1      22.392   4.742  50.660  1.00  0.00    -0.322 N 
HETATM   21  H14 UNL     1      27.509   4.026  49.843  1.00  0.00     0.166 HD
HETATM   22  H19 UNL     1      21.366   4.901  50.813  1.00  0.00     0.169 HD
ENDROOT
BRANCH   1  23
HETATM   23  N1  UNL     1      25.815   0.772  52.615  1.00  0.00    -0.327 N 
HETATM   24  C5  UNL     1      26.628   0.780  53.763  1.00  0.00     0.222 C 
HETATM   25  O1  UNL     1      26.515   1.748  54.548  1.00  0.00    -0.273 OA
HETATM   26  H10 UNL     1      26.001  -0.080  52.044  1.00  0.00     0.169 HD
BRANCH  24  27
HETATM   27  C4  UNL     1      27.611  -0.271  54.116  1.00  0.00     0.103 C 
BRANCH  27  28
HETATM   28  C3  UNL     1      29.005   0.318  54.128  1.00  0.00     0.009 C 
BRANCH  28  29
HETATM   29  C2  UNL     1      30.023  -0.609  53.555  1.00  0.00    -0.004 C 
HETATM   30  C1  UNL     1      29.363  -1.945  53.288  1.00  0.00     0.005 C 
ENDBRANCH  28  29
ENDBRANCH  27  28
ENDBRANCH  24  27
ENDBRANCH   1  23
TORSDOF 4
ENDMDL
MODEL 5
REMARK VINA RESULT:      -8.8      2.736      5.189
REMARK  4 active torsions:
REMARK  status: ('A' for Active; 'I' for Inactive)
REMARK    1  A    between atoms: C2_2  and  C3_3 
REMARK    2  A    between atoms: C3_3  and  C4_4 
REMARK    3  A    between atoms: C4_4  and  C5_5 
REMARK       I    between atoms: C5_5  and  N1_7 
REMARK    4  A    between atoms: N1_7  and  C6_8 
ROOT
HETATM    1  C6  UNL     1      25.504   2.165  51.553  1.00  0.00     0.035 A 
HETATM    2  C7  UNL     1      26.013   2.986  50.576  1.00  0.00     0.032 A 
HETATM    3  C8  UNL     1      25.274   3.482  49.527  1.00  0.00     0.033 A 
HETATM    4  C9  UNL     1      23.931   3.120  49.471  1.00  0.00     0.046 A 
HETATM    5  C10 UNL     1      23.354   2.297  50.421  1.00  0.00     0.011 A 
HETATM    6  C11 UNL     1      24.189   1.861  51.422  1.00  0.00     0.044 A 
HETATM    7  C12 UNL     1      21.946   2.059  50.153  1.00  0.00     0.075 A 
HETATM    8  C13 UNL     1      21.031   1.361  50.773  1.00  0.00     0.101 A 
HETATM    9  N2  UNL     1      21.027   0.563  51.938  1.00  0.00    -0.351 N 
HETATM   10  C14 UNL     1      19.771  -0.024  52.247  1.00  0.00     0.047 A 
HETATM   11  C15 UNL     1      19.324  -0.853  53.261  1.00  0.00     0.030 A 
HETATM   12  C16 UNL     1      18.021  -1.285  53.324  1.00  0.00     0.002 A 
HETATM   13  C17 UNL     1      17.126  -0.897  52.367  1.00  0.00     0.001 A 
HETATM   14  C18 UNL     1      17.583  -0.077  51.366  1.00  0.00     0.018 A 
HETATM   15  C19 UNL     1      18.900   0.382  51.273  1.00  0.00     0.043 A 
HETATM   16  C20 UNL     1      19.641   1.233  50.352  1.00  0.00     0.212 A 
HETATM   17  O2  UNL     1      18.999   1.707  49.380  1.00  0.00    -0.285 OA
HETATM   18  C21 UNL     1      21.730   2.830  48.934  1.00  0.00     0.259 A 
HETATM   19  O3  UNL     1      20.740   3.042  48.191  1.00  0.00    -0.267 OA
HETATM   20  N3  UNL     1      22.929   3.471  48.519  1.00  0.00    -0.322 N 
HETATM   21  H14 UNL     1      21.818   0.362  52.577  1.00  0.00     0.166 HD
HETATM   22  H19 UNL     1      23.133   4.094  47.699  1.00  0.00     0.169 HD
ENDROOT
BRANCH   1  23
HETATM   23  N1  UNL     1      26.235   1.639  52.642  1.00  0.00    -0.327 N 
HETATM   24  C5  UNL     1      26.824   0.370  52.793  1.00  0.00     0.222 C 
HETATM   25  O1  UNL     1      26.707  -0.442  51.849  1.00  0.00    -0.273 OA
HETATM   26  H10 UNL     1      26.400   2.220  53.491  1.00  0.00     0.169 HD
BRANCH  24  27
HETATM   27  C4  UNL     1      27.575  -0.081  53.989  1.00  0.00     0.103 C 
BRANCH  27  28
HETATM   28  C3  UNL     1      28.893   0.660  54.073  1.00  0.00     0.009 C 
BRANCH  28  29
HETATM   29  C2  UNL     1      30.037  -0.149  53.560  1.00  0.00    -0.004 C 
HETATM   30  C1  UNL     1      29.632  -1.607  53.556  1.00  0.00     0.005 C 
ENDBRANCH  28  29
ENDBRANCH  27  28
ENDBRANCH  24  27
ENDBRANCH   1  23
TORSDOF 4
ENDMDL
MODEL 6
REMARK VINA RESULT:      -8.8      3.536      6.345
REMARK  4 active torsions:
REMARK  status: ('A' for Active; 'I' for Inactive)
REMARK    1  A    between atoms: C2_2  and  C3_3 
REMARK    2  A    between atoms: C3_3  and  C4_4 
REMARK    3  A    between atoms: C4_4  and  C5_5 
REMARK       I    between atoms: C5_5  and  N1_7 
REMARK    4  A    between atoms: N1_7  and  C6_8 
ROOT
HETATM    1  C6  UNL     1      25.523   7.473  50.188  1.00  0.00     0.035 A 
HETATM    2  C7  UNL     1      24.449   8.328  50.117  1.00  0.00     0.032 A 
HETATM    3  C8  UNL     1      23.173   7.990  50.505  1.00  0.00     0.033 A 
HETATM    4  C9  UNL     1      22.978   6.703  50.997  1.00  0.00     0.046 A 
HETATM    5  C10 UNL     1      24.015   5.792  51.095  1.00  0.00     0.011 A 
HETATM    6  C11 UNL     1      25.246   6.240  50.678  1.00  0.00     0.044 A 
HETATM    7  C12 UNL     1      23.572   4.519  51.634  1.00  0.00     0.075 A 
HETATM    8  C13 UNL     1      24.197   3.400  51.893  1.00  0.00     0.101 A 
HETATM    9  N2  UNL     1      25.535   2.970  51.760  1.00  0.00    -0.351 N 
HETATM   10  C14 UNL     1      25.770   1.632  52.177  1.00  0.00     0.047 A 
HETATM   11  C15 UNL     1      26.892   0.825  52.220  1.00  0.00     0.030 A 
HETATM   12  C16 UNL     1      26.840  -0.468  52.684  1.00  0.00     0.002 A 
HETATM   13  C17 UNL     1      25.654  -0.989  53.118  1.00  0.00     0.001 A 
HETATM   14  C18 UNL     1      24.547  -0.178  53.068  1.00  0.00     0.018 A 
HETATM   15  C19 UNL     1      24.566   1.140  52.604  1.00  0.00     0.043 A 
HETATM   16  C20 UNL     1      23.579   2.199  52.443  1.00  0.00     0.212 A 
HETATM   17  O2  UNL     1      22.400   1.929  52.787  1.00  0.00    -0.285 OA
HETATM   18  C21 UNL     1      22.150   4.755  51.854  1.00  0.00     0.259 A 
HETATM   19  O3  UNL     1      21.200   4.062  52.297  1.00  0.00    -0.267 OA
HETATM   20  N3  UNL     1      21.788   6.074  51.469  1.00  0.00    -0.322 N 
HETATM   21  H14 UNL     1      26.345   3.507  51.400  1.00  0.00     0.166 HD
HETATM   22  H19 UNL     1      20.865   6.574  51.490  1.00  0.00     0.169 HD
ENDROOT
BRANCH   1  23
HETATM   23  N1  UNL     1      26.844   7.788  49.798  1.00  0.00    -0.327 N 
HETATM   24  C5  UNL     1      27.453   7.681  48.534  1.00  0.00     0.222 C 
HETATM   25  O1  UNL     1      26.758   7.248  47.589  1.00  0.00    -0.273 OA
HETATM   26  H10 UNL     1      27.522   8.158  50.498  1.00  0.00     0.169 HD
BRANCH  24  27
HETATM   27  C4  UNL     1      28.859   8.041  48.235  1.00  0.00     0.103 C 
BRANCH  27  28
HETATM   28  C3  UNL     1      29.473   6.994  47.331  1.00  0.00     0.009 C 
BRANCH  28  29
HETATM   29  C2  UNL     1      29.812   5.737  48.058  1.00  0.00    -0.004 C 
HETATM   30  C1  UNL     1      31.073   5.971  48.863  1.00  0.00     0.005 C 
ENDBRANCH  28  29
ENDBRANCH  27  28
ENDBRANCH  24  27
ENDBRANCH   1  23
TORSDOF 4
ENDMDL
MODEL 7
REMARK VINA RESULT:      -8.7      4.393     10.219
REMARK  4 active torsions:
REMARK  status: ('A' for Active; 'I' for Inactive)
REMARK    1  A    between atoms: C2_2  and  C3_3 
REMARK    2  A    between atoms: C3_3  and  C4_4 
REMARK    3  A    between atoms: C4_4  and  C5_5 
REMARK       I    between atoms: C5_5  and  N1_7 
REMARK    4  A    between atoms: N1_7  and  C6_8 
ROOT
HETATM    1  C6  UNL     1      25.914   2.734  50.546  1.00  0.00     0.035 A 
HETATM    2  C7  UNL     1      24.551   2.890  50.458  1.00  0.00     0.032 A 
HETATM    3  C8  UNL     1      23.939   3.942  49.816  1.00  0.00     0.033 A 
HETATM    4  C9  UNL     1      24.766   4.893  49.226  1.00  0.00     0.046 A 
HETATM    5  C10 UNL     1      26.145   4.797  49.276  1.00  0.00     0.011 A 
HETATM    6  C11 UNL     1      26.644   3.706  49.945  1.00  0.00     0.044 A 
HETATM    7  C12 UNL     1      26.792   5.903  48.593  1.00  0.00     0.075 A 
HETATM    8  C13 UNL     1      28.048   6.211  48.397  1.00  0.00     0.101 A 
HETATM    9  N2  UNL     1      29.273   5.610  48.758  1.00  0.00    -0.351 N 
HETATM   10  C14 UNL     1      30.428   6.313  48.319  1.00  0.00     0.047 A 
HETATM   11  C15 UNL     1      31.788   6.096  48.446  1.00  0.00     0.030 A 
HETATM   12  C16 UNL     1      32.714   6.958  47.910  1.00  0.00     0.002 A 
HETATM   13  C17 UNL     1      32.300   8.068  47.230  1.00  0.00     0.001 A 
HETATM   14  C18 UNL     1      30.947   8.273  47.113  1.00  0.00     0.018 A 
HETATM   15  C19 UNL     1      29.980   7.416  47.645  1.00  0.00     0.043 A 
HETATM   16  C20 UNL     1      28.523   7.384  47.673  1.00  0.00     0.212 A 
HETATM   17  O2  UNL     1      27.926   8.328  47.096  1.00  0.00    -0.285 OA
HETATM   18  C21 UNL     1      25.654   6.682  48.120  1.00  0.00     0.259 A 
HETATM   19  O3  UNL     1      25.528   7.748  47.466  1.00  0.00    -0.267 OA
HETATM   20  N3  UNL     1      24.428   6.074  48.502  1.00  0.00    -0.322 N 
HETATM   21  H14 UNL     1      29.422   4.736  49.295  1.00  0.00     0.166 HD
HETATM   22  H19 UNL     1      23.432   6.359  48.333  1.00  0.00     0.169 HD
ENDROOT
BRANCH   1  23
HETATM   23  N1  UNL     1      26.574   1.668  51.197  1.00  0.00    -0.327 N 
HETATM   24  C5  UNL     1      26.800   1.461  52.570  1.00  0.00     0.222 C 
HETATM   25  O1  UNL     1      26.369   2.325  53.367  1.00  0.00    -0.273 OA
HETATM   26  H10 UNL     1      26.979   0.885  50.640  1.00  0.00     0.169 HD
BRANCH  24  27
HETATM   27  C4  UNL     1      27.511   0.297  53.149  1.00  0.00     0.103 C 
BRANCH  27  28
HETATM   28  C3  UNL     1      28.810   0.754  53.779  1.00  0.00     0.009 C 
BRANCH  28  29
HETATM   29  C2  UNL     1      29.960  -0.125  53.421  1.00  0.00    -0.004 C 
HETATM   30  C1  UNL     1      29.494  -1.565  53.450  1.00  0.00     0.005 C 
ENDBRANCH  28  29
ENDBRANCH  27  28
ENDBRANCH  24  27
ENDBRANCH   1  23
TORSDOF 4
ENDMDL
MODEL 8
REMARK VINA RESULT:      -8.5      3.782      6.891
REMARK  4 active torsions:
REMARK  status: ('A' for Active; 'I' for Inactive)
REMARK    1  A    between atoms: C2_2  and  C3_3 
REMARK    2  A    between atoms: C3_3  and  C4_4 
REMARK    3  A    between atoms: C4_4  and  C5_5 
REMARK       I    between atoms: C5_5  and  N1_7 
REMARK    4  A    between atoms: N1_7  and  C6_8 
ROOT
HETATM    1  C6  UNL     1      25.792   6.340  48.822  1.00  0.00     0.035 A 
HETATM    2  C7  UNL     1      24.615   6.444  48.120  1.00  0.00     0.032 A 
HETATM    3  C8  UNL     1      23.580   5.543  48.218  1.00  0.00     0.033 A 
HETATM    4  C9  UNL     1      23.754   4.469  49.086  1.00  0.00     0.046 A 
HETATM    5  C10 UNL     1      24.913   4.303  49.823  1.00  0.00     0.011 A 
HETATM    6  C11 UNL     1      25.879   5.265  49.643  1.00  0.00     0.044 A 
HETATM    7  C12 UNL     1      24.865   3.114  50.654  1.00  0.00     0.075 A 
HETATM    8  C13 UNL     1      25.717   2.582  51.491  1.00  0.00     0.101 A 
HETATM    9  N2  UNL     1      27.012   2.933  51.929  1.00  0.00    -0.351 N 
HETATM   10  C14 UNL     1      27.579   2.037  52.876  1.00  0.00     0.047 A 
HETATM   11  C15 UNL     1      28.786   1.993  53.549  1.00  0.00     0.030 A 
HETATM   12  C16 UNL     1      29.087   0.987  54.436  1.00  0.00     0.002 A 
HETATM   13  C17 UNL     1      28.181  -0.008  54.671  1.00  0.00     0.001 A 
HETATM   14  C18 UNL     1      26.987   0.047  53.995  1.00  0.00     0.018 A 
HETATM   15  C19 UNL     1      26.650   1.056  53.088  1.00  0.00     0.043 A 
HETATM   16  C20 UNL     1      25.495   1.359  52.254  1.00  0.00     0.212 A 
HETATM   17  O2  UNL     1      24.527   0.558  52.317  1.00  0.00    -0.285 OA
HETATM   18  C21 UNL     1      23.547   2.574  50.343  1.00  0.00     0.259 A 
HETATM   19  O3  UNL     1      22.895   1.568  50.721  1.00  0.00    -0.267 OA
HETATM   20  N3  UNL     1      22.873   3.391  49.395  1.00  0.00    -0.322 N 
HETATM   21  H14 UNL     1      27.583   3.750  51.643  1.00  0.00     0.166 HD
HETATM   22  H19 UNL     1      21.925   3.302  48.953  1.00  0.00     0.169 HD
ENDROOT
BRANCH   1  23
HETATM   23  N1  UNL     1      26.873   7.247  48.744  1.00  0.00    -0.327 N 
HETATM   24  C5  UNL     1      27.101   8.431  49.469  1.00  0.00     0.222 C 
HETATM   25  O1  UNL     1      26.245   8.767  50.317  1.00  0.00    -0.273 OA
HETATM   26  H10 UNL     1      27.651   7.076  48.072  1.00  0.00     0.169 HD
BRANCH  24  27
HETATM   27  C4  UNL     1      28.279   9.315  49.304  1.00  0.00     0.103 C 
BRANCH  27  28
HETATM   28  C3  UNL     1      29.076   8.880  48.093  1.00  0.00     0.009 C 
BRANCH  28  29
HETATM   29  C2  UNL     1      30.341   8.180  48.461  1.00  0.00    -0.004 C 
HETATM   30  C1  UNL     1      31.113   9.054  49.426  1.00  0.00     0.005 C 
ENDBRANCH  28  29
ENDBRANCH  27  28
ENDBRANCH  24  27
ENDBRANCH   1  23
TORSDOF 4
ENDMDL
MODEL 9
REMARK VINA RESULT:      -8.4      4.128      7.918
REMARK  4 active torsions:
REMARK  status: ('A' for Active; 'I' for Inactive)
REMARK    1  A    between atoms: C2_2  and  C3_3 
REMARK    2  A    between atoms: C3_3  and  C4_4 
REMARK    3  A    between atoms: C4_4  and  C5_5 
REMARK       I    between atoms: C5_5  and  N1_7 
REMARK    4  A    between atoms: N1_7  and  C6_8 
ROOT
HETATM    1  C6  UNL     1      29.154   6.907  48.061  1.00  0.00     0.035 A 
HETATM    2  C7  UNL     1      28.626   7.913  47.288  1.00  0.00     0.032 A 
HETATM    3  C8  UNL     1      27.277   8.108  47.099  1.00  0.00     0.033 A 
HETATM    4  C9  UNL     1      26.412   7.224  47.737  1.00  0.00     0.046 A 
HETATM    5  C10 UNL     1      26.877   6.189  48.529  1.00  0.00     0.011 A 
HETATM    6  C11 UNL     1      28.242   6.091  48.646  1.00  0.00     0.044 A 
HETATM    7  C12 UNL     1      25.792   5.401  49.087  1.00  0.00     0.075 A 
HETATM    8  C13 UNL     1      25.767   4.356  49.872  1.00  0.00     0.101 A 
HETATM    9  N2  UNL     1      26.763   3.572  50.493  1.00  0.00    -0.351 N 
HETATM   10  C14 UNL     1      26.265   2.500  51.282  1.00  0.00     0.047 A 
HETATM   11  C15 UNL     1      26.863   1.512  52.043  1.00  0.00     0.030 A 
HETATM   12  C16 UNL     1      26.126   0.574  52.725  1.00  0.00     0.002 A 
HETATM   13  C17 UNL     1      24.761   0.602  52.661  1.00  0.00     0.001 A 
HETATM   14  C18 UNL     1      24.180   1.587  51.902  1.00  0.00     0.018 A 
HETATM   15  C19 UNL     1      24.901   2.555  51.197  1.00  0.00     0.043 A 
HETATM   16  C20 UNL     1      24.561   3.683  50.339  1.00  0.00     0.212 A 
HETATM   17  O2  UNL     1      23.337   3.894  50.142  1.00  0.00    -0.285 OA
HETATM   18  C21 UNL     1      24.615   6.072  48.546  1.00  0.00     0.259 A 
HETATM   19  O3  UNL     1      23.375   5.889  48.644  1.00  0.00    -0.267 OA
HETATM   20  N3  UNL     1      24.987   7.173  47.730  1.00  0.00    -0.322 N 
HETATM   21  H14 UNL     1      27.792   3.687  50.439  1.00  0.00     0.166 HD
HETATM   22  H19 UNL     1      24.408   7.864  47.192  1.00  0.00     0.169 HD
ENDROOT
BRANCH   1  23
HETATM   23  N1  UNL     1      30.532   6.679  48.276  1.00  0.00    -0.327 N 
HETATM   24  C5  UNL     1      31.291   5.515  48.056  1.00  0.00     0.222 C 
HETATM   25  O1  UNL     1      30.698   4.511  47.604  1.00  0.00    -0.273 OA
HETATM   26  H10 UNL     1      31.136   7.442  48.652  1.00  0.00     0.169 HD
BRANCH  24  27
HETATM   27  C4  UNL     1      32.744   5.386  48.319  1.00  0.00     0.103 C 
BRANCH  27  28
HETATM   28  C3  UNL     1      33.366   6.761  48.432  1.00  0.00     0.009 C 
BRANCH  28  29
HETATM   29  C2  UNL     1      34.856   6.721  48.390  1.00  0.00    -0.004 C 
HETATM   30  C1  UNL     1      35.324   5.460  49.085  1.00  0.00     0.005 C 
ENDBRANCH  28  29
ENDBRANCH  27  28
ENDBRANCH  24  27
ENDBRANCH   1  23
TORSDOF 4
ENDMDL
