MODEL 1
REMARK VINA RESULT:      -7.3      0.000      0.000
REMARK  4 active torsions:
REMARK  status: ('A' for Active; 'I' for Inactive)
REMARK    1  A    between atoms: O1_2  and  C2_3 
REMARK    2  A    between atoms: C6_9  and  N3_10 
REMARK    3  A    between atoms: N3_10  and  C7_11 
REMARK    4  A    between atoms: C14_18  and  O2_19 
ROOT
HETATM    1  C2  UNL     1      21.977   0.306  52.108  1.00  0.00     0.103 A 
HETATM    2  C3  UNL     1      22.080  -0.449  53.271  1.00  0.00     0.072 A 
HETATM    3  C4  UNL     1      23.266  -0.535  53.978  1.00  0.00     0.075 A 
HETATM    4  N1  UNL     1      23.334  -1.274  55.100  1.00  0.00    -0.241 NA
HETATM    5  C5  UNL     1      24.525  -1.319  55.751  1.00  0.00     0.236 A 
HETATM    6  N2  UNL     1      25.656  -0.672  55.352  1.00  0.00    -0.224 NA
HETATM    7  C6  UNL     1      25.572   0.060  54.232  1.00  0.00     0.142 A 
HETATM    8  C12 UNL     1      24.393   0.149  53.523  1.00  0.00     0.042 A 
HETATM    9  C13 UNL     1      24.318   0.895  52.388  1.00  0.00     0.057 A 
HETATM   10  C14 UNL     1      23.129   0.955  51.717  1.00  0.00     0.102 A 
ENDROOT
BRANCH   7  11
HETATM   11  N3  UNL     1      26.749   0.722  53.834  1.00  0.00    -0.339 N 
HETATM   12  H6  UNL     1      26.963   1.725  53.698  1.00  0.00     0.167 HD
BRANCH  11  13
HETATM   13  C7  UNL     1      27.919   0.009  53.539  1.00  0.00     0.044 C 
HETATM   14  C8  UNL     1      27.951  -1.157  52.918  1.00  0.00     0.003 C 
HETATM   15  C9  UNL     1      29.012  -1.873  53.255  1.00  0.00     0.014 C 
HETATM   16  C10 UNL     1      30.006  -0.843  53.629  1.00  0.00     0.003 C 
HETATM   17  C11 UNL     1      29.341   0.312  53.805  1.00  0.00     0.030 C 
ENDBRANCH  11  13
ENDBRANCH   7  11
BRANCH  10  18
HETATM   18  O2  UNL     1      23.088   1.725  50.562  1.00  0.00    -0.353 OA
HETATM   19  C15 UNL     1      23.087   3.132  50.573  1.00  0.00     0.210 C 
ENDBRANCH  10  18
BRANCH   1  20
HETATM   20  O1  UNL     1      20.833   0.445  51.342  1.00  0.00    -0.353 OA
HETATM   21  C1  UNL     1      19.728   1.141  51.869  1.00  0.00     0.210 C 
ENDBRANCH   1  20
TORSDOF 4
ENDMDL
MODEL 2
REMARK VINA RESULT:      -7.2      1.603      3.049
REMARK  4 active torsions:
REMARK  status: ('A' for Active; 'I' for Inactive)
REMARK    1  A    between atoms: O1_2  and  C2_3 
REMARK    2  A    between atoms: C6_9  and  N3_10 
REMARK    3  A    between atoms: N3_10  and  C7_11 
REMARK    4  A    between atoms: C14_18  and  O2_19 
ROOT
HETATM    1  C2  UNL     1      22.120   0.544  51.907  1.00  0.00     0.103 A 
HETATM    2  C3  UNL     1      22.846   1.487  51.188  1.00  0.00     0.072 A 
HETATM    3  C4  UNL     1      24.173   1.755  51.476  1.00  0.00     0.075 A 
HETATM    4  N1  UNL     1      24.848   2.675  50.762  1.00  0.00    -0.241 NA
HETATM    5  C5  UNL     1      26.148   2.894  51.089  1.00  0.00     0.236 A 
HETATM    6  N2  UNL     1      26.818   2.253  52.088  1.00  0.00    -0.224 NA
HETATM    7  C6  UNL     1      26.132   1.340  52.790  1.00  0.00     0.142 A 
HETATM    8  C12 UNL     1      24.809   1.068  52.508  1.00  0.00     0.042 A 
HETATM    9  C13 UNL     1      24.121   0.140  53.226  1.00  0.00     0.057 A 
HETATM   10  C14 UNL     1      22.811  -0.097  52.913  1.00  0.00     0.102 A 
ENDROOT
BRANCH   7  11
HETATM   11  N3  UNL     1      26.838   0.686  53.817  1.00  0.00    -0.339 N 
HETATM   12  H6  UNL     1      26.653   0.595  54.830  1.00  0.00     0.167 HD
BRANCH  11  13
HETATM   13  C7  UNL     1      28.028  -0.007  53.552  1.00  0.00     0.044 C 
HETATM   14  C8  UNL     1      28.090  -1.213  53.016  1.00  0.00     0.003 C 
HETATM   15  C9  UNL     1      29.180  -1.868  53.385  1.00  0.00     0.014 C 
HETATM   16  C10 UNL     1      30.144  -0.781  53.667  1.00  0.00     0.003 C 
HETATM   17  C11 UNL     1      29.443   0.362  53.771  1.00  0.00     0.030 C 
ENDBRANCH  11  13
ENDBRANCH   7  11
BRANCH  10  18
HETATM   18  O2  UNL     1      22.139  -1.051  53.666  1.00  0.00    -0.353 OA
HETATM   19  C15 UNL     1      21.627  -0.798  54.951  1.00  0.00     0.210 C 
ENDBRANCH  10  18
BRANCH   1  20
HETATM   20  O1  UNL     1      20.795   0.216  51.686  1.00  0.00    -0.353 OA
HETATM   21  C1  UNL     1      19.783   1.099  52.112  1.00  0.00     0.210 C 
ENDBRANCH   1  20
TORSDOF 4
ENDMDL
MODEL 3
REMARK VINA RESULT:      -7.1      3.503      5.706
REMARK  4 active torsions:
REMARK  status: ('A' for Active; 'I' for Inactive)
REMARK    1  A    between atoms: O1_2  and  C2_3 
REMARK    2  A    between atoms: C6_9  and  N3_10 
REMARK    3  A    between atoms: N3_10  and  C7_11 
REMARK    4  A    between atoms: C14_18  and  O2_19 
ROOT
HETATM    1  C2  UNL     1      25.251   0.153  53.831  1.00  0.00     0.103 A 
HETATM    2  C3  UNL     1      24.126   0.103  53.016  1.00  0.00     0.072 A 
HETATM    3  C4  UNL     1      23.789   1.152  52.179  1.00  0.00     0.075 A 
HETATM    4  N1  UNL     1      22.693   1.073  51.402  1.00  0.00    -0.241 NA
HETATM    5  C5  UNL     1      22.414   2.134  50.601  1.00  0.00     0.236 A 
HETATM    6  N2  UNL     1      23.160   3.271  50.526  1.00  0.00    -0.224 NA
HETATM    7  C6  UNL     1      24.249   3.335  51.306  1.00  0.00     0.142 A 
HETATM    8  C12 UNL     1      24.590   2.292  52.143  1.00  0.00     0.042 A 
HETATM    9  C13 UNL     1      25.696   2.366  52.931  1.00  0.00     0.057 A 
HETATM   10  C14 UNL     1      25.996   1.309  53.745  1.00  0.00     0.102 A 
ENDROOT
BRANCH   7  11
HETATM   11  N3  UNL     1      25.009   4.516  51.217  1.00  0.00    -0.339 N 
HETATM   12  H6  UNL     1      25.163   5.288  51.887  1.00  0.00     0.167 HD
BRANCH  11  13
HETATM   13  C7  UNL     1      25.742   4.822  50.062  1.00  0.00     0.044 C 
HETATM   14  C8  UNL     1      26.518   3.969  49.417  1.00  0.00     0.003 C 
HETATM   15  C9  UNL     1      27.499   4.578  48.770  1.00  0.00     0.014 C 
HETATM   16  C10 UNL     1      26.938   5.919  48.494  1.00  0.00     0.003 C 
HETATM   17  C11 UNL     1      25.861   6.074  49.284  1.00  0.00     0.030 C 
ENDBRANCH  11  13
ENDBRANCH   7  11
BRANCH  10  18
HETATM   18  O2  UNL     1      27.133   1.418  54.536  1.00  0.00    -0.353 OA
HETATM   19  C15 UNL     1      28.439   1.418  54.013  1.00  0.00     0.210 C 
ENDBRANCH  10  18
BRANCH   1  20
HETATM   20  O1  UNL     1      25.659  -0.847  54.695  1.00  0.00    -0.353 OA
HETATM   21  C1  UNL     1      24.819  -1.226  55.761  1.00  0.00     0.210 C 
ENDBRANCH   1  20
TORSDOF 4
ENDMDL
MODEL 4
REMARK VINA RESULT:      -6.9      2.340      5.852
REMARK  4 active torsions:
REMARK  status: ('A' for Active; 'I' for Inactive)
REMARK    1  A    between atoms: O1_2  and  C2_3 
REMARK    2  A    between atoms: C6_9  and  N3_10 
REMARK    3  A    between atoms: N3_10  and  C7_11 
REMARK    4  A    between atoms: C14_18  and  O2_19 
ROOT
HETATM    1  C2  UNL     1      27.491   0.713  53.545  1.00  0.00     0.103 A 
HETATM    2  C3  UNL     1      26.880  -0.064  54.523  1.00  0.00     0.072 A 
HETATM    3  C4  UNL     1      25.529  -0.358  54.477  1.00  0.00     0.075 A 
HETATM    4  N1  UNL     1      24.967  -1.112  55.439  1.00  0.00    -0.241 NA
HETATM    5  C5  UNL     1      23.637  -1.368  55.341  1.00  0.00     0.236 A 
HETATM    6  N2  UNL     1      22.830  -0.918  54.339  1.00  0.00    -0.224 NA
HETATM    7  C6  UNL     1      23.405  -0.168  53.388  1.00  0.00     0.142 A 
HETATM    8  C12 UNL     1      24.751   0.129  53.429  1.00  0.00     0.042 A 
HETATM    9  C13 UNL     1      25.325   0.891  52.458  1.00  0.00     0.057 A 
HETATM   10  C14 UNL     1      26.663   1.161  52.539  1.00  0.00     0.102 A 
ENDROOT
BRANCH   7  11
HETATM   11  N3  UNL     1      22.557   0.289  52.361  1.00  0.00    -0.339 N 
HETATM   12  H6  UNL     1      22.319  -0.108  51.437  1.00  0.00     0.167 HD
BRANCH  11  13
HETATM   13  C7  UNL     1      21.845   1.491  52.487  1.00  0.00     0.044 C 
HETATM   14  C8  UNL     1      20.581   1.578  52.859  1.00  0.00     0.003 C 
HETATM   15  C9  UNL     1      19.989   2.655  52.368  1.00  0.00     0.014 C 
HETATM   16  C10 UNL     1      21.112   3.603  52.193  1.00  0.00     0.003 C 
HETATM   17  C11 UNL     1      22.252   2.894  52.265  1.00  0.00     0.030 C 
ENDBRANCH  11  13
ENDBRANCH   7  11
BRANCH  10  18
HETATM   18  O2  UNL     1      27.216   1.941  51.532  1.00  0.00    -0.353 OA
HETATM   19  C15 UNL     1      26.479   2.886  50.796  1.00  0.00     0.210 C 
ENDBRANCH  10  18
BRANCH   1  20
HETATM   20  O1  UNL     1      28.831   1.054  53.515  1.00  0.00    -0.353 OA
HETATM   21  C1  UNL     1      29.806   0.041  53.607  1.00  0.00     0.210 C 
ENDBRANCH   1  20
TORSDOF 4
ENDMDL
MODEL 5
REMARK VINA RESULT:      -6.8      2.761      5.773
REMARK  4 active torsions:
REMARK  status: ('A' for Active; 'I' for Inactive)
REMARK    1  A    between atoms: O1_2  and  C2_3 
REMARK    2  A    between atoms: C6_9  and  N3_10 
REMARK    3  A    between atoms: N3_10  and  C7_11 
REMARK    4  A    between atoms: C14_18  and  O2_19 
ROOT
HETATM    1  C2  UNL     1      26.681   0.150  54.344  1.00  0.00     0.103 A 
HETATM    2  C3  UNL     1      25.560  -0.627  54.075  1.00  0.00     0.072 A 
HETATM    3  C4  UNL     1      24.411  -0.081  53.531  1.00  0.00     0.075 A 
HETATM    4  N1  UNL     1      23.343  -0.859  53.283  1.00  0.00    -0.241 NA
HETATM    5  C5  UNL     1      22.244  -0.267  52.748  1.00  0.00     0.236 A 
HETATM    6  N2  UNL     1      22.144   1.058  52.445  1.00  0.00    -0.224 NA
HETATM    7  C6  UNL     1      23.217   1.821  52.698  1.00  0.00     0.142 A 
HETATM    8  C12 UNL     1      24.364   1.282  53.241  1.00  0.00     0.042 A 
HETATM    9  C13 UNL     1      25.448   2.064  53.494  1.00  0.00     0.057 A 
HETATM   10  C14 UNL     1      26.565   1.488  54.033  1.00  0.00     0.102 A 
ENDROOT
BRANCH   7  11
HETATM   11  N3  UNL     1      23.097   3.187  52.380  1.00  0.00    -0.339 N 
HETATM   12  H6  UNL     1      22.775   3.998  52.934  1.00  0.00     0.167 HD
BRANCH  11  13
HETATM   13  C7  UNL     1      23.446   3.670  51.110  1.00  0.00     0.044 C 
HETATM   14  C8  UNL     1      22.733   3.483  50.014  1.00  0.00     0.003 C 
HETATM   15  C9  UNL     1      23.482   3.497  48.923  1.00  0.00     0.014 C 
HETATM   16  C10 UNL     1      24.624   4.352  49.312  1.00  0.00     0.003 C 
HETATM   17  C11 UNL     1      24.608   4.461  50.652  1.00  0.00     0.030 C 
ENDBRANCH  11  13
ENDBRANCH   7  11
BRANCH  10  18
HETATM   18  O2  UNL     1      27.653   2.316  54.279  1.00  0.00    -0.353 OA
HETATM   19  C15 UNL     1      28.642   2.595  53.319  1.00  0.00     0.210 C 
ENDBRANCH  10  18
BRANCH   1  20
HETATM   20  O1  UNL     1      27.865  -0.314  54.886  1.00  0.00    -0.353 OA
HETATM   21  C1  UNL     1      28.856  -0.842  54.034  1.00  0.00     0.210 C 
ENDBRANCH   1  20
TORSDOF 4
ENDMDL
MODEL 6
REMARK VINA RESULT:      -6.8      2.547      5.691
REMARK  4 active torsions:
REMARK  status: ('A' for Active; 'I' for Inactive)
REMARK    1  A    between atoms: O1_2  and  C2_3 
REMARK    2  A    between atoms: C6_9  and  N3_10 
REMARK    3  A    between atoms: N3_10  and  C7_11 
REMARK    4  A    between atoms: C14_18  and  O2_19 
ROOT
HETATM    1  C2  UNL     1      26.308  -0.282  53.770  1.00  0.00     0.103 A 
HETATM    2  C3  UNL     1      25.244  -0.888  54.430  1.00  0.00     0.072 A 
HETATM    3  C4  UNL     1      23.934  -0.507  54.198  1.00  0.00     0.075 A 
HETATM    4  N1  UNL     1      22.927  -1.112  54.852  1.00  0.00    -0.241 NA
HETATM    5  C5  UNL     1      21.662  -0.696  54.583  1.00  0.00     0.236 A 
HETATM    6  N2  UNL     1      21.339   0.289  53.699  1.00  0.00    -0.224 NA
HETATM    7  C6  UNL     1      22.354   0.883  53.054  1.00  0.00     0.142 A 
HETATM    8  C12 UNL     1      23.661   0.508  53.282  1.00  0.00     0.042 A 
HETATM    9  C13 UNL     1      24.684   1.116  52.623  1.00  0.00     0.057 A 
HETATM   10  C14 UNL     1      25.965   0.713  52.879  1.00  0.00     0.102 A 
ENDROOT
BRANCH   7  11
HETATM   11  N3  UNL     1      22.003   1.898  52.145  1.00  0.00    -0.339 N 
HETATM   12  H6  UNL     1      21.694   2.875  52.288  1.00  0.00     0.167 HD
BRANCH  11  13
HETATM   13  C7  UNL     1      22.037   1.677  50.761  1.00  0.00     0.044 C 
HETATM   14  C8  UNL     1      22.787   2.355  49.910  1.00  0.00     0.003 C 
HETATM   15  C9  UNL     1      22.259   2.391  48.697  1.00  0.00     0.014 C 
HETATM   16  C10 UNL     1      21.453   1.152  48.646  1.00  0.00     0.003 C 
HETATM   17  C11 UNL     1      21.312   0.711  49.908  1.00  0.00     0.030 C 
ENDBRANCH  11  13
ENDBRANCH   7  11
BRANCH  10  18
HETATM   18  O2  UNL     1      26.985   1.355  52.189  1.00  0.00    -0.353 OA
HETATM   19  C15 UNL     1      26.758   2.394  51.269  1.00  0.00     0.210 C 
ENDBRANCH  10  18
BRANCH   1  20
HETATM   20  O1  UNL     1      27.642  -0.600  53.943  1.00  0.00    -0.353 OA
HETATM   21  C1  UNL     1      28.387   0.055  54.943  1.00  0.00     0.210 C 
ENDBRANCH   1  20
TORSDOF 4
ENDMDL
MODEL 7
REMARK VINA RESULT:      -6.5      2.090      3.591
REMARK  4 active torsions:
REMARK  status: ('A' for Active; 'I' for Inactive)
REMARK    1  A    between atoms: O1_2  and  C2_3 
REMARK    2  A    between atoms: C6_9  and  N3_10 
REMARK    3  A    between atoms: N3_10  and  C7_11 
REMARK    4  A    between atoms: C14_18  and  O2_19 
ROOT
HETATM    1  C2  UNL     1      22.104   2.442  52.394  1.00  0.00     0.103 A 
HETATM    2  C3  UNL     1      23.008   3.296  51.773  1.00  0.00     0.072 A 
HETATM    3  C4  UNL     1      24.308   2.904  51.503  1.00  0.00     0.075 A 
HETATM    4  N1  UNL     1      25.159   3.754  50.900  1.00  0.00    -0.241 NA
HETATM    5  C5  UNL     1      26.421   3.314  50.660  1.00  0.00     0.236 A 
HETATM    6  N2  UNL     1      26.889   2.076  50.986  1.00  0.00    -0.224 NA
HETATM    7  C6  UNL     1      26.028   1.241  51.586  1.00  0.00     0.142 A 
HETATM    8  C12 UNL     1      24.732   1.625  51.857  1.00  0.00     0.042 A 
HETATM    9  C13 UNL     1      23.866   0.770  52.467  1.00  0.00     0.057 A 
HETATM   10  C14 UNL     1      22.590   1.194  52.717  1.00  0.00     0.102 A 
ENDROOT
BRANCH   7  11
HETATM   11  N3  UNL     1      26.527  -0.034  51.915  1.00  0.00    -0.339 N 
HETATM   12  H6  UNL     1      26.403  -0.958  51.468  1.00  0.00     0.167 HD
BRANCH  11  13
HETATM   13  C7  UNL     1      27.356  -0.224  53.030  1.00  0.00     0.044 C 
HETATM   14  C8  UNL     1      26.983  -0.038  54.283  1.00  0.00     0.003 C 
HETATM   15  C9  UNL     1      28.000   0.287  55.065  1.00  0.00     0.014 C 
HETATM   16  C10 UNL     1      29.157  -0.335  54.383  1.00  0.00     0.003 C 
HETATM   17  C11 UNL     1      28.768  -0.649  53.135  1.00  0.00     0.030 C 
ENDBRANCH  11  13
ENDBRANCH   7  11
BRANCH  10  18
HETATM   18  O2  UNL     1      21.733   0.296  53.340  1.00  0.00    -0.353 OA
HETATM   19  C15 UNL     1      22.085  -0.436  54.488  1.00  0.00     0.210 C 
ENDBRANCH  10  18
BRANCH   1  20
HETATM   20  O1  UNL     1      20.791   2.752  52.700  1.00  0.00    -0.353 OA
HETATM   21  C1  UNL     1      20.156   3.816  52.029  1.00  0.00     0.210 C 
ENDBRANCH   1  20
TORSDOF 4
ENDMDL
MODEL 8
REMARK VINA RESULT:      -6.5      1.680      2.271
REMARK  4 active torsions:
REMARK  status: ('A' for Active; 'I' for Inactive)
REMARK    1  A    between atoms: O1_2  and  C2_3 
REMARK    2  A    between atoms: C6_9  and  N3_10 
REMARK    3  A    between atoms: N3_10  and  C7_11 
REMARK    4  A    between atoms: C14_18  and  O2_19 
ROOT
HETATM    1  C2  UNL     1      21.832   2.815  51.636  1.00  0.00     0.103 A 
HETATM    2  C3  UNL     1      21.621   1.791  52.553  1.00  0.00     0.072 A 
HETATM    3  C4  UNL     1      22.646   0.950  52.951  1.00  0.00     0.075 A 
HETATM    4  N1  UNL     1      22.410  -0.031  53.840  1.00  0.00    -0.241 NA
HETATM    5  C5  UNL     1      23.455  -0.824  54.193  1.00  0.00     0.236 A 
HETATM    6  N2  UNL     1      24.724  -0.699  53.713  1.00  0.00    -0.224 NA
HETATM    7  C6  UNL     1      24.943   0.284  52.828  1.00  0.00     0.142 A 
HETATM    8  C12 UNL     1      23.926   1.125  52.427  1.00  0.00     0.042 A 
HETATM    9  C13 UNL     1      24.159   2.120  51.529  1.00  0.00     0.057 A 
HETATM   10  C14 UNL     1      23.120   2.930  51.160  1.00  0.00     0.102 A 
ENDROOT
BRANCH   7  11
HETATM   11  N3  UNL     1      26.259   0.401  52.342  1.00  0.00    -0.339 N 
HETATM   12  H6  UNL     1      26.675   0.187  51.420  1.00  0.00     0.167 HD
BRANCH  11  13
HETATM   13  C7  UNL     1      27.294   0.883  53.156  1.00  0.00     0.044 C 
HETATM   14  C8  UNL     1      27.499   2.159  53.432  1.00  0.00     0.003 C 
HETATM   15  C9  UNL     1      28.771   2.414  53.695  1.00  0.00     0.014 C 
HETATM   16  C10 UNL     1      29.272   1.123  54.214  1.00  0.00     0.003 C 
HETATM   17  C11 UNL     1      28.371   0.180  53.886  1.00  0.00     0.030 C 
ENDBRANCH  11  13
ENDBRANCH   7  11
BRANCH  10  18
HETATM   18  O2  UNL     1      23.393   3.935  50.241  1.00  0.00    -0.353 OA
HETATM   19  C15 UNL     1      23.387   3.730  48.850  1.00  0.00     0.210 C 
ENDBRANCH  10  18
BRANCH   1  20
HETATM   20  O1  UNL     1      20.867   3.696  51.186  1.00  0.00    -0.353 OA
HETATM   21  C1  UNL     1      19.533   3.541  51.613  1.00  0.00     0.210 C 
ENDBRANCH   1  20
TORSDOF 4
ENDMDL
MODEL 9
REMARK VINA RESULT:      -6.4      8.069     11.024
REMARK  4 active torsions:
REMARK  status: ('A' for Active; 'I' for Inactive)
REMARK    1  A    between atoms: O1_2  and  C2_3 
REMARK    2  A    between atoms: C6_9  and  N3_10 
REMARK    3  A    between atoms: N3_10  and  C7_11 
REMARK    4  A    between atoms: C14_18  and  O2_19 
ROOT
HETATM    1  C2  UNL     1      32.784   6.150  48.801  1.00  0.00     0.103 A 
HETATM    2  C3  UNL     1      32.339   7.426  49.130  1.00  0.00     0.072 A 
HETATM    3  C4  UNL     1      31.012   7.791  48.990  1.00  0.00     0.075 A 
HETATM    4  N1  UNL     1      30.614   9.033  49.316  1.00  0.00    -0.241 NA
HETATM    5  C5  UNL     1      29.299   9.334  49.158  1.00  0.00     0.236 A 
HETATM    6  N2  UNL     1      28.353   8.469  48.693  1.00  0.00    -0.224 NA
HETATM    7  C6  UNL     1      28.766   7.234  48.372  1.00  0.00     0.142 A 
HETATM    8  C12 UNL     1      30.088   6.865  48.510  1.00  0.00     0.042 A 
HETATM    9  C13 UNL     1      30.496   5.609  48.181  1.00  0.00     0.057 A 
HETATM   10  C14 UNL     1      31.816   5.286  48.333  1.00  0.00     0.102 A 
ENDROOT
BRANCH   7  11
HETATM   11  N3  UNL     1      27.778   6.354  47.894  1.00  0.00    -0.339 N 
HETATM   12  H6  UNL     1      27.490   6.096  46.935  1.00  0.00     0.167 HD
BRANCH  11  13
HETATM   13  C7  UNL     1      26.962   5.629  48.775  1.00  0.00     0.044 C 
HETATM   14  C8  UNL     1      27.134   4.356  49.082  1.00  0.00     0.003 C 
HETATM   15  C9  UNL     1      25.999   3.767  49.423  1.00  0.00     0.014 C 
HETATM   16  C10 UNL     1      25.188   4.885  49.952  1.00  0.00     0.003 C 
HETATM   17  C11 UNL     1      25.773   6.029  49.557  1.00  0.00     0.030 C 
ENDBRANCH  11  13
ENDBRANCH   7  11
BRANCH  10  18
HETATM   18  O2  UNL     1      32.199   3.996  47.989  1.00  0.00    -0.353 OA
HETATM   19  C15 UNL     1      32.287   3.547  46.659  1.00  0.00     0.210 C 
ENDBRANCH  10  18
BRANCH   1  20
HETATM   20  O1  UNL     1      34.088   5.704  48.910  1.00  0.00    -0.353 OA
HETATM   21  C1  UNL     1      35.146   6.563  48.552  1.00  0.00     0.210 C 
ENDBRANCH   1  20
TORSDOF 4
ENDMDL
