MODEL 1
REMARK VINA RESULT:      -8.6      0.000      0.000
REMARK  4 active torsions:
REMARK  status: ('A' for Active; 'I' for Inactive)
REMARK    1  A    between atoms: C1_2  and  C2_3 
REMARK       I    between atoms: C1_2  and  N2_13 
REMARK    2  A    between atoms: C3_4  and  C4_5 
REMARK    3  A    between atoms: C4_5  and  C5_6 
REMARK    4  A    between atoms: C5_6  and  N1_7 
ROOT
HETATM    1  O1  UNL     1      22.803   4.898  53.061  1.00  0.00    -0.258 OA
HETATM    2  C1  UNL     1      23.410   4.104  52.283  1.00  0.00     0.299 C 
HETATM    3  N2  UNL     1      23.715   4.450  50.937  1.00  0.00    -0.326 N 
HETATM    4  C11 UNL     1      24.409   3.574  50.008  1.00  0.00     0.154 C 
HETATM    5  C12 UNL     1      25.902   3.748  50.219  1.00  0.00    -0.011 C 
HETATM    6  C13 UNL     1      26.641   4.365  49.319  1.00  0.00    -0.021 C 
HETATM    7  C14 UNL     1      27.765   4.996  48.534  1.00  0.00     0.118 C 
HETATM    8  C15 UNL     1      27.361   6.478  48.440  1.00  0.00     0.181 A 
HETATM    9  F1  UNL     1      27.192   7.802  48.186  1.00  0.00    -0.238 F 
HETATM   10  N3  UNL     1      26.520   7.113  49.094  1.00  0.00    -0.221 N 
HETATM   11  C16 UNL     1      25.612   6.863  50.129  1.00  0.00     0.190 C 
HETATM   12  C17 UNL     1      24.222   6.577  49.606  1.00  0.00     0.158 A 
HETATM   13  N4  UNL     1      24.168   6.731  48.176  1.00  0.00    -0.274 NA
HETATM   14  C18 UNL     1      23.331   6.207  47.426  1.00  0.00     0.226 A 
HETATM   15  N5  UNL     1      22.322   5.357  47.960  1.00  0.00    -0.256 NA
HETATM   16  C19 UNL     1      22.318   5.131  49.252  1.00  0.00     0.118 A 
HETATM   17  C20 UNL     1      23.321   5.686  50.269  1.00  0.00     0.155 A 
ENDROOT
BRANCH   2  18
HETATM   18  C2  UNL     1      23.831   2.800  52.703  1.00  0.00    -0.005 C 
HETATM   19  C3  UNL     1      24.190   1.687  53.040  1.00  0.00    -0.095 C 
BRANCH  19  20
HETATM   20  C4  UNL     1      24.635   0.342  53.430  1.00  0.00     0.124 C 
BRANCH  20  21
HETATM   21  C5  UNL     1      25.841  -0.097  52.634  1.00  0.00     0.284 C 
BRANCH  21  22
HETATM   22  N1  UNL     1      26.982  -0.392  53.467  1.00  0.00     0.089 N 
HETATM   23  C6  UNL     1      27.804  -1.339  52.730  1.00  0.00     0.272 C 
HETATM   24  C7  UNL     1      29.112  -1.639  53.403  1.00  0.00     0.030 C 
HETATM   25  C8  UNL     1      29.950  -0.397  53.589  1.00  0.00     0.003 C 
HETATM   26  C9  UNL     1      29.068   0.603  54.314  1.00  0.00     0.030 C 
HETATM   27  C10 UNL     1      27.755   0.812  53.630  1.00  0.00     0.272 C 
ENDBRANCH  21  22
ENDBRANCH  20  21
ENDBRANCH  19  20
ENDBRANCH   2  18
TORSDOF 4
ENDMDL
MODEL 2
REMARK VINA RESULT:      -8.3      1.943      2.720
REMARK  4 active torsions:
REMARK  status: ('A' for Active; 'I' for Inactive)
REMARK    1  A    between atoms: C1_2  and  C2_3 
REMARK       I    between atoms: C1_2  and  N2_13 
REMARK    2  A    between atoms: C3_4  and  C4_5 
REMARK    3  A    between atoms: C4_5  and  C5_6 
REMARK    4  A    between atoms: C5_6  and  N1_7 
ROOT
HETATM    1  O1  UNL     1      20.381   3.013  52.825  1.00  0.00    -0.258 OA
HETATM    2  C1  UNL     1      21.308   2.301  52.337  1.00  0.00     0.299 C 
HETATM    3  N2  UNL     1      21.879   2.573  51.062  1.00  0.00    -0.326 N 
HETATM    4  C11 UNL     1      22.943   1.787  50.461  1.00  0.00     0.154 C 
HETATM    5  C12 UNL     1      24.270   2.308  50.985  1.00  0.00    -0.011 C 
HETATM    6  C13 UNL     1      25.084   2.982  50.199  1.00  0.00    -0.021 C 
HETATM    7  C14 UNL     1      26.231   3.767  49.611  1.00  0.00     0.118 C 
HETATM    8  C15 UNL     1      25.591   5.106  49.205  1.00  0.00     0.181 A 
HETATM    9  F1  UNL     1      25.244   6.328  48.724  1.00  0.00    -0.238 F 
HETATM   10  N3  UNL     1      24.504   5.599  49.544  1.00  0.00    -0.221 N 
HETATM   11  C16 UNL     1      23.424   5.256  50.365  1.00  0.00     0.190 C 
HETATM   12  C17 UNL     1      22.298   4.619  49.583  1.00  0.00     0.158 A 
HETATM   13  N4  UNL     1      22.586   4.618  48.172  1.00  0.00    -0.274 NA
HETATM   14  C18 UNL     1      22.088   3.851  47.336  1.00  0.00     0.226 A 
HETATM   15  N5  UNL     1      21.156   2.855  47.742  1.00  0.00    -0.256 NA
HETATM   16  C19 UNL     1      20.861   2.759  49.016  1.00  0.00     0.118 A 
HETATM   17  C20 UNL     1      21.443   3.620  50.143  1.00  0.00     0.155 A 
ENDROOT
BRANCH   2  18
HETATM   18  C2  UNL     1      21.847   1.170  53.033  1.00  0.00    -0.005 C 
HETATM   19  C3  UNL     1      22.292   0.213  53.640  1.00  0.00    -0.095 C 
BRANCH  19  20
HETATM   20  C4  UNL     1      22.812  -0.943  54.382  1.00  0.00     0.124 C 
BRANCH  20  21
HETATM   21  C5  UNL     1      24.277  -0.782  54.707  1.00  0.00     0.284 C 
BRANCH  21  22
HETATM   22  N1  UNL     1      24.985  -0.001  53.722  1.00  0.00     0.089 N 
HETATM   23  C6  UNL     1      25.874   0.889  54.452  1.00  0.00     0.272 C 
HETATM   24  C7  UNL     1      26.793   1.673  53.561  1.00  0.00     0.030 C 
HETATM   25  C8  UNL     1      27.676   0.774  52.728  1.00  0.00     0.003 C 
HETATM   26  C9  UNL     1      26.743  -0.183  52.008  1.00  0.00     0.030 C 
HETATM   27  C10 UNL     1      25.810  -0.886  52.941  1.00  0.00     0.272 C 
ENDBRANCH  21  22
ENDBRANCH  20  21
ENDBRANCH  19  20
ENDBRANCH   2  18
TORSDOF 4
ENDMDL
MODEL 3
REMARK VINA RESULT:      -8.2      3.508      4.492
REMARK  4 active torsions:
REMARK  status: ('A' for Active; 'I' for Inactive)
REMARK    1  A    between atoms: C1_2  and  C2_3 
REMARK       I    between atoms: C1_2  and  N2_13 
REMARK    2  A    between atoms: C3_4  and  C4_5 
REMARK    3  A    between atoms: C4_5  and  C5_6 
REMARK    4  A    between atoms: C5_6  and  N1_7 
ROOT
HETATM    1  O1  UNL     1      19.627  -0.192  52.977  1.00  0.00    -0.258 OA
HETATM    2  C1  UNL     1      20.850   0.123  52.887  1.00  0.00     0.299 C 
HETATM    3  N2  UNL     1      21.337   0.982  51.862  1.00  0.00    -0.326 N 
HETATM    4  C11 UNL     1      22.729   1.373  51.719  1.00  0.00     0.154 C 
HETATM    5  C12 UNL     1      22.978   2.572  52.616  1.00  0.00    -0.011 C 
HETATM    6  C13 UNL     1      23.170   3.769  52.099  1.00  0.00    -0.021 C 
HETATM    7  C14 UNL     1      23.420   5.240  51.872  1.00  0.00     0.118 C 
HETATM    8  C15 UNL     1      22.141   5.727  51.169  1.00  0.00     0.181 A 
HETATM    9  F1  UNL     1      21.145   6.368  50.504  1.00  0.00    -0.238 F 
HETATM   10  N3  UNL     1      21.030   5.183  51.082  1.00  0.00    -0.221 N 
HETATM   11  C16 UNL     1      20.420   4.001  51.516  1.00  0.00     0.190 C 
HETATM   12  C17 UNL     1      20.449   2.925  50.453  1.00  0.00     0.158 A 
HETATM   13  N4  UNL     1      21.012   3.428  49.227  1.00  0.00    -0.274 NA
HETATM   14  C18 UNL     1      21.527   2.738  48.335  1.00  0.00     0.226 A 
HETATM   15  N5  UNL     1      21.614   1.325  48.481  1.00  0.00    -0.256 NA
HETATM   16  C19 UNL     1      21.158   0.783  49.585  1.00  0.00     0.118 A 
HETATM   17  C20 UNL     1      20.541   1.535  50.770  1.00  0.00     0.155 A 
ENDROOT
BRANCH   2  18
HETATM   18  C2  UNL     1      21.832  -0.363  53.812  1.00  0.00    -0.005 C 
HETATM   19  C3  UNL     1      22.680  -0.764  54.588  1.00  0.00    -0.095 C 
BRANCH  19  20
HETATM   20  C4  UNL     1      23.712  -1.230  55.523  1.00  0.00     0.124 C 
BRANCH  20  21
HETATM   21  C5  UNL     1      25.087  -1.185  54.899  1.00  0.00     0.284 C 
BRANCH  21  22
HETATM   22  N1  UNL     1      25.239  -0.099  53.961  1.00  0.00     0.089 N 
HETATM   23  C6  UNL     1      26.076   0.900  54.608  1.00  0.00     0.272 C 
HETATM   24  C7  UNL     1      26.451   2.037  53.703  1.00  0.00     0.030 C 
HETATM   25  C8  UNL     1      27.210   1.565  52.486  1.00  0.00     0.003 C 
HETATM   26  C9  UNL     1      26.352   0.488  51.846  1.00  0.00     0.030 C 
HETATM   27  C10 UNL     1      25.959  -0.583  52.812  1.00  0.00     0.272 C 
ENDBRANCH  21  22
ENDBRANCH  20  21
ENDBRANCH  19  20
ENDBRANCH   2  18
TORSDOF 4
ENDMDL
MODEL 4
REMARK VINA RESULT:      -7.9      5.418      7.174
REMARK  4 active torsions:
REMARK  status: ('A' for Active; 'I' for Inactive)
REMARK    1  A    between atoms: C1_2  and  C2_3 
REMARK       I    between atoms: C1_2  and  N2_13 
REMARK    2  A    between atoms: C3_4  and  C4_5 
REMARK    3  A    between atoms: C4_5  and  C5_6 
REMARK    4  A    between atoms: C5_6  and  N1_7 
ROOT
HETATM    1  O1  UNL     1      21.749   2.193  49.231  1.00  0.00    -0.258 OA
HETATM    2  C1  UNL     1      21.626   1.926  50.463  1.00  0.00     0.299 C 
HETATM    3  N2  UNL     1      20.361   1.934  51.115  1.00  0.00    -0.326 N 
HETATM    4  C11 UNL     1      20.170   1.634  52.525  1.00  0.00     0.154 C 
HETATM    5  C12 UNL     1      20.055   0.128  52.676  1.00  0.00    -0.011 C 
HETATM    6  C13 UNL     1      18.900  -0.431  52.974  1.00  0.00    -0.021 C 
HETATM    7  C14 UNL     1      17.781  -1.392  53.296  1.00  0.00     0.118 C 
HETATM    8  C15 UNL     1      16.779  -1.189  52.145  1.00  0.00     0.181 A 
HETATM    9  F1  UNL     1      15.738  -1.148  51.274  1.00  0.00    -0.238 F 
HETATM   10  N3  UNL     1      16.940  -0.644  51.043  1.00  0.00    -0.221 N 
HETATM   11  C16 UNL     1      17.972  -0.008  50.344  1.00  0.00     0.190 C 
HETATM   12  C17 UNL     1      17.917   1.496  50.495  1.00  0.00     0.158 A 
HETATM   13  N4  UNL     1      16.754   1.896  51.243  1.00  0.00    -0.274 NA
HETATM   14  C18 UNL     1      16.627   2.963  51.861  1.00  0.00     0.226 A 
HETATM   15  N5  UNL     1      17.690   3.908  51.886  1.00  0.00    -0.256 NA
HETATM   16  C19 UNL     1      18.804   3.610  51.261  1.00  0.00     0.118 A 
HETATM   17  C20 UNL     1      19.092   2.310  50.501  1.00  0.00     0.155 A 
ENDROOT
BRANCH   2  18
HETATM   18  C2  UNL     1      22.751   1.598  51.287  1.00  0.00    -0.005 C 
HETATM   19  C3  UNL     1      23.713   1.338  51.986  1.00  0.00    -0.095 C 
BRANCH  19  20
HETATM   20  C4  UNL     1      24.874   1.044  52.837  1.00  0.00     0.124 C 
BRANCH  20  21
HETATM   21  C5  UNL     1      24.906  -0.408  53.250  1.00  0.00     0.284 C 
BRANCH  21  22
HETATM   22  N1  UNL     1      26.174  -0.799  53.819  1.00  0.00     0.089 N 
HETATM   23  C6  UNL     1      26.999  -1.270  52.718  1.00  0.00     0.272 C 
HETATM   24  C7  UNL     1      28.410  -1.580  53.123  1.00  0.00     0.030 C 
HETATM   25  C8  UNL     1      29.112  -0.372  53.697  1.00  0.00     0.003 C 
HETATM   26  C9  UNL     1      28.220   0.144  54.812  1.00  0.00     0.030 C 
HETATM   27  C10 UNL     1      26.813   0.373  54.361  1.00  0.00     0.272 C 
ENDBRANCH  21  22
ENDBRANCH  20  21
ENDBRANCH  19  20
ENDBRANCH   2  18
TORSDOF 4
ENDMDL
MODEL 5
REMARK VINA RESULT:      -7.6      2.881      4.768
REMARK  4 active torsions:
REMARK  status: ('A' for Active; 'I' for Inactive)
REMARK    1  A    between atoms: C1_2  and  C2_3 
REMARK       I    between atoms: C1_2  and  N2_13 
REMARK    2  A    between atoms: C3_4  and  C4_5 
REMARK    3  A    between atoms: C4_5  and  C5_6 
REMARK    4  A    between atoms: C5_6  and  N1_7 
ROOT
HETATM    1  O1  UNL     1      26.827   3.778  49.377  1.00  0.00    -0.258 OA
HETATM    2  C1  UNL     1      26.016   3.284  50.214  1.00  0.00     0.299 C 
HETATM    3  N2  UNL     1      24.644   3.661  50.252  1.00  0.00    -0.326 N 
HETATM    4  C11 UNL     1      23.677   3.122  51.193  1.00  0.00     0.154 C 
HETATM    5  C12 UNL     1      23.135   1.824  50.622  1.00  0.00    -0.011 C 
HETATM    6  C13 UNL     1      21.900   1.753  50.170  1.00  0.00    -0.021 C 
HETATM    7  C14 UNL     1      20.582   1.312  49.579  1.00  0.00     0.118 C 
HETATM    8  C15 UNL     1      20.418   2.207  48.337  1.00  0.00     0.181 A 
HETATM    9  F1  UNL     1      20.035   2.908  47.239  1.00  0.00    -0.238 F 
HETATM   10  N3  UNL     1      21.260   2.894  47.740  1.00  0.00    -0.221 N 
HETATM   11  C16 UNL     1      22.624   3.186  47.851  1.00  0.00     0.190 C 
HETATM   12  C17 UNL     1      22.868   4.477  48.600  1.00  0.00     0.158 A 
HETATM   13  N4  UNL     1      21.626   5.128  48.923  1.00  0.00    -0.274 NA
HETATM   14  C18 UNL     1      21.460   5.951  49.835  1.00  0.00     0.226 A 
HETATM   15  N5  UNL     1      22.546   6.314  50.680  1.00  0.00    -0.256 NA
HETATM   16  C19 UNL     1      23.708   5.741  50.481  1.00  0.00     0.118 A 
HETATM   17  C20 UNL     1      24.023   4.684  49.416  1.00  0.00     0.155 A 
ENDROOT
BRANCH   2  18
HETATM   18  C2  UNL     1      26.422   2.310  51.184  1.00  0.00    -0.005 C 
HETATM   19  C3  UNL     1      26.747   1.479  52.013  1.00  0.00    -0.095 C 
BRANCH  19  20
HETATM   20  C4  UNL     1      27.122   0.468  53.009  1.00  0.00     0.124 C 
BRANCH  20  21
HETATM   21  C5  UNL     1      26.102  -0.644  53.084  1.00  0.00     0.284 C 
BRANCH  21  22
HETATM   22  N1  UNL     1      24.957  -0.297  53.890  1.00  0.00     0.089 N 
HETATM   23  C6  UNL     1      23.785  -0.463  53.046  1.00  0.00     0.272 C 
HETATM   24  C7  UNL     1      22.490  -0.280  53.784  1.00  0.00     0.030 C 
HETATM   25  C8  UNL     1      22.343  -1.265  54.919  1.00  0.00     0.003 C 
HETATM   26  C9  UNL     1      23.594  -1.121  55.767  1.00  0.00     0.030 C 
HETATM   27  C10 UNL     1      24.849  -1.250  54.965  1.00  0.00     0.272 C 
ENDBRANCH  21  22
ENDBRANCH  20  21
ENDBRANCH  19  20
ENDBRANCH   2  18
TORSDOF 4
ENDMDL
MODEL 6
REMARK VINA RESULT:      -7.5      5.431      7.530
REMARK  4 active torsions:
REMARK  status: ('A' for Active; 'I' for Inactive)
REMARK    1  A    between atoms: C1_2  and  C2_3 
REMARK       I    between atoms: C1_2  and  N2_13 
REMARK    2  A    between atoms: C3_4  and  C4_5 
REMARK    3  A    between atoms: C4_5  and  C5_6 
REMARK    4  A    between atoms: C5_6  and  N1_7 
ROOT
HETATM    1  O1  UNL     1      20.104   4.032  51.893  1.00  0.00    -0.258 OA
HETATM    2  C1  UNL     1      20.519   2.857  51.667  1.00  0.00     0.299 C 
HETATM    3  N2  UNL     1      21.879   2.583  51.353  1.00  0.00    -0.326 N 
HETATM    4  C11 UNL     1      22.402   1.253  51.088  1.00  0.00     0.154 C 
HETATM    5  C12 UNL     1      22.749   0.607  52.417  1.00  0.00    -0.011 C 
HETATM    6  C13 UNL     1      24.006   0.424  52.767  1.00  0.00    -0.021 C 
HETATM    7  C14 UNL     1      25.288   0.066  53.479  1.00  0.00     0.118 C 
HETATM    8  C15 UNL     1      25.987   1.422  53.681  1.00  0.00     0.181 A 
HETATM    9  F1  UNL     1      26.806   2.479  53.923  1.00  0.00    -0.238 F 
HETATM   10  N3  UNL     1      25.526   2.570  53.601  1.00  0.00    -0.221 N 
HETATM   11  C16 UNL     1      24.293   3.173  53.328  1.00  0.00     0.190 C 
HETATM   12  C17 UNL     1      24.174   3.587  51.878  1.00  0.00     0.158 A 
HETATM   13  N4  UNL     1      25.403   3.342  51.170  1.00  0.00    -0.274 NA
HETATM   14  C18 UNL     1      25.512   3.197  49.943  1.00  0.00     0.226 A 
HETATM   15  N5  UNL     1      24.359   3.250  49.110  1.00  0.00    -0.256 NA
HETATM   16  C19 UNL     1      23.190   3.433  49.675  1.00  0.00     0.118 A 
HETATM   17  C20 UNL     1      22.928   3.583  51.178  1.00  0.00     0.155 A 
ENDROOT
BRANCH   2  18
HETATM   18  C2  UNL     1      19.647   1.720  51.712  1.00  0.00    -0.005 C 
HETATM   19  C3  UNL     1      18.921   0.744  51.760  1.00  0.00    -0.095 C 
BRANCH  19  20
HETATM   20  C4  UNL     1      18.055  -0.440  51.835  1.00  0.00     0.124 C 
BRANCH  20  21
HETATM   21  C5  UNL     1      18.245  -1.187  53.133  1.00  0.00     0.284 C 
BRANCH  21  22
HETATM   22  N1  UNL     1      17.122  -2.031  53.461  1.00  0.00     0.089 N 
HETATM   23  C6  UNL     1      16.212  -1.977  52.328  1.00  0.00     0.272 C 
HETATM   24  C7  UNL     1      15.053  -2.922  52.450  1.00  0.00     0.030 C 
HETATM   25  C8  UNL     1      15.504  -4.358  52.568  1.00  0.00     0.003 C 
HETATM   26  C9  UNL     1      16.492  -4.397  53.721  1.00  0.00     0.030 C 
HETATM   27  C10 UNL     1      17.587  -3.390  53.572  1.00  0.00     0.272 C 
ENDBRANCH  21  22
ENDBRANCH  20  21
ENDBRANCH  19  20
ENDBRANCH   2  18
TORSDOF 4
ENDMDL
MODEL 7
REMARK VINA RESULT:      -7.5      3.788      6.336
REMARK  4 active torsions:
REMARK  status: ('A' for Active; 'I' for Inactive)
REMARK    1  A    between atoms: C1_2  and  C2_3 
REMARK       I    between atoms: C1_2  and  N2_13 
REMARK    2  A    between atoms: C3_4  and  C4_5 
REMARK    3  A    between atoms: C4_5  and  C5_6 
REMARK    4  A    between atoms: C5_6  and  N1_7 
ROOT
HETATM    1  O1  UNL     1      27.396   9.071  50.200  1.00  0.00    -0.258 OA
HETATM    2  C1  UNL     1      27.498   8.117  49.374  1.00  0.00     0.299 C 
HETATM    3  N2  UNL     1      28.596   8.008  48.475  1.00  0.00    -0.326 N 
HETATM    4  C11 UNL     1      28.756   6.932  47.512  1.00  0.00     0.154 C 
HETATM    5  C12 UNL     1      29.426   5.765  48.213  1.00  0.00    -0.011 C 
HETATM    6  C13 UNL     1      30.674   5.443  47.940  1.00  0.00    -0.021 C 
HETATM    7  C14 UNL     1      32.042   4.806  47.887  1.00  0.00     0.118 C 
HETATM    8  C15 UNL     1      32.990   5.932  48.335  1.00  0.00     0.181 A 
HETATM    9  F1  UNL     1      34.012   6.771  48.648  1.00  0.00    -0.238 F 
HETATM   10  N3  UNL     1      32.735   6.998  48.916  1.00  0.00    -0.221 N 
HETATM   11  C16 UNL     1      31.608   7.661  49.413  1.00  0.00     0.190 C 
HETATM   12  C17 UNL     1      31.066   8.673  48.428  1.00  0.00     0.158 A 
HETATM   13  N4  UNL     1      31.911   8.766  47.267  1.00  0.00    -0.274 NA
HETATM   14  C18 UNL     1      31.560   9.177  46.151  1.00  0.00     0.226 A 
HETATM   15  N5  UNL     1      30.218   9.595  45.931  1.00  0.00    -0.256 NA
HETATM   16  C19 UNL     1      29.368   9.511  46.926  1.00  0.00     0.118 A 
HETATM   17  C20 UNL     1      29.674   8.981  48.331  1.00  0.00     0.155 A 
ENDROOT
BRANCH   2  18
HETATM   18  C2  UNL     1      26.514   7.078  49.286  1.00  0.00    -0.005 C 
HETATM   19  C3  UNL     1      25.691   6.185  49.199  1.00  0.00    -0.095 C 
BRANCH  19  20
HETATM   20  C4  UNL     1      24.713   5.095  49.093  1.00  0.00     0.124 C 
BRANCH  20  21
HETATM   21  C5  UNL     1      25.334   3.758  49.421  1.00  0.00     0.284 C 
BRANCH  21  22
HETATM   22  N1  UNL     1      25.616   3.604  50.828  1.00  0.00     0.089 N 
HETATM   23  C6  UNL     1      24.346   3.334  51.483  1.00  0.00     0.272 C 
HETATM   24  C7  UNL     1      24.487   3.003  52.940  1.00  0.00     0.030 C 
HETATM   25  C8  UNL     1      25.352   1.785  53.162  1.00  0.00     0.003 C 
HETATM   26  C9  UNL     1      26.656   2.055  52.433  1.00  0.00     0.030 C 
HETATM   27  C10 UNL     1      26.446   2.440  51.004  1.00  0.00     0.272 C 
ENDBRANCH  21  22
ENDBRANCH  20  21
ENDBRANCH  19  20
ENDBRANCH   2  18
TORSDOF 4
ENDMDL
MODEL 8
REMARK VINA RESULT:      -7.2      6.529      9.752
REMARK  4 active torsions:
REMARK  status: ('A' for Active; 'I' for Inactive)
REMARK    1  A    between atoms: C1_2  and  C2_3 
REMARK       I    between atoms: C1_2  and  N2_13 
REMARK    2  A    between atoms: C3_4  and  C4_5 
REMARK    3  A    between atoms: C4_5  and  C5_6 
REMARK    4  A    between atoms: C5_6  and  N1_7 
ROOT
HETATM    1  O1  UNL     1      18.540   0.599  50.103  1.00  0.00    -0.258 OA
HETATM    2  C1  UNL     1      18.761   1.464  51.001  1.00  0.00     0.299 C 
HETATM    3  N2  UNL     1      20.001   1.530  51.697  1.00  0.00    -0.326 N 
HETATM    4  C11 UNL     1      20.301   2.504  52.734  1.00  0.00     0.154 C 
HETATM    5  C12 UNL     1      20.798   3.772  52.062  1.00  0.00    -0.011 C 
HETATM    6  C13 UNL     1      22.064   4.124  52.144  1.00  0.00    -0.021 C 
HETATM    7  C14 UNL     1      23.399   4.819  52.026  1.00  0.00     0.118 C 
HETATM    8  C15 UNL     1      24.284   3.796  51.292  1.00  0.00     0.181 A 
HETATM    9  F1  UNL     1      25.256   3.047  50.710  1.00  0.00    -0.238 F 
HETATM   10  N3  UNL     1      23.959   2.787  50.648  1.00  0.00    -0.221 N 
HETATM   11  C16 UNL     1      22.781   2.125  50.286  1.00  0.00     0.190 C 
HETATM   12  C17 UNL     1      22.457   0.988  51.229  1.00  0.00     0.158 A 
HETATM   13  N4  UNL     1      23.502   0.814  52.205  1.00  0.00    -0.274 NA
HETATM   14  C18 UNL     1      23.372   0.269  53.310  1.00  0.00     0.226 A 
HETATM   15  N5  UNL     1      22.105  -0.236  53.716  1.00  0.00    -0.256 NA
HETATM   16  C19 UNL     1      21.086  -0.089  52.904  1.00  0.00     0.118 A 
HETATM   17  C20 UNL     1      21.115   0.603  51.536  1.00  0.00     0.155 A 
ENDROOT
BRANCH   2  18
HETATM   18  C2  UNL     1      17.779   2.437  51.380  1.00  0.00    -0.005 C 
HETATM   19  C3  UNL     1      16.946   3.271  51.683  1.00  0.00    -0.095 C 
BRANCH  19  20
HETATM   20  C4  UNL     1      15.936   4.279  52.030  1.00  0.00     0.124 C 
BRANCH  20  21
HETATM   21  C5  UNL     1      14.535   3.730  51.895  1.00  0.00     0.284 C 
BRANCH  21  22
HETATM   22  N1  UNL     1      13.938   3.408  53.168  1.00  0.00     0.089 N 
HETATM   23  C6  UNL     1      12.903   4.401  53.410  1.00  0.00     0.272 C 
HETATM   24  C7  UNL     1      12.083   4.120  54.634  1.00  0.00     0.030 C 
HETATM   25  C8  UNL     1      11.382   2.785  54.551  1.00  0.00     0.003 C 
HETATM   26  C9  UNL     1      12.462   1.760  54.250  1.00  0.00     0.030 C 
HETATM   27  C10 UNL     1      13.285   2.128  53.057  1.00  0.00     0.272 C 
ENDBRANCH  21  22
ENDBRANCH  20  21
ENDBRANCH  19  20
ENDBRANCH   2  18
TORSDOF 4
ENDMDL
MODEL 9
REMARK VINA RESULT:      -7.2      3.815      6.822
REMARK  4 active torsions:
REMARK  status: ('A' for Active; 'I' for Inactive)
REMARK    1  A    between atoms: C1_2  and  C2_3 
REMARK       I    between atoms: C1_2  and  N2_13 
REMARK    2  A    between atoms: C3_4  and  C4_5 
REMARK    3  A    between atoms: C4_5  and  C5_6 
REMARK    4  A    between atoms: C5_6  and  N1_7 
ROOT
HETATM    1  O1  UNL     1      24.161   6.859  51.570  1.00  0.00    -0.258 OA
HETATM    2  C1  UNL     1      24.596   5.915  50.847  1.00  0.00     0.299 C 
HETATM    3  N2  UNL     1      24.136   4.577  50.994  1.00  0.00    -0.326 N 
HETATM    4  C11 UNL     1      24.604   3.462  50.187  1.00  0.00     0.154 C 
HETATM    5  C12 UNL     1      23.788   3.428  48.908  1.00  0.00    -0.011 C 
HETATM    6  C13 UNL     1      22.899   2.478  48.702  1.00  0.00    -0.021 C 
HETATM    7  C14 UNL     1      21.827   1.576  48.141  1.00  0.00     0.118 C 
HETATM    8  C15 UNL     1      20.676   1.697  49.156  1.00  0.00     0.181 A 
HETATM    9  F1  UNL     1      19.561   1.605  49.928  1.00  0.00    -0.238 F 
HETATM   10  N3  UNL     1      20.487   2.545  50.041  1.00  0.00    -0.221 N 
HETATM   11  C16 UNL     1      21.124   3.692  50.528  1.00  0.00     0.190 C 
HETATM   12  C17 UNL     1      21.991   3.391  51.730  1.00  0.00     0.158 A 
HETATM   13  N4  UNL     1      21.862   2.013  52.127  1.00  0.00    -0.274 NA
HETATM   14  C18 UNL     1      22.694   1.372  52.784  1.00  0.00     0.226 A 
HETATM   15  N5  UNL     1      23.909   1.987  53.199  1.00  0.00    -0.256 NA
HETATM   16  C19 UNL     1      24.127   3.232  52.850  1.00  0.00     0.118 A 
HETATM   17  C20 UNL     1      23.195   4.109  52.007  1.00  0.00     0.155 A 
ENDROOT
BRANCH   2  18
HETATM   18  C2  UNL     1      25.583   6.128  49.829  1.00  0.00    -0.005 C 
HETATM   19  C3  UNL     1      26.433   6.317  48.979  1.00  0.00    -0.095 C 
BRANCH  19  20
HETATM   20  C4  UNL     1      27.473   6.544  47.967  1.00  0.00     0.124 C 
BRANCH  20  21
HETATM   21  C5  UNL     1      28.507   7.536  48.445  1.00  0.00     0.284 C 
BRANCH  21  22
HETATM   22  N1  UNL     1      29.846   7.185  48.039  1.00  0.00     0.089 N 
HETATM   23  C6  UNL     1      30.748   7.778  49.014  1.00  0.00     0.272 C 
HETATM   24  C7  UNL     1      32.182   7.383  48.816  1.00  0.00     0.030 C 
HETATM   25  C8  UNL     1      32.374   5.888  48.909  1.00  0.00     0.003 C 
HETATM   26  C9  UNL     1      31.394   5.274  47.925  1.00  0.00     0.030 C 
HETATM   27  C10 UNL     1      29.994   5.756  48.134  1.00  0.00     0.272 C 
ENDBRANCH  21  22
ENDBRANCH  20  21
ENDBRANCH  19  20
ENDBRANCH   2  18
TORSDOF 4
ENDMDL
