MODEL 1
REMARK VINA RESULT:      -9.0      0.000      0.000
REMARK  6 active torsions:
REMARK  status: ('A' for Active; 'I' for Inactive)
REMARK    1  A    between atoms: C2_2  and  S1_3 
REMARK    2  A    between atoms: S1_3  and  C3_4 
REMARK    3  A    between atoms: C3_4  and  O1_6 
REMARK    4  A    between atoms: O1_6  and  C5_7 
REMARK    5  A    between atoms: C9_13  and  N3_14 
REMARK    6  A    between atoms: N3_14  and  C10_15 
ROOT
HETATM    1  C10 UNL     1      25.925  -0.050  52.982  1.00  0.00     0.035 A 
HETATM    2  C11 UNL     1      26.556  -1.241  52.632  1.00  0.00     0.030 A 
HETATM    3  C12 UNL     1      27.870  -1.541  52.854  1.00  0.00     0.010 A 
HETATM    4  C13 UNL     1      28.671  -0.605  53.476  1.00  0.00    -0.041 A 
HETATM    5  C14 UNL     1      30.089  -1.022  53.668  1.00  0.00     0.049 C 
HETATM    6  C15 UNL     1      28.096   0.590  53.843  1.00  0.00     0.052 A 
HETATM    7  C16 UNL     1      28.982   1.522  54.488  1.00  0.00     0.100 C 
HETATM    8  N4  UNL     1      29.700   2.290  55.006  1.00  0.00    -0.191 NA
HETATM    9  C17 UNL     1      26.782   0.850  53.604  1.00  0.00     0.052 A 
ENDROOT
BRANCH   1  10
HETATM   10  N3  UNL     1      24.550   0.199  52.715  1.00  0.00    -0.340 N 
HETATM   11  H12 UNL     1      24.416   0.776  51.867  1.00  0.00     0.167 HD
BRANCH  10  12
HETATM   12  C9  UNL     1      23.444  -0.275  53.433  1.00  0.00     0.144 A 
HETATM   13  N2  UNL     1      23.723  -0.913  54.594  1.00  0.00    -0.223 NA
HETATM   14  C8  UNL     1      22.726  -1.401  55.335  1.00  0.00     0.236 A 
HETATM   15  N1  UNL     1      21.415  -1.282  54.963  1.00  0.00    -0.241 NA
HETATM   16  C7  UNL     1      21.066  -0.665  53.831  1.00  0.00     0.077 A 
HETATM   17  C6  UNL     1      19.758  -0.496  53.394  1.00  0.00     0.072 A 
HETATM   18  C18 UNL     1      22.117  -0.168  53.083  1.00  0.00     0.075 A 
HETATM   19  C5  UNL     1      19.442   0.170  52.201  1.00  0.00     0.108 A 
HETATM   20  C20 UNL     1      20.521   0.650  51.489  1.00  0.00     0.136 A 
HETATM   21  C19 UNL     1      21.819   0.487  51.915  1.00  0.00     0.121 A 
HETATM   22  O2  UNL     1      20.186   1.300  50.330  1.00  0.00    -0.344 OA
HETATM   23  O3  UNL     1      22.768   1.022  51.098  1.00  0.00    -0.345 OA
HETATM   24  C22 UNL     1      22.435   2.103  50.254  1.00  0.00     0.202 C 
HETATM   25  C21 UNL     1      21.172   1.767  49.449  1.00  0.00     0.202 C 
BRANCH  19  26
HETATM   26  O1  UNL     1      18.105   0.193  52.004  1.00  0.00    -0.333 OA
BRANCH  26  27
HETATM   27  C3  UNL     1      17.231  -0.723  51.464  1.00  0.00     0.186 C 
HETATM   28  C4  UNL     1      16.094  -1.141  52.385  1.00  0.00     0.052 C 
BRANCH  27  29
HETATM   29  S1  UNL     1      16.634  -0.191  49.857  1.00  0.00    -0.138 SA
BRANCH  29  30
HETATM   30  C2  UNL     1      16.776   1.597  49.617  1.00  0.00     0.072 C 
HETATM   31  C1  UNL     1      15.697   2.316  50.435  1.00  0.00     0.016 C 
ENDBRANCH  29  30
ENDBRANCH  27  29
ENDBRANCH  26  27
ENDBRANCH  19  26
ENDBRANCH  10  12
ENDBRANCH   1  10
TORSDOF 6
ENDMDL
MODEL 2
REMARK VINA RESULT:      -8.6      1.639      2.135
REMARK  6 active torsions:
REMARK  status: ('A' for Active; 'I' for Inactive)
REMARK    1  A    between atoms: C2_2  and  S1_3 
REMARK    2  A    between atoms: S1_3  and  C3_4 
REMARK    3  A    between atoms: C3_4  and  O1_6 
REMARK    4  A    between atoms: O1_6  and  C5_7 
REMARK    5  A    between atoms: C9_13  and  N3_14 
REMARK    6  A    between atoms: N3_14  and  C10_15 
ROOT
HETATM    1  C10 UNL     1      26.088   0.351  52.571  1.00  0.00     0.035 A 
HETATM    2  C11 UNL     1      26.615  -0.918  52.351  1.00  0.00     0.030 A 
HETATM    3  C12 UNL     1      27.843  -1.353  52.764  1.00  0.00     0.010 A 
HETATM    4  C13 UNL     1      28.657  -0.484  53.462  1.00  0.00    -0.041 A 
HETATM    5  C14 UNL     1      29.977  -1.047  53.863  1.00  0.00     0.049 C 
HETATM    6  C15 UNL     1      28.183   0.785  53.706  1.00  0.00     0.052 A 
HETATM    7  C16 UNL     1      29.077   1.641  54.437  1.00  0.00     0.100 C 
HETATM    8  N4  UNL     1      29.804   2.348  55.026  1.00  0.00    -0.191 NA
HETATM    9  C17 UNL     1      26.953   1.178  53.277  1.00  0.00     0.052 A 
ENDROOT
BRANCH   1  10
HETATM   10  N3  UNL     1      24.801   0.739  52.106  1.00  0.00    -0.340 N 
HETATM   11  H12 UNL     1      24.839   1.171  51.167  1.00  0.00     0.167 HD
BRANCH  10  12
HETATM   12  C9  UNL     1      23.571   0.559  52.754  1.00  0.00     0.144 A 
HETATM   13  N2  UNL     1      23.524  -0.443  53.664  1.00  0.00    -0.223 NA
HETATM   14  C8  UNL     1      22.389  -0.685  54.320  1.00  0.00     0.236 A 
HETATM   15  N1  UNL     1      21.253   0.049  54.109  1.00  0.00    -0.241 NA
HETATM   16  C7  UNL     1      21.227   1.052  53.228  1.00  0.00     0.077 A 
HETATM   17  C6  UNL     1      20.117   1.846  52.968  1.00  0.00     0.072 A 
HETATM   18  C18 UNL     1      22.416   1.282  52.562  1.00  0.00     0.075 A 
HETATM   19  C5  UNL     1      20.143   2.898  52.040  1.00  0.00     0.108 A 
HETATM   20  C20 UNL     1      21.349   3.092  51.402  1.00  0.00     0.136 A 
HETATM   21  C19 UNL     1      22.453   2.310  51.654  1.00  0.00     0.121 A 
HETATM   22  O2  UNL     1      21.351   4.126  50.503  1.00  0.00    -0.344 OA
HETATM   23  O3  UNL     1      23.567   2.633  50.941  1.00  0.00    -0.345 OA
HETATM   24  C22 UNL     1      23.733   3.952  50.463  1.00  0.00     0.202 C 
HETATM   25  C21 UNL     1      22.474   4.395  49.707  1.00  0.00     0.202 C 
BRANCH  19  26
HETATM   26  O1  UNL     1      18.938   3.507  51.971  1.00  0.00    -0.333 OA
BRANCH  26  27
HETATM   27  C3  UNL     1      17.693   3.059  51.594  1.00  0.00     0.186 C 
HETATM   28  C4  UNL     1      16.562   4.054  51.814  1.00  0.00     0.052 C 
BRANCH  27  29
HETATM   29  S1  UNL     1      17.707   2.421  49.916  1.00  0.00    -0.138 SA
BRANCH  29  30
HETATM   30  C2  UNL     1      17.333   0.651  49.840  1.00  0.00     0.072 C 
HETATM   31  C1  UNL     1      17.504   0.027  51.229  1.00  0.00     0.016 C 
ENDBRANCH  29  30
ENDBRANCH  27  29
ENDBRANCH  26  27
ENDBRANCH  19  26
ENDBRANCH  10  12
ENDBRANCH   1  10
TORSDOF 6
ENDMDL
MODEL 3
REMARK VINA RESULT:      -8.4      2.107      3.632
REMARK  6 active torsions:
REMARK  status: ('A' for Active; 'I' for Inactive)
REMARK    1  A    between atoms: C2_2  and  S1_3 
REMARK    2  A    between atoms: S1_3  and  C3_4 
REMARK    3  A    between atoms: C3_4  and  O1_6 
REMARK    4  A    between atoms: O1_6  and  C5_7 
REMARK    5  A    between atoms: C9_13  and  N3_14 
REMARK    6  A    between atoms: N3_14  and  C10_15 
ROOT
HETATM    1  C10 UNL     1      26.275   1.434  53.088  1.00  0.00     0.035 A 
HETATM    2  C11 UNL     1      27.427   2.131  53.439  1.00  0.00     0.030 A 
HETATM    3  C12 UNL     1      28.667   1.584  53.614  1.00  0.00     0.010 A 
HETATM    4  C13 UNL     1      28.826   0.224  53.438  1.00  0.00    -0.041 A 
HETATM    5  C14 UNL     1      30.210  -0.279  53.657  1.00  0.00     0.049 C 
HETATM    6  C15 UNL     1      27.716  -0.512  53.091  1.00  0.00     0.052 A 
HETATM    7  C16 UNL     1      27.947  -1.921  52.920  1.00  0.00     0.100 C 
HETATM    8  N4  UNL     1      28.125  -3.073  52.788  1.00  0.00    -0.191 NA
HETATM    9  C17 UNL     1      26.498   0.072  52.925  1.00  0.00     0.052 A 
ENDROOT
BRANCH   1  10
HETATM   10  N3  UNL     1      25.012   2.069  52.928  1.00  0.00    -0.340 N 
HETATM   11  H12 UNL     1      24.654   2.455  53.818  1.00  0.00     0.167 HD
BRANCH  10  12
HETATM   12  C9  UNL     1      24.287   2.234  51.740  1.00  0.00     0.144 A 
HETATM   13  N2  UNL     1      24.877   2.998  50.789  1.00  0.00    -0.223 NA
HETATM   14  C8  UNL     1      24.251   3.211  49.632  1.00  0.00     0.236 A 
HETATM   15  N1  UNL     1      23.018   2.682  49.360  1.00  0.00    -0.241 NA
HETATM   16  C7  UNL     1      22.377   1.920  50.250  1.00  0.00     0.077 A 
HETATM   17  C6  UNL     1      21.132   1.340  50.043  1.00  0.00     0.072 A 
HETATM   18  C18 UNL     1      23.048   1.713  51.441  1.00  0.00     0.075 A 
HETATM   19  C5  UNL     1      20.504   0.536  51.006  1.00  0.00     0.108 A 
HETATM   20  C20 UNL     1      21.211   0.357  52.176  1.00  0.00     0.136 A 
HETATM   21  C19 UNL     1      22.445   0.927  52.389  1.00  0.00     0.121 A 
HETATM   22  O2  UNL     1      20.579  -0.435  53.099  1.00  0.00    -0.344 OA
HETATM   23  O3  UNL     1      23.010   0.650  53.597  1.00  0.00    -0.345 OA
HETATM   24  C22 UNL     1      22.653  -0.532  54.281  1.00  0.00     0.202 C 
HETATM   25  C21 UNL     1      21.125  -0.640  54.374  1.00  0.00     0.202 C 
BRANCH  19  26
HETATM   26  O1  UNL     1      19.304   0.103  50.560  1.00  0.00    -0.333 OA
BRANCH  26  27
HETATM   27  C3  UNL     1      18.150   0.765  50.210  1.00  0.00     0.186 C 
HETATM   28  C4  UNL     1      16.991  -0.136  49.810  1.00  0.00     0.052 C 
BRANCH  27  29
HETATM   29  S1  UNL     1      17.673   1.958  51.464  1.00  0.00    -0.138 SA
BRANCH  29  30
HETATM   30  C2  UNL     1      18.235   3.635  51.082  1.00  0.00     0.072 C 
HETATM   31  C1  UNL     1      18.374   3.801  49.565  1.00  0.00     0.016 C 
ENDBRANCH  29  30
ENDBRANCH  27  29
ENDBRANCH  26  27
ENDBRANCH  19  26
ENDBRANCH  10  12
ENDBRANCH   1  10
TORSDOF 6
ENDMDL
MODEL 4
REMARK VINA RESULT:      -8.1      2.459      3.232
REMARK  6 active torsions:
REMARK  status: ('A' for Active; 'I' for Inactive)
REMARK    1  A    between atoms: C2_2  and  S1_3 
REMARK    2  A    between atoms: S1_3  and  C3_4 
REMARK    3  A    between atoms: C3_4  and  O1_6 
REMARK    4  A    between atoms: O1_6  and  C5_7 
REMARK    5  A    between atoms: C9_13  and  N3_14 
REMARK    6  A    between atoms: N3_14  and  C10_15 
ROOT
HETATM    1  C10 UNL     1      26.318   1.237  52.731  1.00  0.00     0.035 A 
HETATM    2  C11 UNL     1      27.400   2.026  53.112  1.00  0.00     0.030 A 
HETATM    3  C12 UNL     1      28.648   1.567  53.429  1.00  0.00     0.010 A 
HETATM    4  C13 UNL     1      28.891   0.210  53.379  1.00  0.00    -0.041 A 
HETATM    5  C14 UNL     1      30.277  -0.192  53.747  1.00  0.00     0.049 C 
HETATM    6  C15 UNL     1      27.854  -0.615  53.007  1.00  0.00     0.052 A 
HETATM    7  C16 UNL     1      28.171  -2.017  52.973  1.00  0.00     0.100 C 
HETATM    8  N4  UNL     1      28.420  -3.163  52.951  1.00  0.00    -0.191 NA
HETATM    9  C17 UNL     1      26.625  -0.118  52.698  1.00  0.00     0.052 A 
ENDROOT
BRANCH   1  10
HETATM   10  N3  UNL     1      25.041   1.782  52.419  1.00  0.00    -0.340 N 
HETATM   11  H12 UNL     1      25.114   2.674  51.902  1.00  0.00     0.167 HD
BRANCH  10  12
HETATM   12  C9  UNL     1      23.787   1.225  52.702  1.00  0.00     0.144 A 
HETATM   13  N2  UNL     1      23.795  -0.049  53.159  1.00  0.00    -0.223 NA
HETATM   14  C8  UNL     1      22.642  -0.655  53.445  1.00  0.00     0.236 A 
HETATM   15  N1  UNL     1      21.432  -0.032  53.294  1.00  0.00    -0.241 NA
HETATM   16  C7  UNL     1      21.349   1.224  52.848  1.00  0.00     0.077 A 
HETATM   17  C6  UNL     1      20.161   1.925  52.680  1.00  0.00     0.072 A 
HETATM   18  C18 UNL     1      22.558   1.829  52.560  1.00  0.00     0.075 A 
HETATM   19  C5  UNL     1      20.126   3.250  52.220  1.00  0.00     0.108 A 
HETATM   20  C20 UNL     1      21.354   3.813  51.947  1.00  0.00     0.136 A 
HETATM   21  C19 UNL     1      22.535   3.125  52.112  1.00  0.00     0.121 A 
HETATM   22  O2  UNL     1      21.294   5.107  51.502  1.00  0.00    -0.344 OA
HETATM   23  O3  UNL     1      23.661   3.825  51.799  1.00  0.00    -0.345 OA
HETATM   24  C22 UNL     1      23.651   5.235  51.874  1.00  0.00     0.202 C 
HETATM   25  C21 UNL     1      22.450   5.790  51.096  1.00  0.00     0.202 C 
BRANCH  19  26
HETATM   26  O1  UNL     1      18.853   3.696  52.139  1.00  0.00    -0.333 OA
BRANCH  26  27
HETATM   27  C3  UNL     1      17.853   3.488  51.216  1.00  0.00     0.186 C 
HETATM   28  C4  UNL     1      16.478   3.984  51.639  1.00  0.00     0.052 C 
BRANCH  27  29
HETATM   29  S1  UNL     1      18.320   4.105  49.596  1.00  0.00    -0.138 SA
BRANCH  29  30
HETATM   30  C2  UNL     1      18.810   2.783  48.461  1.00  0.00     0.072 C 
HETATM   31  C1  UNL     1      20.320   2.545  48.565  1.00  0.00     0.016 C 
ENDBRANCH  29  30
ENDBRANCH  27  29
ENDBRANCH  26  27
ENDBRANCH  19  26
ENDBRANCH  10  12
ENDBRANCH   1  10
TORSDOF 6
ENDMDL
MODEL 5
REMARK VINA RESULT:      -8.0      1.484      2.274
REMARK  6 active torsions:
REMARK  status: ('A' for Active; 'I' for Inactive)
REMARK    1  A    between atoms: C2_2  and  S1_3 
REMARK    2  A    between atoms: S1_3  and  C3_4 
REMARK    3  A    between atoms: C3_4  and  O1_6 
REMARK    4  A    between atoms: O1_6  and  C5_7 
REMARK    5  A    between atoms: C9_13  and  N3_14 
REMARK    6  A    between atoms: N3_14  and  C10_15 
ROOT
HETATM    1  C10 UNL     1      25.344   0.604  52.750  1.00  0.00     0.035 A 
HETATM    2  C11 UNL     1      26.117   1.700  53.122  1.00  0.00     0.030 A 
HETATM    3  C12 UNL     1      27.441   1.663  53.460  1.00  0.00     0.010 A 
HETATM    4  C13 UNL     1      28.098   0.449  53.443  1.00  0.00    -0.041 A 
HETATM    5  C14 UNL     1      29.535   0.510  53.833  1.00  0.00     0.049 C 
HETATM    6  C15 UNL     1      27.378  -0.666  53.082  1.00  0.00     0.052 A 
HETATM    7  C16 UNL     1      28.119  -1.898  53.083  1.00  0.00     0.100 C 
HETATM    8  N4  UNL     1      28.715  -2.909  53.089  1.00  0.00    -0.191 NA
HETATM    9  C17 UNL     1      26.060  -0.586  52.752  1.00  0.00     0.052 A 
ENDROOT
BRANCH   1  10
HETATM   10  N3  UNL     1      23.965   0.715  52.416  1.00  0.00    -0.340 N 
HETATM   11  H12 UNL     1      23.815   1.282  51.564  1.00  0.00     0.167 HD
BRANCH  10  12
HETATM   12  C9  UNL     1      22.879   0.127  53.077  1.00  0.00     0.144 A 
HETATM   13  N2  UNL     1      23.157  -0.458  54.267  1.00  0.00    -0.223 NA
HETATM   14  C8  UNL     1      22.180  -1.046  54.957  1.00  0.00     0.236 A 
HETATM   15  N1  UNL     1      20.889  -1.085  54.507  1.00  0.00    -0.241 NA
HETATM   16  C7  UNL     1      20.541  -0.529  53.344  1.00  0.00     0.077 A 
HETATM   17  C6  UNL     1      19.252  -0.517  52.827  1.00  0.00     0.072 A 
HETATM   18  C18 UNL     1      21.572   0.076  52.648  1.00  0.00     0.075 A 
HETATM   19  C5  UNL     1      18.934   0.091  51.604  1.00  0.00     0.108 A 
HETATM   20  C20 UNL     1      19.992   0.682  50.947  1.00  0.00     0.136 A 
HETATM   21  C19 UNL     1      21.272   0.676  51.452  1.00  0.00     0.121 A 
HETATM   22  O2  UNL     1      19.657   1.272  49.757  1.00  0.00    -0.344 OA
HETATM   23  O3  UNL     1      22.202   1.305  50.680  1.00  0.00    -0.345 OA
HETATM   24  C22 UNL     1      21.799   2.329  49.795  1.00  0.00     0.202 C 
HETATM   25  C21 UNL     1      20.634   1.838  48.926  1.00  0.00     0.202 C 
BRANCH  19  26
HETATM   26  O1  UNL     1      17.618  -0.043  51.329  1.00  0.00    -0.333 OA
BRANCH  26  27
HETATM   27  C3  UNL     1      16.563   0.839  51.386  1.00  0.00     0.186 C 
HETATM   28  C4  UNL     1      16.025   1.281  50.033  1.00  0.00     0.052 C 
BRANCH  27  29
HETATM   29  S1  UNL     1      15.259   0.232  52.461  1.00  0.00    -0.138 SA
BRANCH  29  30
HETATM   30  C2  UNL     1      14.518  -1.306  51.859  1.00  0.00     0.072 C 
HETATM   31  C1  UNL     1      15.353  -2.501  52.332  1.00  0.00     0.016 C 
ENDBRANCH  29  30
ENDBRANCH  27  29
ENDBRANCH  26  27
ENDBRANCH  19  26
ENDBRANCH  10  12
ENDBRANCH   1  10
TORSDOF 6
ENDMDL
MODEL 6
REMARK VINA RESULT:      -8.0      1.531      3.163
REMARK  6 active torsions:
REMARK  status: ('A' for Active; 'I' for Inactive)
REMARK    1  A    between atoms: C2_2  and  S1_3 
REMARK    2  A    between atoms: S1_3  and  C3_4 
REMARK    3  A    between atoms: C3_4  and  O1_6 
REMARK    4  A    between atoms: O1_6  and  C5_7 
REMARK    5  A    between atoms: C9_13  and  N3_14 
REMARK    6  A    between atoms: N3_14  and  C10_15 
ROOT
HETATM    1  C10 UNL     1      25.533   0.777  53.122  1.00  0.00     0.035 A 
HETATM    2  C11 UNL     1      25.902  -0.498  52.703  1.00  0.00     0.030 A 
HETATM    3  C12 UNL     1      27.143  -1.054  52.839  1.00  0.00     0.010 A 
HETATM    4  C13 UNL     1      28.142  -0.313  53.437  1.00  0.00    -0.041 A 
HETATM    5  C14 UNL     1      29.459  -1.001  53.534  1.00  0.00     0.049 C 
HETATM    6  C15 UNL     1      27.829   0.956  53.870  1.00  0.00     0.052 A 
HETATM    7  C16 UNL     1      28.912   1.674  54.486  1.00  0.00     0.100 C 
HETATM    8  N4  UNL     1      29.792   2.271  54.981  1.00  0.00    -0.191 NA
HETATM    9  C17 UNL     1      26.580   1.472  53.716  1.00  0.00     0.052 A 
ENDROOT
BRANCH   1  10
HETATM   10  N3  UNL     1      24.220   1.296  52.942  1.00  0.00    -0.340 N 
HETATM   11  H12 UNL     1      23.713   1.390  53.838  1.00  0.00     0.167 HD
BRANCH  10  12
HETATM   12  C9  UNL     1      23.620   1.696  51.741  1.00  0.00     0.144 A 
HETATM   13  N2  UNL     1      24.388   2.452  50.920  1.00  0.00    -0.223 NA
HETATM   14  C8  UNL     1      23.889   2.881  49.760  1.00  0.00     0.236 A 
HETATM   15  N1  UNL     1      22.615   2.584  49.359  1.00  0.00    -0.241 NA
HETATM   16  C7  UNL     1      21.802   1.844  50.118  1.00  0.00     0.077 A 
HETATM   17  C6  UNL     1      20.502   1.493  49.774  1.00  0.00     0.072 A 
HETATM   18  C18 UNL     1      22.343   1.411  51.314  1.00  0.00     0.075 A 
HETATM   19  C5  UNL     1      19.691   0.702  50.600  1.00  0.00     0.108 A 
HETATM   20  C20 UNL     1      20.272   0.293  51.781  1.00  0.00     0.136 A 
HETATM   21  C19 UNL     1      21.559   0.636  52.129  1.00  0.00     0.121 A 
HETATM   22  O2  UNL     1      19.462  -0.481  52.569  1.00  0.00    -0.344 OA
HETATM   23  O3  UNL     1      21.983   0.149  53.328  1.00  0.00    -0.345 OA
HETATM   24  C22 UNL     1      21.403  -1.027  53.850  1.00  0.00     0.202 C 
HETATM   25  C21 UNL     1      19.874  -0.902  53.842  1.00  0.00     0.202 C 
BRANCH  19  26
HETATM   26  O1  UNL     1      18.476   0.512  50.039  1.00  0.00    -0.333 OA
BRANCH  26  27
HETATM   27  C3  UNL     1      17.216   0.943  50.387  1.00  0.00     0.186 C 
HETATM   28  C4  UNL     1      16.462   1.673  49.284  1.00  0.00     0.052 C 
BRANCH  27  29
HETATM   29  S1  UNL     1      16.242  -0.387  51.098  1.00  0.00    -0.138 SA
BRANCH  29  30
HETATM   30  C2  UNL     1      15.464   0.079  52.665  1.00  0.00     0.072 C 
HETATM   31  C1  UNL     1      14.077   0.674  52.396  1.00  0.00     0.016 C 
ENDBRANCH  29  30
ENDBRANCH  27  29
ENDBRANCH  26  27
ENDBRANCH  19  26
ENDBRANCH  10  12
ENDBRANCH   1  10
TORSDOF 6
ENDMDL
MODEL 7
REMARK VINA RESULT:      -7.7      4.421      5.852
REMARK  6 active torsions:
REMARK  status: ('A' for Active; 'I' for Inactive)
REMARK    1  A    between atoms: C2_2  and  S1_3 
REMARK    2  A    between atoms: S1_3  and  C3_4 
REMARK    3  A    between atoms: C3_4  and  O1_6 
REMARK    4  A    between atoms: O1_6  and  C5_7 
REMARK    5  A    between atoms: C9_13  and  N3_14 
REMARK    6  A    between atoms: N3_14  and  C10_15 
ROOT
HETATM    1  C10 UNL     1      26.699   4.597  49.182  1.00  0.00     0.035 A 
HETATM    2  C11 UNL     1      25.859   5.651  49.531  1.00  0.00     0.030 A 
HETATM    3  C12 UNL     1      26.100   6.975  49.291  1.00  0.00     0.010 A 
HETATM    4  C13 UNL     1      27.269   7.333  48.651  1.00  0.00    -0.041 A 
HETATM    5  C14 UNL     1      27.444   8.797  48.440  1.00  0.00     0.049 C 
HETATM    6  C15 UNL     1      28.135   6.328  48.285  1.00  0.00     0.052 A 
HETATM    7  C16 UNL     1      29.333   6.766  47.620  1.00  0.00     0.100 C 
HETATM    8  N4  UNL     1      30.317   7.116  47.086  1.00  0.00    -0.191 NA
HETATM    9  C17 UNL     1      27.857   5.021  48.541  1.00  0.00     0.052 A 
ENDROOT
BRANCH   1  10
HETATM   10  N3  UNL     1      26.387   3.239  49.469  1.00  0.00    -0.340 N 
HETATM   11  H12 UNL     1      26.366   2.655  48.615  1.00  0.00     0.167 HD
BRANCH  10  12
HETATM   12  C9  UNL     1      26.163   2.664  50.727  1.00  0.00     0.144 A 
HETATM   13  N2  UNL     1      27.216   2.678  51.579  1.00  0.00    -0.223 NA
HETATM   14  C8  UNL     1      27.088   2.144  52.795  1.00  0.00     0.236 A 
HETATM   15  N1  UNL     1      25.920   1.575  53.223  1.00  0.00    -0.241 NA
HETATM   16  C7  UNL     1      24.841   1.527  52.437  1.00  0.00     0.077 A 
HETATM   17  C6  UNL     1      23.619   0.977  52.805  1.00  0.00     0.072 A 
HETATM   18  C18 UNL     1      24.999   2.088  51.183  1.00  0.00     0.075 A 
HETATM   19  C5  UNL     1      22.510   0.961  51.946  1.00  0.00     0.108 A 
HETATM   20  C20 UNL     1      22.714   1.532  50.708  1.00  0.00     0.136 A 
HETATM   21  C19 UNL     1      23.920   2.079  50.336  1.00  0.00     0.121 A 
HETATM   22  O2  UNL     1      21.616   1.507  49.889  1.00  0.00    -0.344 OA
HETATM   23  O3  UNL     1      23.956   2.604  49.080  1.00  0.00    -0.345 OA
HETATM   24  C22 UNL     1      22.762   3.058  48.478  1.00  0.00     0.202 C 
HETATM   25  C21 UNL     1      21.686   1.967  48.566  1.00  0.00     0.202 C 
BRANCH  19  26
HETATM   26  O1  UNL     1      21.452   0.366  52.541  1.00  0.00    -0.333 OA
BRANCH  26  27
HETATM   27  C3  UNL     1      20.180   0.806  52.826  1.00  0.00     0.186 C 
HETATM   28  C4  UNL     1      19.985   2.312  52.720  1.00  0.00     0.052 C 
BRANCH  27  29
HETATM   29  S1  UNL     1      18.948  -0.097  51.883  1.00  0.00    -0.138 SA
BRANCH  29  30
HETATM   30  C2  UNL     1      17.548  -0.633  52.897  1.00  0.00     0.072 C 
HETATM   31  C1  UNL     1      17.782  -2.067  53.385  1.00  0.00     0.016 C 
ENDBRANCH  29  30
ENDBRANCH  27  29
ENDBRANCH  26  27
ENDBRANCH  19  26
ENDBRANCH  10  12
ENDBRANCH   1  10
TORSDOF 6
ENDMDL
MODEL 8
REMARK VINA RESULT:      -7.7      2.839      4.149
REMARK  6 active torsions:
REMARK  status: ('A' for Active; 'I' for Inactive)
REMARK    1  A    between atoms: C2_2  and  S1_3 
REMARK    2  A    between atoms: S1_3  and  C3_4 
REMARK    3  A    between atoms: C3_4  and  O1_6 
REMARK    4  A    between atoms: O1_6  and  C5_7 
REMARK    5  A    between atoms: C9_13  and  N3_14 
REMARK    6  A    between atoms: N3_14  and  C10_15 
ROOT
HETATM    1  C10 UNL     1      25.331   0.898  53.468  1.00  0.00     0.035 A 
HETATM    2  C11 UNL     1      25.610  -0.377  52.983  1.00  0.00     0.030 A 
HETATM    3  C12 UNL     1      26.842  -0.968  52.960  1.00  0.00     0.010 A 
HETATM    4  C13 UNL     1      27.925  -0.268  53.451  1.00  0.00    -0.041 A 
HETATM    5  C14 UNL     1      29.224  -0.993  53.377  1.00  0.00     0.049 C 
HETATM    6  C15 UNL     1      27.703   0.998  53.942  1.00  0.00     0.052 A 
HETATM    7  C16 UNL     1      28.871   1.673  54.440  1.00  0.00     0.100 C 
HETATM    8  N4  UNL     1      29.821   2.234  54.839  1.00  0.00    -0.191 NA
HETATM    9  C17 UNL     1      26.460   1.550  53.948  1.00  0.00     0.052 A 
ENDROOT
BRANCH   1  10
HETATM   10  N3  UNL     1      24.021   1.455  53.456  1.00  0.00    -0.340 N 
HETATM   11  H12 UNL     1      23.964   2.328  54.007  1.00  0.00     0.167 HD
BRANCH  10  12
HETATM   12  C9  UNL     1      22.897   0.971  52.774  1.00  0.00     0.144 A 
HETATM   13  N2  UNL     1      22.117   0.103  53.461  1.00  0.00    -0.223 NA
HETATM   14  C8  UNL     1      21.031  -0.410  52.882  1.00  0.00     0.236 A 
HETATM   15  N1  UNL     1      20.667  -0.090  51.602  1.00  0.00    -0.241 NA
HETATM   16  C7  UNL     1      21.388   0.759  50.865  1.00  0.00     0.077 A 
HETATM   17  C6  UNL     1      21.076   1.139  49.566  1.00  0.00     0.072 A 
HETATM   18  C18 UNL     1      22.508   1.277  51.489  1.00  0.00     0.075 A 
HETATM   19  C5  UNL     1      21.861   2.045  48.836  1.00  0.00     0.108 A 
HETATM   20  C20 UNL     1      22.965   2.536  49.499  1.00  0.00     0.136 A 
HETATM   21  C19 UNL     1      23.280   2.165  50.786  1.00  0.00     0.121 A 
HETATM   22  O2  UNL     1      23.713   3.421  48.768  1.00  0.00    -0.344 OA
HETATM   23  O3  UNL     1      24.403   2.743  51.296  1.00  0.00    -0.345 OA
HETATM   24  C22 UNL     1      24.835   3.991  50.798  1.00  0.00     0.202 C 
HETATM   25  C21 UNL     1      24.916   3.941  49.267  1.00  0.00     0.202 C 
BRANCH  19  26
HETATM   26  O1  UNL     1      21.345   2.240  47.602  1.00  0.00    -0.333 OA
BRANCH  26  27
HETATM   27  C3  UNL     1      20.759   3.332  47.004  1.00  0.00     0.186 C 
HETATM   28  C4  UNL     1      20.351   4.444  47.960  1.00  0.00     0.052 C 
BRANCH  27  29
HETATM   29  S1  UNL     1      21.757   3.948  45.645  1.00  0.00    -0.138 SA
BRANCH  29  30
HETATM   30  C2  UNL     1      22.005   5.740  45.718  1.00  0.00     0.072 C 
HETATM   31  C1  UNL     1      20.933   6.445  44.880  1.00  0.00     0.016 C 
ENDBRANCH  29  30
ENDBRANCH  27  29
ENDBRANCH  26  27
ENDBRANCH  19  26
ENDBRANCH  10  12
ENDBRANCH   1  10
TORSDOF 6
ENDMDL
MODEL 9
REMARK VINA RESULT:      -7.6      3.093      8.400
REMARK  6 active torsions:
REMARK  status: ('A' for Active; 'I' for Inactive)
REMARK    1  A    between atoms: C2_2  and  S1_3 
REMARK    2  A    between atoms: S1_3  and  C3_4 
REMARK    3  A    between atoms: C3_4  and  O1_6 
REMARK    4  A    between atoms: O1_6  and  C5_7 
REMARK    5  A    between atoms: C9_13  and  N3_14 
REMARK    6  A    between atoms: N3_14  and  C10_15 
ROOT
HETATM    1  C10 UNL     1      17.854  -1.624  53.395  1.00  0.00     0.035 A 
HETATM    2  C11 UNL     1      17.971  -2.930  53.862  1.00  0.00     0.030 A 
HETATM    3  C12 UNL     1      17.109  -3.955  53.588  1.00  0.00     0.010 A 
HETATM    4  C13 UNL     1      16.016  -3.707  52.783  1.00  0.00    -0.041 A 
HETATM    5  C14 UNL     1      15.133  -4.883  52.548  1.00  0.00     0.049 C 
HETATM    6  C15 UNL     1      15.853  -2.430  52.295  1.00  0.00     0.052 A 
HETATM    7  C16 UNL     1      14.697  -2.238  51.462  1.00  0.00     0.100 C 
HETATM    8  N4  UNL     1      13.751  -2.071  50.789  1.00  0.00    -0.191 NA
HETATM    9  C17 UNL     1      16.736  -1.438  52.591  1.00  0.00     0.052 A 
ENDROOT
BRANCH   1  10
HETATM   10  N3  UNL     1      18.788  -0.603  53.726  1.00  0.00    -0.340 N 
HETATM   11  H12 UNL     1      18.322   0.265  54.042  1.00  0.00     0.167 HD
BRANCH  10  12
HETATM   12  C9  UNL     1      20.186  -0.687  53.699  1.00  0.00     0.144 A 
HETATM   13  N2  UNL     1      20.742  -1.578  54.554  1.00  0.00    -0.223 NA
HETATM   14  C8  UNL     1      22.068  -1.715  54.596  1.00  0.00     0.236 A 
HETATM   15  N1  UNL     1      22.903  -0.981  53.798  1.00  0.00    -0.241 NA
HETATM   16  C7  UNL     1      22.425  -0.084  52.931  1.00  0.00     0.077 A 
HETATM   17  C6  UNL     1      23.207   0.688  52.081  1.00  0.00     0.072 A 
HETATM   18  C18 UNL     1      21.048   0.037  52.906  1.00  0.00     0.075 A 
HETATM   19  C5  UNL     1      22.657   1.610  51.178  1.00  0.00     0.108 A 
HETATM   20  C20 UNL     1      21.281   1.696  51.188  1.00  0.00     0.136 A 
HETATM   21  C19 UNL     1      20.499   0.934  52.025  1.00  0.00     0.121 A 
HETATM   22  O2  UNL     1      20.767   2.599  50.296  1.00  0.00    -0.344 OA
HETATM   23  O3  UNL     1      19.158   1.138  51.909  1.00  0.00    -0.345 OA
HETATM   24  C22 UNL     1      18.626   1.617  50.692  1.00  0.00     0.202 C 
HETATM   25  C21 UNL     1      19.392   2.869  50.246  1.00  0.00     0.202 C 
BRANCH  19  26
HETATM   26  O1  UNL     1      23.630   2.233  50.477  1.00  0.00    -0.333 OA
BRANCH  26  27
HETATM   27  C3  UNL     1      24.194   3.483  50.582  1.00  0.00     0.186 C 
HETATM   28  C4  UNL     1      23.712   4.304  51.770  1.00  0.00     0.052 C 
BRANCH  27  29
HETATM   29  S1  UNL     1      25.985   3.403  50.505  1.00  0.00    -0.138 SA
BRANCH  29  30
HETATM   30  C2  UNL     1      26.649   1.898  51.262  1.00  0.00     0.072 C 
HETATM   31  C1  UNL     1      26.694   2.063  52.785  1.00  0.00     0.016 C 
ENDBRANCH  29  30
ENDBRANCH  27  29
ENDBRANCH  26  27
ENDBRANCH  19  26
ENDBRANCH  10  12
ENDBRANCH   1  10
TORSDOF 6
ENDMDL
