MODEL 1
REMARK VINA RESULT:      -8.5      0.000      0.000
REMARK  7 active torsions:
REMARK  status: ('A' for Active; 'I' for Inactive)
REMARK    1  A    between atoms: O1_2  and  C2_3 
REMARK    2  A    between atoms: C4_5  and  N1_6 
REMARK    3  A    between atoms: N1_6  and  O2_7 
REMARK    4  A    between atoms: N1_6  and  C6_9 
REMARK    5  A    between atoms: C10_13  and  N2_14 
REMARK       I    between atoms: N2_14  and  C11_15 
REMARK       I    between atoms: C11_15  and  N3_17 
REMARK    6  A    between atoms: N3_17  and  C12_18 
REMARK    7  A    between atoms: C15_21  and  O4_22 
ROOT
HETATM    1  C6  UNL     1      24.834   3.248  50.732  1.00  0.00     0.060 A 
HETATM    2  C7  UNL     1      23.738   3.154  49.920  1.00  0.00     0.032 A 
HETATM    3  C8  UNL     1      23.647   4.047  48.882  1.00  0.00     0.005 A 
HETATM    4  C9  UNL     1      24.634   4.983  48.698  1.00  0.00     0.029 A 
HETATM    5  C10 UNL     1      25.746   5.100  49.497  1.00  0.00     0.038 A 
HETATM    6  C19 UNL     1      25.814   4.194  50.530  1.00  0.00     0.061 A 
ENDROOT
BRANCH   1   7
HETATM    7  N1  UNL     1      24.988   2.353  51.825  1.00  0.00    -0.245 N 
BRANCH   7   8
HETATM    8  C4  UNL     1      25.259   0.957  51.944  1.00  0.00     0.193 A 
HETATM    9  C3  UNL     1      26.570   0.683  52.611  1.00  0.00     0.044 A 
HETATM   10  C2  UNL     1      26.459  -0.037  53.740  1.00  0.00     0.080 A 
HETATM   11  C23 UNL     1      25.041  -0.347  53.983  1.00  0.00     0.039 A 
HETATM   12  C20 UNL     1      24.314   0.267  52.879  1.00  0.00     0.074 A 
HETATM   13  C22 UNL     1      24.366  -1.004  54.914  1.00  0.00     0.101 A 
HETATM   14  N4  UNL     1      23.036   0.209  52.747  1.00  0.00    -0.271 NA
HETATM   15  C21 UNL     1      22.187  -0.482  53.701  1.00  0.00     0.270 A 
HETATM   16  N5  UNL     1      22.953  -1.062  54.758  1.00  0.00    -0.380 N 
HETATM   17  H24 UNL     1      22.393  -1.578  55.483  1.00  0.00     0.160 HD
BRANCH  10  18
HETATM   18  O1  UNL     1      27.419  -0.499  54.643  1.00  0.00    -0.355 OA
HETATM   19  C1  UNL     1      28.701   0.090  54.781  1.00  0.00     0.210 C 
ENDBRANCH  10  18
ENDBRANCH   7   8
BRANCH   7  20
HETATM   20  O2  UNL     1      24.876   2.786  53.103  1.00  0.00    -0.282 OA
HETATM   21  C5  UNL     1      23.888   3.738  53.223  1.00  0.00     0.238 C 
ENDBRANCH   7  20
ENDBRANCH   1   7
BRANCH   5  22
HETATM   22  N2  UNL     1      26.800   6.033  49.371  1.00  0.00    -0.309 N 
HETATM   23  C11 UNL     1      28.101   5.828  48.852  1.00  0.00     0.325 C 
HETATM   24  O3  UNL     1      28.436   4.703  48.430  1.00  0.00    -0.247 OA
HETATM   25  N3  UNL     1      29.105   6.827  48.761  1.00  0.00    -0.309 N 
HETATM   26  H13 UNL     1      28.864   7.797  49.109  1.00  0.00     0.170 HD
HETATM   27  H12 UNL     1      26.676   7.010  49.677  1.00  0.00     0.170 HD
BRANCH  25  28
HETATM   28  C12 UNL     1      30.374   6.477  48.215  1.00  0.00     0.036 A 
HETATM   29  C13 UNL     1      31.264   6.105  49.213  1.00  0.00     0.032 A 
HETATM   30  C14 UNL     1      32.560   5.722  48.921  1.00  0.00     0.039 A 
HETATM   31  C15 UNL     1      32.979   5.712  47.599  1.00  0.00     0.068 A 
HETATM   32  C17 UNL     1      32.085   6.084  46.622  1.00  0.00     0.039 A 
HETATM   33  C18 UNL     1      30.798   6.466  46.888  1.00  0.00     0.032 A 
BRANCH  31  34
HETATM   34  O4  UNL     1      34.269   5.334  47.266  1.00  0.00    -0.356 OA
HETATM   35  C16 UNL     1      34.690   4.008  47.536  1.00  0.00     0.210 C 
ENDBRANCH  31  34
ENDBRANCH  25  28
ENDBRANCH   5  22
TORSDOF 7
ENDMDL
MODEL 2
REMARK VINA RESULT:      -8.4      0.796      1.186
REMARK  7 active torsions:
REMARK  status: ('A' for Active; 'I' for Inactive)
REMARK    1  A    between atoms: O1_2  and  C2_3 
REMARK    2  A    between atoms: C4_5  and  N1_6 
REMARK    3  A    between atoms: N1_6  and  O2_7 
REMARK    4  A    between atoms: N1_6  and  C6_9 
REMARK    5  A    between atoms: C10_13  and  N2_14 
REMARK       I    between atoms: N2_14  and  C11_15 
REMARK       I    between atoms: C11_15  and  N3_17 
REMARK    6  A    between atoms: N3_17  and  C12_18 
REMARK    7  A    between atoms: C15_21  and  O4_22 
ROOT
HETATM    1  C6  UNL     1      24.718   2.979  50.835  1.00  0.00     0.060 A 
HETATM    2  C7  UNL     1      23.615   2.758  50.059  1.00  0.00     0.032 A 
HETATM    3  C8  UNL     1      23.409   3.610  49.003  1.00  0.00     0.005 A 
HETATM    4  C9  UNL     1      24.295   4.632  48.767  1.00  0.00     0.029 A 
HETATM    5  C10 UNL     1      25.411   4.878  49.530  1.00  0.00     0.038 A 
HETATM    6  C19 UNL     1      25.595   4.011  50.582  1.00  0.00     0.061 A 
ENDROOT
BRANCH   1   7
HETATM    7  N1  UNL     1      24.988   2.133  51.945  1.00  0.00    -0.245 N 
BRANCH   7   8
HETATM    8  C4  UNL     1      25.296   0.748  52.094  1.00  0.00     0.193 A 
HETATM    9  C3  UNL     1      26.660   0.522  52.666  1.00  0.00     0.044 A 
HETATM   10  C2  UNL     1      26.652  -0.156  53.826  1.00  0.00     0.080 A 
HETATM   11  C23 UNL     1      25.264  -0.480  54.191  1.00  0.00     0.039 A 
HETATM   12  C20 UNL     1      24.441   0.078  53.124  1.00  0.00     0.074 A 
HETATM   13  C22 UNL     1      24.676  -1.113  55.195  1.00  0.00     0.101 A 
HETATM   14  N4  UNL     1      23.157  -0.007  53.095  1.00  0.00    -0.271 NA
HETATM   15  C21 UNL     1      22.400  -0.676  54.137  1.00  0.00     0.270 A 
HETATM   16  N5  UNL     1      23.256  -1.201  55.152  1.00  0.00    -0.380 N 
HETATM   17  H24 UNL     1      22.765  -1.699  55.937  1.00  0.00     0.160 HD
BRANCH  10  18
HETATM   18  O1  UNL     1      27.688  -0.566  54.667  1.00  0.00    -0.355 OA
HETATM   19  C1  UNL     1      29.047  -0.226  54.448  1.00  0.00     0.210 C 
ENDBRANCH  10  18
ENDBRANCH   7   8
BRANCH   7  20
HETATM   20  O2  UNL     1      24.986   2.617  53.209  1.00  0.00    -0.282 OA
HETATM   21  C5  UNL     1      24.034   3.600  53.365  1.00  0.00     0.238 C 
ENDBRANCH   7  20
ENDBRANCH   1   7
BRANCH   5  22
HETATM   22  N2  UNL     1      26.365   5.905  49.351  1.00  0.00    -0.309 N 
HETATM   23  C11 UNL     1      27.688   5.802  48.859  1.00  0.00     0.325 C 
HETATM   24  O3  UNL     1      28.145   4.692  48.518  1.00  0.00    -0.247 OA
HETATM   25  N3  UNL     1      28.586   6.892  48.709  1.00  0.00    -0.309 N 
HETATM   26  H13 UNL     1      28.240   7.853  48.988  1.00  0.00     0.170 HD
HETATM   27  H12 UNL     1      26.136   6.882  49.589  1.00  0.00     0.170 HD
BRANCH  25  28
HETATM   28  C12 UNL     1      29.892   6.640  48.200  1.00  0.00     0.036 A 
HETATM   29  C13 UNL     1      30.061   7.217  46.948  1.00  0.00     0.032 A 
HETATM   30  C14 UNL     1      31.252   7.105  46.255  1.00  0.00     0.039 A 
HETATM   31  C15 UNL     1      32.301   6.399  46.825  1.00  0.00     0.068 A 
HETATM   32  C17 UNL     1      32.117   5.833  48.065  1.00  0.00     0.039 A 
HETATM   33  C18 UNL     1      30.948   5.931  48.769  1.00  0.00     0.032 A 
BRANCH  31  34
HETATM   34  O4  UNL     1      33.510   6.264  46.162  1.00  0.00    -0.356 OA
HETATM   35  C16 UNL     1      33.508   5.867  44.802  1.00  0.00     0.210 C 
ENDBRANCH  31  34
ENDBRANCH  25  28
ENDBRANCH   5  22
TORSDOF 7
ENDMDL
MODEL 3
REMARK VINA RESULT:      -8.4      5.034      9.948
REMARK  7 active torsions:
REMARK  status: ('A' for Active; 'I' for Inactive)
REMARK    1  A    between atoms: O1_2  and  C2_3 
REMARK    2  A    between atoms: C4_5  and  N1_6 
REMARK    3  A    between atoms: N1_6  and  O2_7 
REMARK    4  A    between atoms: N1_6  and  C6_9 
REMARK    5  A    between atoms: C10_13  and  N2_14 
REMARK       I    between atoms: N2_14  and  C11_15 
REMARK       I    between atoms: C11_15  and  N3_17 
REMARK    6  A    between atoms: N3_17  and  C12_18 
REMARK    7  A    between atoms: C15_21  and  O4_22 
ROOT
HETATM    1  C6  UNL     1      23.885   2.065  50.838  1.00  0.00     0.060 A 
HETATM    2  C7  UNL     1      24.404   3.101  50.114  1.00  0.00     0.032 A 
HETATM    3  C8  UNL     1      23.661   3.563  49.057  1.00  0.00     0.005 A 
HETATM    4  C9  UNL     1      22.451   2.984  48.768  1.00  0.00     0.029 A 
HETATM    5  C10 UNL     1      21.905   1.942  49.478  1.00  0.00     0.038 A 
HETATM    6  C19 UNL     1      22.668   1.497  50.532  1.00  0.00     0.061 A 
ENDROOT
BRANCH   1   7
HETATM    7  N1  UNL     1      24.605   1.540  51.945  1.00  0.00    -0.245 N 
BRANCH   7   8
HETATM    8  C4  UNL     1      25.093   0.246  52.297  1.00  0.00     0.193 A 
HETATM    9  C3  UNL     1      26.483   0.288  52.848  1.00  0.00     0.044 A 
HETATM   10  C2  UNL     1      26.581  -0.192  54.099  1.00  0.00     0.080 A 
HETATM   11  C23 UNL     1      25.253  -0.626  54.560  1.00  0.00     0.039 A 
HETATM   12  C20 UNL     1      24.348  -0.353  53.450  1.00  0.00     0.074 A 
HETATM   13  C22 UNL     1      24.768  -1.160  55.671  1.00  0.00     0.101 A 
HETATM   14  N4  UNL     1      23.086  -0.603  53.481  1.00  0.00    -0.271 NA
HETATM   15  C21 UNL     1      22.439  -1.187  54.641  1.00  0.00     0.270 A 
HETATM   16  N5  UNL     1      23.372  -1.432  55.694  1.00  0.00    -0.380 N 
HETATM   17  H24 UNL     1      22.962  -1.856  56.564  1.00  0.00     0.160 HD
BRANCH  10  18
HETATM   18  O1  UNL     1      27.676  -0.329  54.956  1.00  0.00    -0.355 OA
HETATM   19  C1  UNL     1      28.998   0.025  54.589  1.00  0.00     0.210 C 
ENDBRANCH  10  18
ENDBRANCH   7   8
BRANCH   7  20
HETATM   20  O2  UNL     1      24.980   2.334  52.975  1.00  0.00    -0.282 OA
HETATM   21  C5  UNL     1      24.031   3.298  53.233  1.00  0.00     0.238 C 
ENDBRANCH   7  20
ENDBRANCH   1   7
BRANCH   5  22
HETATM   22  N2  UNL     1      20.670   1.296  49.242  1.00  0.00    -0.309 N 
HETATM   23  C11 UNL     1      19.506   1.298  50.048  1.00  0.00     0.325 C 
HETATM   24  O3  UNL     1      19.491   1.931  51.124  1.00  0.00    -0.247 OA
HETATM   25  N3  UNL     1      18.300   0.618  49.735  1.00  0.00    -0.309 N 
HETATM   26  H13 UNL     1      18.269   0.067  48.832  1.00  0.00     0.170 HD
HETATM   27  H12 UNL     1      20.526   0.731  48.391  1.00  0.00     0.170 HD
BRANCH  25  28
HETATM   28  C12 UNL     1      17.205   0.709  50.643  1.00  0.00     0.036 A 
HETATM   29  C13 UNL     1      17.151  -0.402  51.474  1.00  0.00     0.032 A 
HETATM   30  C14 UNL     1      16.169  -0.535  52.439  1.00  0.00     0.039 A 
HETATM   31  C15 UNL     1      15.219   0.465  52.578  1.00  0.00     0.068 A 
HETATM   32  C17 UNL     1      15.287   1.558  51.746  1.00  0.00     0.039 A 
HETATM   33  C18 UNL     1      16.249   1.711  50.785  1.00  0.00     0.032 A 
BRANCH  31  34
HETATM   34  O4  UNL     1      14.220   0.368  53.533  1.00  0.00    -0.356 OA
HETATM   35  C16 UNL     1      13.174   1.324  53.534  1.00  0.00     0.210 C 
ENDBRANCH  31  34
ENDBRANCH  25  28
ENDBRANCH   5  22
TORSDOF 7
ENDMDL
MODEL 4
REMARK VINA RESULT:      -8.1      3.300      4.287
REMARK  7 active torsions:
REMARK  status: ('A' for Active; 'I' for Inactive)
REMARK    1  A    between atoms: O1_2  and  C2_3 
REMARK    2  A    between atoms: C4_5  and  N1_6 
REMARK    3  A    between atoms: N1_6  and  O2_7 
REMARK    4  A    between atoms: N1_6  and  C6_9 
REMARK    5  A    between atoms: C10_13  and  N2_14 
REMARK       I    between atoms: N2_14  and  C11_15 
REMARK       I    between atoms: C11_15  and  N3_17 
REMARK    6  A    between atoms: N3_17  and  C12_18 
REMARK    7  A    between atoms: C15_21  and  O4_22 
ROOT
HETATM    1  C6  UNL     1      22.722   4.525  51.345  1.00  0.00     0.060 A 
HETATM    2  C7  UNL     1      21.520   5.039  50.945  1.00  0.00     0.032 A 
HETATM    3  C8  UNL     1      21.478   6.377  50.645  1.00  0.00     0.005 A 
HETATM    4  C9  UNL     1      22.615   7.138  50.754  1.00  0.00     0.029 A 
HETATM    5  C10 UNL     1      23.835   6.650  51.153  1.00  0.00     0.038 A 
HETATM    6  C19 UNL     1      23.852   5.306  51.448  1.00  0.00     0.061 A 
ENDROOT
BRANCH   1   7
HETATM    7  N1  UNL     1      22.833   3.147  51.671  1.00  0.00    -0.245 N 
BRANCH   7   8
HETATM    8  C4  UNL     1      23.226   2.424  52.837  1.00  0.00     0.193 A 
HETATM    9  C3  UNL     1      22.367   1.224  53.083  1.00  0.00     0.044 A 
HETATM   10  C2  UNL     1      23.047   0.066  53.088  1.00  0.00     0.080 A 
HETATM   11  C23 UNL     1      24.472   0.337  52.842  1.00  0.00     0.039 A 
HETATM   12  C20 UNL     1      24.571   1.784  52.689  1.00  0.00     0.074 A 
HETATM   13  C22 UNL     1      25.570  -0.398  52.742  1.00  0.00     0.101 A 
HETATM   14  N4  UNL     1      25.676   2.403  52.460  1.00  0.00    -0.271 NA
HETATM   15  C21 UNL     1      26.943   1.707  52.330  1.00  0.00     0.270 A 
HETATM   16  N5  UNL     1      26.785   0.297  52.489  1.00  0.00    -0.380 N 
HETATM   17  H24 UNL     1      27.670  -0.264  52.405  1.00  0.00     0.160 HD
BRANCH  10  18
HETATM   18  O1  UNL     1      22.631  -1.254  53.278  1.00  0.00    -0.355 OA
HETATM   19  C1  UNL     1      21.759  -1.650  54.323  1.00  0.00     0.210 C 
ENDBRANCH  10  18
ENDBRANCH   7   8
BRANCH   7  20
HETATM   20  O2  UNL     1      22.531   2.187  50.764  1.00  0.00    -0.282 OA
HETATM   21  C5  UNL     1      23.109   2.456  49.543  1.00  0.00     0.238 C 
ENDBRANCH   7  20
ENDBRANCH   1   7
BRANCH   5  22
HETATM   22  N2  UNL     1      25.046   7.367  51.289  1.00  0.00    -0.309 N 
HETATM   23  C11 UNL     1      25.923   7.816  50.273  1.00  0.00     0.325 C 
HETATM   24  O3  UNL     1      25.662   7.586  49.075  1.00  0.00    -0.247 OA
HETATM   25  N3  UNL     1      27.126   8.535  50.498  1.00  0.00    -0.309 N 
HETATM   26  H13 UNL     1      27.387   8.751  51.501  1.00  0.00     0.170 HD
HETATM   27  H12 UNL     1      25.397   7.633  52.222  1.00  0.00     0.170 HD
BRANCH  25  28
HETATM   28  C12 UNL     1      27.913   8.924  49.376  1.00  0.00     0.036 A 
HETATM   29  C13 UNL     1      27.703  10.258  49.055  1.00  0.00     0.032 A 
HETATM   30  C14 UNL     1      28.361  10.860  47.998  1.00  0.00     0.039 A 
HETATM   31  C15 UNL     1      29.251  10.111  47.242  1.00  0.00     0.068 A 
HETATM   32  C17 UNL     1      29.447   8.791  47.574  1.00  0.00     0.039 A 
HETATM   33  C18 UNL     1      28.808   8.175  48.615  1.00  0.00     0.032 A 
BRANCH  31  34
HETATM   34  O4  UNL     1      29.929  10.678  46.176  1.00  0.00    -0.356 OA
HETATM   35  C16 UNL     1      31.074  11.473  46.433  1.00  0.00     0.210 C 
ENDBRANCH  31  34
ENDBRANCH  25  28
ENDBRANCH   5  22
TORSDOF 7
ENDMDL
MODEL 5
REMARK VINA RESULT:      -7.9      2.331      2.817
REMARK  7 active torsions:
REMARK  status: ('A' for Active; 'I' for Inactive)
REMARK    1  A    between atoms: O1_2  and  C2_3 
REMARK    2  A    between atoms: C4_5  and  N1_6 
REMARK    3  A    between atoms: N1_6  and  O2_7 
REMARK    4  A    between atoms: N1_6  and  C6_9 
REMARK    5  A    between atoms: C10_13  and  N2_14 
REMARK       I    between atoms: N2_14  and  C11_15 
REMARK       I    between atoms: C11_15  and  N3_17 
REMARK    6  A    between atoms: N3_17  and  C12_18 
REMARK    7  A    between atoms: C15_21  and  O4_22 
ROOT
HETATM    1  C6  UNL     1      24.737   2.965  50.941  1.00  0.00     0.060 A 
HETATM    2  C7  UNL     1      23.505   3.330  50.476  1.00  0.00     0.032 A 
HETATM    3  C8  UNL     1      23.466   4.192  49.409  1.00  0.00     0.005 A 
HETATM    4  C9  UNL     1      24.637   4.649  48.857  1.00  0.00     0.029 A 
HETATM    5  C10 UNL     1      25.889   4.300  49.304  1.00  0.00     0.038 A 
HETATM    6  C19 UNL     1      25.901   3.436  50.374  1.00  0.00     0.061 A 
ENDROOT
BRANCH   1   7
HETATM    7  N1  UNL     1      24.846   2.076  52.044  1.00  0.00    -0.245 N 
BRANCH   7   8
HETATM    8  C4  UNL     1      25.133   0.685  52.182  1.00  0.00     0.193 A 
HETATM    9  C3  UNL     1      26.510   0.434  52.711  1.00  0.00     0.044 A 
HETATM   10  C2  UNL     1      26.527  -0.245  53.870  1.00  0.00     0.080 A 
HETATM   11  C23 UNL     1      25.145  -0.545  54.279  1.00  0.00     0.039 A 
HETATM   12  C20 UNL     1      24.299   0.029  53.239  1.00  0.00     0.074 A 
HETATM   13  C22 UNL     1      24.578  -1.168  55.300  1.00  0.00     0.101 A 
HETATM   14  N4  UNL     1      23.014  -0.032  53.251  1.00  0.00    -0.271 NA
HETATM   15  C21 UNL     1      22.278  -0.689  54.316  1.00  0.00     0.270 A 
HETATM   16  N5  UNL     1      23.157  -1.231  55.303  1.00  0.00    -0.380 N 
HETATM   17  H24 UNL     1      22.682  -1.721  56.102  1.00  0.00     0.160 HD
BRANCH  10  18
HETATM   18  O1  UNL     1      27.582  -0.674  54.678  1.00  0.00    -0.355 OA
HETATM   19  C1  UNL     1      28.823   0.005  54.760  1.00  0.00     0.210 C 
ENDBRANCH  10  18
ENDBRANCH   7   8
BRANCH   7  20
HETATM   20  O2  UNL     1      24.658   2.510  53.313  1.00  0.00    -0.282 OA
HETATM   21  C5  UNL     1      24.083   3.761  53.332  1.00  0.00     0.238 C 
ENDBRANCH   7  20
ENDBRANCH   1   7
BRANCH   5  22
HETATM   22  N2  UNL     1      27.134   4.727  48.790  1.00  0.00    -0.309 N 
HETATM   23  C11 UNL     1      27.581   6.048  48.548  1.00  0.00     0.325 C 
HETATM   24  O3  UNL     1      26.834   7.017  48.794  1.00  0.00    -0.247 OA
HETATM   25  N3  UNL     1      28.857   6.391  48.027  1.00  0.00    -0.309 N 
HETATM   26  H13 UNL     1      29.522   5.599  47.802  1.00  0.00     0.170 HD
HETATM   27  H12 UNL     1      27.861   4.041  48.538  1.00  0.00     0.170 HD
BRANCH  25  28
HETATM   28  C12 UNL     1      29.171   7.767  47.833  1.00  0.00     0.036 A 
HETATM   29  C13 UNL     1      29.920   8.263  48.892  1.00  0.00     0.032 A 
HETATM   30  C14 UNL     1      30.343   9.579  48.924  1.00  0.00     0.039 A 
HETATM   31  C15 UNL     1      30.011  10.421  47.873  1.00  0.00     0.068 A 
HETATM   32  C17 UNL     1      29.269   9.914  46.832  1.00  0.00     0.039 A 
HETATM   33  C18 UNL     1      28.839   8.616  46.780  1.00  0.00     0.032 A 
BRANCH  31  34
HETATM   34  O4  UNL     1      30.417  11.745  47.869  1.00  0.00    -0.356 OA
HETATM   35  C16 UNL     1      30.605  12.411  49.105  1.00  0.00     0.210 C 
ENDBRANCH  31  34
ENDBRANCH  25  28
ENDBRANCH   5  22
TORSDOF 7
ENDMDL
MODEL 6
REMARK VINA RESULT:      -7.9      4.488     10.327
REMARK  7 active torsions:
REMARK  status: ('A' for Active; 'I' for Inactive)
REMARK    1  A    between atoms: O1_2  and  C2_3 
REMARK    2  A    between atoms: C4_5  and  N1_6 
REMARK    3  A    between atoms: N1_6  and  O2_7 
REMARK    4  A    between atoms: N1_6  and  C6_9 
REMARK    5  A    between atoms: C10_13  and  N2_14 
REMARK       I    between atoms: N2_14  and  C11_15 
REMARK       I    between atoms: C11_15  and  N3_17 
REMARK    6  A    between atoms: N3_17  and  C12_18 
REMARK    7  A    between atoms: C15_21  and  O4_22 
ROOT
HETATM    1  C6  UNL     1      30.303   7.692  47.576  1.00  0.00     0.060 A 
HETATM    2  C7  UNL     1      29.880   7.806  46.282  1.00  0.00     0.032 A 
HETATM    3  C8  UNL     1      28.531   7.941  46.072  1.00  0.00     0.005 A 
HETATM    4  C9  UNL     1      27.671   7.957  47.141  1.00  0.00     0.029 A 
HETATM    5  C10 UNL     1      28.068   7.844  48.452  1.00  0.00     0.038 A 
HETATM    6  C19 UNL     1      29.424   7.710  48.637  1.00  0.00     0.061 A 
ENDROOT
BRANCH   1   7
HETATM    7  N1  UNL     1      31.688   7.549  47.862  1.00  0.00    -0.245 N 
BRANCH   7   8
HETATM    8  C4  UNL     1      32.647   6.512  47.663  1.00  0.00     0.193 A 
HETATM    9  C3  UNL     1      32.072   5.148  47.886  1.00  0.00     0.044 A 
HETATM   10  C2  UNL     1      32.142   4.351  46.807  1.00  0.00     0.080 A 
HETATM   11  C23 UNL     1      32.783   5.082  45.702  1.00  0.00     0.039 A 
HETATM   12  C20 UNL     1      33.087   6.404  46.235  1.00  0.00     0.074 A 
HETATM   13  C22 UNL     1      33.102   4.803  44.447  1.00  0.00     0.101 A 
HETATM   14  N4  UNL     1      33.658   7.334  45.553  1.00  0.00    -0.271 NA
HETATM   15  C21 UNL     1      34.055   7.150  44.170  1.00  0.00     0.270 A 
HETATM   16  N5  UNL     1      33.733   5.839  43.702  1.00  0.00    -0.380 N 
HETATM   17  H24 UNL     1      33.997   5.644  42.704  1.00  0.00     0.160 HD
BRANCH  10  18
HETATM   18  O1  UNL     1      31.730   3.033  46.599  1.00  0.00    -0.355 OA
HETATM   19  C1  UNL     1      32.552   1.910  46.869  1.00  0.00     0.210 C 
ENDBRANCH  10  18
ENDBRANCH   7   8
BRANCH   7  20
HETATM   20  O2  UNL     1      32.385   8.544  48.459  1.00  0.00    -0.282 OA
HETATM   21  C5  UNL     1      32.278   9.722  47.753  1.00  0.00     0.238 C 
ENDBRANCH   7  20
ENDBRANCH   1   7
BRANCH   5  22
HETATM   22  N2  UNL     1      27.246   7.852  49.602  1.00  0.00    -0.309 N 
HETATM   23  C11 UNL     1      26.050   7.131  49.836  1.00  0.00     0.325 C 
HETATM   24  O3  UNL     1      25.597   6.369  48.958  1.00  0.00    -0.247 OA
HETATM   25  N3  UNL     1      25.282   7.197  51.028  1.00  0.00    -0.309 N 
HETATM   26  H13 UNL     1      25.629   7.833  51.799  1.00  0.00     0.170 HD
HETATM   27  H12 UNL     1      27.489   8.435  50.418  1.00  0.00     0.170 HD
BRANCH  25  28
HETATM   28  C12 UNL     1      24.095   6.414  51.124  1.00  0.00     0.036 A 
HETATM   29  C13 UNL     1      22.975   7.157  50.776  1.00  0.00     0.032 A 
HETATM   30  C14 UNL     1      21.708   6.606  50.794  1.00  0.00     0.039 A 
HETATM   31  C15 UNL     1      21.553   5.280  51.169  1.00  0.00     0.068 A 
HETATM   32  C17 UNL     1      22.673   4.557  51.510  1.00  0.00     0.039 A 
HETATM   33  C18 UNL     1      23.937   5.082  51.500  1.00  0.00     0.032 A 
BRANCH  31  34
HETATM   34  O4  UNL     1      20.300   4.692  51.199  1.00  0.00    -0.356 OA
HETATM   35  C16 UNL     1      20.122   3.487  51.924  1.00  0.00     0.210 C 
ENDBRANCH  31  34
ENDBRANCH  25  28
ENDBRANCH   5  22
TORSDOF 7
ENDMDL
MODEL 7
REMARK VINA RESULT:      -7.8      3.882      7.958
REMARK  7 active torsions:
REMARK  status: ('A' for Active; 'I' for Inactive)
REMARK    1  A    between atoms: O1_2  and  C2_3 
REMARK    2  A    between atoms: C4_5  and  N1_6 
REMARK    3  A    between atoms: N1_6  and  O2_7 
REMARK    4  A    between atoms: N1_6  and  C6_9 
REMARK    5  A    between atoms: C10_13  and  N2_14 
REMARK       I    between atoms: N2_14  and  C11_15 
REMARK       I    between atoms: C11_15  and  N3_17 
REMARK    6  A    between atoms: N3_17  and  C12_18 
REMARK    7  A    between atoms: C15_21  and  O4_22 
ROOT
HETATM    1  C6  UNL     1      24.142   6.105  48.954  1.00  0.00     0.060 A 
HETATM    2  C7  UNL     1      24.753   7.124  48.278  1.00  0.00     0.032 A 
HETATM    3  C8  UNL     1      26.119   7.068  48.158  1.00  0.00     0.005 A 
HETATM    4  C9  UNL     1      26.810   6.017  48.707  1.00  0.00     0.029 A 
HETATM    5  C10 UNL     1      26.224   4.980  49.392  1.00  0.00     0.038 A 
HETATM    6  C19 UNL     1      24.854   5.059  49.499  1.00  0.00     0.061 A 
ENDROOT
BRANCH   1   7
HETATM    7  N1  UNL     1      22.730   6.103  49.114  1.00  0.00    -0.245 N 
BRANCH   7   8
HETATM    8  C4  UNL     1      21.656   5.383  48.512  1.00  0.00     0.193 A 
HETATM    9  C3  UNL     1      21.775   5.316  47.022  1.00  0.00     0.044 A 
HETATM   10  C2  UNL     1      21.851   4.063  46.543  1.00  0.00     0.080 A 
HETATM   11  C23 UNL     1      21.793   3.110  47.662  1.00  0.00     0.039 A 
HETATM   12  C20 UNL     1      21.674   3.927  48.864  1.00  0.00     0.074 A 
HETATM   13  C22 UNL     1      21.825   1.791  47.780  1.00  0.00     0.101 A 
HETATM   14  N4  UNL     1      21.597   3.440  50.052  1.00  0.00    -0.271 NA
HETATM   15  C21 UNL     1      21.621   2.012  50.309  1.00  0.00     0.270 A 
HETATM   16  N5  UNL     1      21.738   1.264  49.099  1.00  0.00    -0.380 N 
HETATM   17  H24 UNL     1      21.761   0.220  49.219  1.00  0.00     0.160 HD
BRANCH  10  18
HETATM   18  O1  UNL     1      21.968   3.574  45.240  1.00  0.00    -0.355 OA
HETATM   19  C1  UNL     1      21.065   3.913  44.201  1.00  0.00     0.210 C 
ENDBRANCH  10  18
ENDBRANCH   7   8
BRANCH   7  20
HETATM   20  O2  UNL     1      22.128   6.925  50.007  1.00  0.00    -0.282 OA
HETATM   21  C5  UNL     1      21.034   7.549  49.450  1.00  0.00     0.238 C 
ENDBRANCH   7  20
ENDBRANCH   1   7
BRANCH   5  22
HETATM   22  N2  UNL     1      26.865   3.868  49.983  1.00  0.00    -0.309 N 
HETATM   23  C11 UNL     1      26.355   2.966  50.947  1.00  0.00     0.325 C 
HETATM   24  O3  UNL     1      25.194   3.105  51.382  1.00  0.00    -0.247 OA
HETATM   25  N3  UNL     1      27.072   1.868  51.491  1.00  0.00    -0.309 N 
HETATM   26  H13 UNL     1      28.063   1.714  51.151  1.00  0.00     0.170 HD
HETATM   27  H12 UNL     1      27.833   3.622  49.725  1.00  0.00     0.170 HD
BRANCH  25  28
HETATM   28  C12 UNL     1      26.431   1.041  52.458  1.00  0.00     0.036 A 
HETATM   29  C13 UNL     1      27.089   1.095  53.679  1.00  0.00     0.032 A 
HETATM   30  C14 UNL     1      26.647   0.371  54.771  1.00  0.00     0.039 A 
HETATM   31  C15 UNL     1      25.520  -0.426  54.641  1.00  0.00     0.068 A 
HETATM   32  C17 UNL     1      24.879  -0.468  53.425  1.00  0.00     0.039 A 
HETATM   33  C18 UNL     1      25.299   0.239  52.331  1.00  0.00     0.032 A 
BRANCH  31  34
HETATM   34  O4  UNL     1      25.046  -1.165  55.713  1.00  0.00    -0.356 OA
HETATM   35  C16 UNL     1      23.671  -1.509  55.758  1.00  0.00     0.210 C 
ENDBRANCH  31  34
ENDBRANCH  25  28
ENDBRANCH   5  22
TORSDOF 7
ENDMDL
MODEL 8
REMARK VINA RESULT:      -7.8      3.435     10.291
REMARK  7 active torsions:
REMARK  status: ('A' for Active; 'I' for Inactive)
REMARK    1  A    between atoms: O1_2  and  C2_3 
REMARK    2  A    between atoms: C4_5  and  N1_6 
REMARK    3  A    between atoms: N1_6  and  O2_7 
REMARK    4  A    between atoms: N1_6  and  C6_9 
REMARK    5  A    between atoms: C10_13  and  N2_14 
REMARK       I    between atoms: N2_14  and  C11_15 
REMARK       I    between atoms: C11_15  and  N3_17 
REMARK    6  A    between atoms: N3_17  and  C12_18 
REMARK    7  A    between atoms: C15_21  and  O4_22 
ROOT
HETATM    1  C6  UNL     1      26.036   7.967  48.559  1.00  0.00     0.060 A 
HETATM    2  C7  UNL     1      25.328   8.894  49.272  1.00  0.00     0.032 A 
HETATM    3  C8  UNL     1      24.676   8.457  50.398  1.00  0.00     0.005 A 
HETATM    4  C9  UNL     1      24.754   7.136  50.763  1.00  0.00     0.029 A 
HETATM    5  C10 UNL     1      25.457   6.183  50.066  1.00  0.00     0.038 A 
HETATM    6  C19 UNL     1      26.101   6.645  48.942  1.00  0.00     0.061 A 
ENDROOT
BRANCH   1   7
HETATM    7  N1  UNL     1      26.732   8.355  47.383  1.00  0.00    -0.245 N 
BRANCH   7   8
HETATM    8  C4  UNL     1      27.908   9.120  47.124  1.00  0.00     0.193 A 
HETATM    9  C3  UNL     1      27.750  10.559  47.502  1.00  0.00     0.044 A 
HETATM   10  C2  UNL     1      28.630  10.972  48.430  1.00  0.00     0.080 A 
HETATM   11  C23 UNL     1      29.506   9.850  48.802  1.00  0.00     0.039 A 
HETATM   12  C20 UNL     1      29.056   8.721  47.998  1.00  0.00     0.074 A 
HETATM   13  C22 UNL     1      30.519   9.683  49.640  1.00  0.00     0.101 A 
HETATM   14  N4  UNL     1      29.589   7.551  48.050  1.00  0.00    -0.271 NA
HETATM   15  C21 UNL     1      30.704   7.244  48.927  1.00  0.00     0.270 A 
HETATM   16  N5  UNL     1      31.101   8.385  49.689  1.00  0.00    -0.380 N 
HETATM   17  H24 UNL     1      31.906   8.226  50.345  1.00  0.00     0.160 HD
BRANCH  10  18
HETATM   18  O1  UNL     1      28.818  12.213  49.042  1.00  0.00    -0.355 OA
HETATM   19  C1  UNL     1      28.105  13.379  48.667  1.00  0.00     0.210 C 
ENDBRANCH  10  18
ENDBRANCH   7   8
BRANCH   7  20
HETATM   20  O2  UNL     1      26.291   7.986  46.156  1.00  0.00    -0.282 OA
HETATM   21  C5  UNL     1      25.061   8.540  45.881  1.00  0.00     0.238 C 
ENDBRANCH   7  20
ENDBRANCH   1   7
BRANCH   5  22
HETATM   22  N2  UNL     1      25.584   4.810  50.377  1.00  0.00    -0.309 N 
HETATM   23  C11 UNL     1      24.576   3.900  50.776  1.00  0.00     0.325 C 
HETATM   24  O3  UNL     1      23.395   4.286  50.892  1.00  0.00    -0.247 OA
HETATM   25  N3  UNL     1      24.790   2.528  51.071  1.00  0.00    -0.309 N 
HETATM   26  H13 UNL     1      25.778   2.158  50.987  1.00  0.00     0.170 HD
HETATM   27  H12 UNL     1      26.502   4.343  50.327  1.00  0.00     0.170 HD
BRANCH  25  28
HETATM   28  C12 UNL     1      23.678   1.728  51.462  1.00  0.00     0.036 A 
HETATM   29  C13 UNL     1      23.755   1.388  52.806  1.00  0.00     0.032 A 
HETATM   30  C14 UNL     1      22.783   0.612  53.412  1.00  0.00     0.039 A 
HETATM   31  C15 UNL     1      21.708   0.166  52.658  1.00  0.00     0.068 A 
HETATM   32  C17 UNL     1      21.648   0.512  51.329  1.00  0.00     0.039 A 
HETATM   33  C18 UNL     1      22.597   1.277  50.708  1.00  0.00     0.032 A 
BRANCH  31  34
HETATM   34  O4  UNL     1      20.715  -0.612  53.229  1.00  0.00    -0.356 OA
HETATM   35  C16 UNL     1      21.065  -1.544  54.238  1.00  0.00     0.210 C 
ENDBRANCH  31  34
ENDBRANCH  25  28
ENDBRANCH   5  22
TORSDOF 7
ENDMDL
MODEL 9
REMARK VINA RESULT:      -7.7      2.396      3.555
REMARK  7 active torsions:
REMARK  status: ('A' for Active; 'I' for Inactive)
REMARK    1  A    between atoms: O1_2  and  C2_3 
REMARK    2  A    between atoms: C4_5  and  N1_6 
REMARK    3  A    between atoms: N1_6  and  O2_7 
REMARK    4  A    between atoms: N1_6  and  C6_9 
REMARK    5  A    between atoms: C10_13  and  N2_14 
REMARK       I    between atoms: N2_14  and  C11_15 
REMARK       I    between atoms: C11_15  and  N3_17 
REMARK    6  A    between atoms: N3_17  and  C12_18 
REMARK    7  A    between atoms: C15_21  and  O4_22 
ROOT
HETATM    1  C6  UNL     1      22.679   4.047  50.908  1.00  0.00     0.060 A 
HETATM    2  C7  UNL     1      21.568   4.716  51.338  1.00  0.00     0.032 A 
HETATM    3  C8  UNL     1      21.359   5.976  50.835  1.00  0.00     0.005 A 
HETATM    4  C9  UNL     1      22.250   6.510  49.938  1.00  0.00     0.029 A 
HETATM    5  C10 UNL     1      23.375   5.861  49.489  1.00  0.00     0.038 A 
HETATM    6  C19 UNL     1      23.563   4.601  50.008  1.00  0.00     0.061 A 
ENDROOT
BRANCH   1   7
HETATM    7  N1  UNL     1      22.953   2.739  51.391  1.00  0.00    -0.245 N 
BRANCH   7   8
HETATM    8  C4  UNL     1      23.278   2.194  52.669  1.00  0.00     0.193 A 
HETATM    9  C3  UNL     1      22.369   1.071  53.060  1.00  0.00     0.044 A 
HETATM   10  C2  UNL     1      23.009  -0.091  53.270  1.00  0.00     0.080 A 
HETATM   11  C23 UNL     1      24.451   0.099  53.045  1.00  0.00     0.039 A 
HETATM   12  C20 UNL     1      24.605   1.501  52.677  1.00  0.00     0.074 A 
HETATM   13  C22 UNL     1      25.525  -0.674  53.104  1.00  0.00     0.101 A 
HETATM   14  N4  UNL     1      25.738   2.045  52.402  1.00  0.00    -0.271 NA
HETATM   15  C21 UNL     1      26.984   1.302  52.432  1.00  0.00     0.270 A 
HETATM   16  N5  UNL     1      26.772  -0.062  52.798  1.00  0.00    -0.380 N 
HETATM   17  H24 UNL     1      27.640  -0.654  52.838  1.00  0.00     0.160 HD
BRANCH  10  18
HETATM   18  O1  UNL     1      22.541  -1.354  53.642  1.00  0.00    -0.355 OA
HETATM   19  C1  UNL     1      21.489  -1.548  54.572  1.00  0.00     0.210 C 
ENDBRANCH  10  18
ENDBRANCH   7   8
BRANCH   7  20
HETATM   20  O2  UNL     1      22.940   1.670  50.561  1.00  0.00    -0.282 OA
HETATM   21  C5  UNL     1      21.822   1.677  49.757  1.00  0.00     0.238 C 
ENDBRANCH   7  20
ENDBRANCH   1   7
BRANCH   5  22
HETATM   22  N2  UNL     1      24.336   6.343  48.571  1.00  0.00    -0.309 N 
HETATM   23  C11 UNL     1      25.663   6.765  48.825  1.00  0.00     0.325 C 
HETATM   24  O3  UNL     1      26.117   6.738  49.987  1.00  0.00    -0.247 OA
HETATM   25  N3  UNL     1      26.568   7.238  47.838  1.00  0.00    -0.309 N 
HETATM   26  H13 UNL     1      26.223   7.279  46.838  1.00  0.00     0.170 HD
HETATM   27  H12 UNL     1      24.110   6.424  47.568  1.00  0.00     0.170 HD
BRANCH  25  28
HETATM   28  C12 UNL     1      27.877   7.631  48.239  1.00  0.00     0.036 A 
HETATM   29  C13 UNL     1      28.817   6.670  47.890  1.00  0.00     0.032 A 
HETATM   30  C14 UNL     1      30.159   6.834  48.179  1.00  0.00     0.039 A 
HETATM   31  C15 UNL     1      30.574   7.985  48.833  1.00  0.00     0.068 A 
HETATM   32  C17 UNL     1      29.630   8.926  49.172  1.00  0.00     0.039 A 
HETATM   33  C18 UNL     1      28.297   8.785  48.896  1.00  0.00     0.032 A 
BRANCH  31  34
HETATM   34  O4  UNL     1      31.910   8.185  49.139  1.00  0.00    -0.356 OA
HETATM   35  C16 UNL     1      32.852   7.183  48.797  1.00  0.00     0.210 C 
ENDBRANCH  31  34
ENDBRANCH  25  28
ENDBRANCH   5  22
TORSDOF 7
ENDMDL
