MODEL 1
REMARK VINA RESULT:      -7.4      0.000      0.000
REMARK  5 active torsions:
REMARK  status: ('A' for Active; 'I' for Inactive)
REMARK    1  A    between atoms: O1_2  and  C2_3 
REMARK    2  A    between atoms: C2_3  and  C3_4 
REMARK    3  A    between atoms: C3_4  and  S1_5 
REMARK    4  A    between atoms: C5_8  and  C6_9 
REMARK    5  A    between atoms: C15_20  and  O2_21 
ROOT
HETATM    1  S1  UNL     1      22.533   6.076  49.286  1.00  0.00    -0.102 SA
HETATM    2  N1  UNL     1      23.559   4.877  49.070  1.00  0.00    -0.264 NA
HETATM    3  C4  UNL     1      24.892   5.057  48.680  1.00  0.00     0.193 C 
HETATM    4  C5  UNL     1      25.772   4.161  49.570  1.00  0.00    -0.034 C 
HETATM    5  C7  UNL     1      25.750   3.224  50.514  1.00  0.00    -0.001 C 
HETATM    6  C8  UNL     1      26.231   2.252  51.495  1.00  0.00     0.149 C 
HETATM    7  N2  UNL     1      25.704   2.465  52.855  1.00  0.00    -0.371 N 
HETATM    8  C9  UNL     1      24.309   2.072  52.818  1.00  0.00     0.124 C 
HETATM    9  C10 UNL     1      23.372   2.887  52.384  1.00  0.00     0.050 C 
HETATM   10  C11 UNL     1      22.542   3.953  51.872  1.00  0.00     0.007 C 
HETATM   11  C12 UNL     1      21.647   4.815  51.421  1.00  0.00    -0.069 C 
HETATM   12  C13 UNL     1      20.207   4.517  51.284  1.00  0.00     0.041 C 
HETATM   13  C14 UNL     1      19.939   3.098  51.760  1.00  0.00     0.070 C 
HETATM   14  C15 UNL     1      18.465   2.808  51.594  1.00  0.00     0.058 C 
HETATM   15  C17 UNL     1      18.212   1.710  50.897  1.00  0.00     0.019 C 
HETATM   16  P1  UNL     1      19.009   0.390  51.457  1.00  0.00    -0.016 P 
HETATM   17  C18 UNL     1      20.398   0.539  52.632  1.00  0.00     0.176 C 
HETATM   18  N3  UNL     1      21.252   0.692  53.579  1.00  0.00    -0.270 NA
HETATM   19  C19 UNL     1      22.649   0.491  53.469  1.00  0.00     0.229 C 
HETATM   20  N4  UNL     1      23.903   0.770  53.239  1.00  0.00    -0.225 NA
HETATM   21  C20 UNL     1      22.334   6.096  51.155  1.00  0.00     0.120 C 
HETATM   22  H15 UNL     1      25.561   2.688  53.856  1.00  0.00     0.161 HD
ENDROOT
BRANCH   1  23
HETATM   23  C3  UNL     1      23.410   7.636  48.919  1.00  0.00     0.113 C 
BRANCH  23  24
HETATM   24  C2  UNL     1      23.965   8.214  50.214  1.00  0.00     0.178 C 
BRANCH  24  25
HETATM   25  O1  UNL     1      25.145   8.921  50.023  1.00  0.00    -0.395 OA
HETATM   26  C1  UNL     1      26.257   8.092  50.090  1.00  0.00     0.201 C 
ENDBRANCH  24  25
ENDBRANCH  23  24
ENDBRANCH   1  23
BRANCH   4  27
HETATM   27  C6  UNL     1      27.172   4.448  49.243  1.00  0.00     0.258 C 
HETATM   28  F1  UNL     1      27.192   5.368  48.200  1.00  0.00    -0.251 F 
ENDBRANCH   4  27
BRANCH  14  29
HETATM   29  O2  UNL     1      17.588   3.717  52.184  1.00  0.00    -0.359 OA
HETATM   30  C16 UNL     1      16.196   3.681  51.956  1.00  0.00     0.209 C 
ENDBRANCH  14  29
TORSDOF 5
ENDMDL
MODEL 2
REMARK VINA RESULT:      -7.3      3.767      6.265
REMARK  5 active torsions:
REMARK  status: ('A' for Active; 'I' for Inactive)
REMARK    1  A    between atoms: O1_2  and  C2_3 
REMARK    2  A    between atoms: C2_3  and  C3_4 
REMARK    3  A    between atoms: C3_4  and  S1_5 
REMARK    4  A    between atoms: C5_8  and  C6_9 
REMARK    5  A    between atoms: C15_20  and  O2_21 
ROOT
HETATM    1  S1  UNL     1      25.817   2.083  52.658  1.00  0.00    -0.102 SA
HETATM    2  N1  UNL     1      25.045   0.694  52.759  1.00  0.00    -0.264 NA
HETATM    3  C4  UNL     1      25.289  -0.259  53.757  1.00  0.00     0.193 C 
HETATM    4  C5  UNL     1      23.929  -0.750  54.287  1.00  0.00    -0.034 C 
HETATM    5  C7  UNL     1      22.613  -0.676  54.110  1.00  0.00    -0.001 C 
HETATM    6  C8  UNL     1      21.185  -0.908  54.322  1.00  0.00     0.149 C 
HETATM    7  N2  UNL     1      20.398   0.327  54.496  1.00  0.00    -0.371 N 
HETATM    8  C9  UNL     1      20.331   0.954  53.191  1.00  0.00     0.124 C 
HETATM    9  C10 UNL     1      21.309   1.704  52.734  1.00  0.00     0.050 C 
HETATM   10  C11 UNL     1      22.501   2.476  52.463  1.00  0.00     0.007 C 
HETATM   11  C12 UNL     1      23.518   3.216  52.056  1.00  0.00    -0.069 C 
HETATM   12  C13 UNL     1      23.593   3.863  50.730  1.00  0.00     0.041 C 
HETATM   13  C14 UNL     1      22.324   3.559  49.949  1.00  0.00     0.070 C 
HETATM   14  C15 UNL     1      22.430   4.214  48.592  1.00  0.00     0.058 C 
HETATM   15  C17 UNL     1      22.232   3.381  47.580  1.00  0.00     0.019 C 
HETATM   16  P1  UNL     1      20.840   2.525  47.710  1.00  0.00    -0.016 P 
HETATM   17  C18 UNL     1      19.912   2.439  49.280  1.00  0.00     0.176 C 
HETATM   18  N3  UNL     1      19.219   2.551  50.355  1.00  0.00    -0.270 NA
HETATM   19  C19 UNL     1      18.995   1.522  51.302  1.00  0.00     0.229 C 
HETATM   20  N4  UNL     1      19.198   0.764  52.345  1.00  0.00    -0.225 NA
HETATM   21  C20 UNL     1      24.490   3.313  53.166  1.00  0.00     0.120 C 
HETATM   22  H15 UNL     1      19.834   1.119  54.850  1.00  0.00     0.161 HD
ENDROOT
BRANCH   1  23
HETATM   23  C3  UNL     1      27.026   2.152  54.026  1.00  0.00     0.113 C 
BRANCH  23  24
HETATM   24  C2  UNL     1      28.431   2.253  53.448  1.00  0.00     0.178 C 
BRANCH  24  25
HETATM   25  O1  UNL     1      29.092   1.032  53.428  1.00  0.00    -0.395 OA
HETATM   26  C1  UNL     1      28.876   0.311  54.595  1.00  0.00     0.201 C 
ENDBRANCH  24  25
ENDBRANCH  23  24
ENDBRANCH   1  23
BRANCH   4  27
HETATM   27  C6  UNL     1      24.191  -1.650  55.413  1.00  0.00     0.258 C 
HETATM   28  F1  UNL     1      25.084  -1.020  56.273  1.00  0.00    -0.251 F 
ENDBRANCH   4  27
BRANCH  14  29
HETATM   29  O2  UNL     1      22.716   5.578  48.587  1.00  0.00    -0.359 OA
HETATM   30  C16 UNL     1      22.933   6.300  47.394  1.00  0.00     0.209 C 
ENDBRANCH  14  29
TORSDOF 5
ENDMDL
MODEL 3
REMARK VINA RESULT:      -7.1      2.290      3.652
REMARK  5 active torsions:
REMARK  status: ('A' for Active; 'I' for Inactive)
REMARK    1  A    between atoms: O1_2  and  C2_3 
REMARK    2  A    between atoms: C2_3  and  C3_4 
REMARK    3  A    between atoms: C3_4  and  S1_5 
REMARK    4  A    between atoms: C5_8  and  C6_9 
REMARK    5  A    between atoms: C15_20  and  O2_21 
ROOT
HETATM    1  S1  UNL     1      22.512   3.970  50.817  1.00  0.00    -0.102 SA
HETATM    2  N1  UNL     1      23.019   2.463  50.910  1.00  0.00    -0.264 NA
HETATM    3  C4  UNL     1      24.328   2.105  51.258  1.00  0.00     0.193 C 
HETATM    4  C5  UNL     1      24.249   0.957  52.281  1.00  0.00    -0.034 C 
HETATM    5  C7  UNL     1      23.421   0.122  52.904  1.00  0.00    -0.001 C 
HETATM    6  C8  UNL     1      22.957  -0.939  53.797  1.00  0.00     0.149 C 
HETATM    7  N2  UNL     1      21.910  -0.509  54.742  1.00  0.00    -0.371 N 
HETATM    8  C9  UNL     1      20.703  -0.333  53.959  1.00  0.00     0.124 C 
HETATM    9  C10 UNL     1      20.472   0.772  53.283  1.00  0.00     0.050 C 
HETATM   10  C11 UNL     1      20.452   2.065  52.639  1.00  0.00     0.007 C 
HETATM   11  C12 UNL     1      20.279   3.197  51.977  1.00  0.00    -0.069 C 
HETATM   12  C13 UNL     1      19.120   3.477  51.105  1.00  0.00     0.041 C 
HETATM   13  C14 UNL     1      18.179   2.283  51.120  1.00  0.00     0.070 C 
HETATM   14  C15 UNL     1      17.012   2.583  50.207  1.00  0.00     0.058 C 
HETATM   15  C17 UNL     1      16.801   1.653  49.287  1.00  0.00     0.019 C 
HETATM   16  P1  UNL     1      16.684   0.141  49.910  1.00  0.00    -0.016 P 
HETATM   17  C18 UNL     1      17.212  -0.235  51.616  1.00  0.00     0.176 C 
HETATM   18  N3  UNL     1      17.441  -0.405  52.868  1.00  0.00    -0.270 NA
HETATM   19  C19 UNL     1      18.525  -1.133  53.416  1.00  0.00     0.229 C 
HETATM   20  N4  UNL     1      19.721  -1.366  53.881  1.00  0.00    -0.225 NA
HETATM   21  C20 UNL     1      21.393   4.106  52.321  1.00  0.00     0.120 C 
HETATM   22  H15 UNL     1      21.354  -0.227  55.568  1.00  0.00     0.161 HD
ENDROOT
BRANCH   1  23
HETATM   23  C3  UNL     1      23.922   5.060  51.218  1.00  0.00     0.113 C 
BRANCH  23  24
HETATM   24  C2  UNL     1      24.263   5.906  49.999  1.00  0.00     0.178 C 
BRANCH  24  25
HETATM   25  O1  UNL     1      24.924   5.185  49.013  1.00  0.00    -0.395 OA
HETATM   26  C1  UNL     1      26.170   4.750  49.443  1.00  0.00     0.201 C 
ENDBRANCH  24  25
ENDBRANCH  23  24
ENDBRANCH   1  23
BRANCH   4  27
HETATM   27  C6  UNL     1      25.613   0.673  52.735  1.00  0.00     0.258 C 
HETATM   28  F1  UNL     1      26.413   0.488  51.613  1.00  0.00    -0.251 F 
ENDBRANCH   4  27
BRANCH  14  29
HETATM   29  O2  UNL     1      16.329   3.772  50.453  1.00  0.00    -0.359 OA
HETATM   30  C16 UNL     1      15.389   3.902  51.498  1.00  0.00     0.209 C 
ENDBRANCH  14  29
TORSDOF 5
ENDMDL
MODEL 4
REMARK VINA RESULT:      -7.0      3.655      7.131
REMARK  5 active torsions:
REMARK  status: ('A' for Active; 'I' for Inactive)
REMARK    1  A    between atoms: O1_2  and  C2_3 
REMARK    2  A    between atoms: C2_3  and  C3_4 
REMARK    3  A    between atoms: C3_4  and  S1_5 
REMARK    4  A    between atoms: C5_8  and  C6_9 
REMARK    5  A    between atoms: C15_20  and  O2_21 
ROOT
HETATM    1  S1  UNL     1      19.846   1.225  51.964  1.00  0.00    -0.102 SA
HETATM    2  N1  UNL     1      20.945   1.213  53.116  1.00  0.00    -0.264 NA
HETATM    3  C4  UNL     1      21.049   0.200  54.079  1.00  0.00     0.193 C 
HETATM    4  C5  UNL     1      22.535  -0.182  54.206  1.00  0.00    -0.034 C 
HETATM    5  C7  UNL     1      23.767   0.131  53.813  1.00  0.00    -0.001 C 
HETATM    6  C8  UNL     1      25.222   0.072  53.681  1.00  0.00     0.149 C 
HETATM    7  N2  UNL     1      25.691  -0.025  52.286  1.00  0.00    -0.371 N 
HETATM    8  C9  UNL     1      25.466   1.277  51.690  1.00  0.00     0.124 C 
HETATM    9  C10 UNL     1      24.290   1.626  51.215  1.00  0.00     0.050 C 
HETATM   10  C11 UNL     1      22.923   1.766  50.767  1.00  0.00     0.007 C 
HETATM   11  C12 UNL     1      21.718   2.060  50.311  1.00  0.00    -0.069 C 
HETATM   12  C13 UNL     1      21.349   3.367  49.730  1.00  0.00     0.041 C 
HETATM   13  C14 UNL     1      22.565   4.279  49.728  1.00  0.00     0.070 C 
HETATM   14  C15 UNL     1      22.161   5.615  49.149  1.00  0.00     0.058 C 
HETATM   15  C17 UNL     1      22.455   6.645  49.928  1.00  0.00     0.019 C 
HETATM   16  P1  UNL     1      24.022   6.667  50.410  1.00  0.00    -0.016 P 
HETATM   17  C18 UNL     1      25.098   5.203  50.231  1.00  0.00     0.176 C 
HETATM   18  N3  UNL     1      25.849   4.206  49.928  1.00  0.00    -0.270 NA
HETATM   19  C19 UNL     1      26.417   3.293  50.849  1.00  0.00     0.229 C 
HETATM   20  N4  UNL     1      26.517   2.239  51.611  1.00  0.00    -0.225 NA
HETATM   21  C20 UNL     1      20.872   0.854  50.433  1.00  0.00     0.120 C 
HETATM   22  H15 UNL     1      26.074  -0.321  51.371  1.00  0.00     0.161 HD
ENDROOT
BRANCH   1  23
HETATM   23  C3  UNL     1      18.805  -0.262  52.167  1.00  0.00     0.113 C 
BRANCH  23  24
HETATM   24  C2  UNL     1      17.345   0.116  51.958  1.00  0.00     0.178 C 
BRANCH  24  25
HETATM   25  O1  UNL     1      16.472  -0.721  52.639  1.00  0.00    -0.395 OA
HETATM   26  C1  UNL     1      17.109  -1.868  53.093  1.00  0.00     0.201 C 
ENDBRANCH  24  25
ENDBRANCH  23  24
ENDBRANCH   1  23
BRANCH   4  27
HETATM   27  C6  UNL     1      22.622  -1.325  55.120  1.00  0.00     0.258 C 
HETATM   28  F1  UNL     1      21.760  -2.314  54.659  1.00  0.00    -0.251 F 
ENDBRANCH   4  27
BRANCH  14  29
HETATM   29  O2  UNL     1      21.547   5.583  47.898  1.00  0.00    -0.359 OA
HETATM   30  C16 UNL     1      22.273   5.383  46.705  1.00  0.00     0.209 C 
ENDBRANCH  14  29
TORSDOF 5
ENDMDL
MODEL 5
REMARK VINA RESULT:      -6.8      3.260      5.740
REMARK  5 active torsions:
REMARK  status: ('A' for Active; 'I' for Inactive)
REMARK    1  A    between atoms: O1_2  and  C2_3 
REMARK    2  A    between atoms: C2_3  and  C3_4 
REMARK    3  A    between atoms: C3_4  and  S1_5 
REMARK    4  A    between atoms: C5_8  and  C6_9 
REMARK    5  A    between atoms: C15_20  and  O2_21 
ROOT
HETATM    1  S1  UNL     1      25.324   4.891  50.455  1.00  0.00    -0.102 SA
HETATM    2  N1  UNL     1      23.947   5.115  51.224  1.00  0.00    -0.264 NA
HETATM    3  C4  UNL     1      22.992   6.066  50.844  1.00  0.00     0.193 C 
HETATM    4  C5  UNL     1      21.608   5.391  50.886  1.00  0.00    -0.034 C 
HETATM    5  C7  UNL     1      20.961   4.277  51.218  1.00  0.00    -0.001 C 
HETATM    6  C8  UNL     1      19.860   3.333  51.403  1.00  0.00     0.149 C 
HETATM    7  N2  UNL     1      20.074   2.030  50.747  1.00  0.00    -0.371 N 
HETATM    8  C9  UNL     1      21.087   1.345  51.525  1.00  0.00     0.124 C 
HETATM    9  C10 UNL     1      22.369   1.583  51.351  1.00  0.00     0.050 C 
HETATM   10  C11 UNL     1      23.696   2.014  50.975  1.00  0.00     0.007 C 
HETATM   11  C12 UNL     1      24.969   2.300  50.758  1.00  0.00    -0.069 C 
HETATM   12  C13 UNL     1      26.090   1.710  51.518  1.00  0.00     0.041 C 
HETATM   13  C14 UNL     1      25.544   0.731  52.544  1.00  0.00     0.070 C 
HETATM   14  C15 UNL     1      26.704   0.156  53.322  1.00  0.00     0.058 C 
HETATM   15  C17 UNL     1      26.581   0.279  54.635  1.00  0.00     0.019 C 
HETATM   16  P1  UNL     1      25.153  -0.290  55.208  1.00  0.00    -0.016 P 
HETATM   17  C18 UNL     1      23.751  -0.648  54.095  1.00  0.00     0.176 C 
HETATM   18  N3  UNL     1      22.863  -1.039  53.254  1.00  0.00    -0.270 NA
HETATM   19  C19 UNL     1      21.608  -0.422  53.035  1.00  0.00     0.229 C 
HETATM   20  N4  UNL     1      20.726   0.392  52.523  1.00  0.00    -0.225 NA
HETATM   21  C20 UNL     1      25.043   3.233  49.614  1.00  0.00     0.120 C 
HETATM   22  H15 UNL     1      20.053   1.196  50.134  1.00  0.00     0.161 HD
ENDROOT
BRANCH   1  23
HETATM   23  C3  UNL     1      25.390   6.080  49.070  1.00  0.00     0.113 C 
BRANCH  23  24
HETATM   24  C2  UNL     1      26.546   7.046  49.295  1.00  0.00     0.178 C 
BRANCH  24  25
HETATM   25  O1  UNL     1      26.251   8.026  50.233  1.00  0.00    -0.395 OA
HETATM   26  C1  UNL     1      27.185   9.054  50.214  1.00  0.00     0.201 C 
ENDBRANCH  24  25
ENDBRANCH  23  24
ENDBRANCH   1  23
BRANCH   4  27
HETATM   27  C6  UNL     1      20.631   6.353  50.368  1.00  0.00     0.258 C 
HETATM   28  F1  UNL     1      21.027   7.627  50.759  1.00  0.00    -0.251 F 
ENDBRANCH   4  27
BRANCH  14  29
HETATM   29  O2  UNL     1      27.727  -0.417  52.568  1.00  0.00    -0.359 OA
HETATM   30  C16 UNL     1      28.812  -1.099  53.159  1.00  0.00     0.209 C 
ENDBRANCH  14  29
TORSDOF 5
ENDMDL
MODEL 6
REMARK VINA RESULT:      -6.5      3.483      6.447
REMARK  5 active torsions:
REMARK  status: ('A' for Active; 'I' for Inactive)
REMARK    1  A    between atoms: O1_2  and  C2_3 
REMARK    2  A    between atoms: C2_3  and  C3_4 
REMARK    3  A    between atoms: C3_4  and  S1_5 
REMARK    4  A    between atoms: C5_8  and  C6_9 
REMARK    5  A    between atoms: C15_20  and  O2_21 
ROOT
HETATM    1  S1  UNL     1      21.069   1.793  51.547  1.00  0.00    -0.102 SA
HETATM    2  N1  UNL     1      22.440   2.188  52.256  1.00  0.00    -0.264 NA
HETATM    3  C4  UNL     1      23.228   1.284  52.980  1.00  0.00     0.193 C 
HETATM    4  C5  UNL     1      24.694   1.486  52.553  1.00  0.00    -0.034 C 
HETATM    5  C7  UNL     1      25.510   2.238  51.820  1.00  0.00    -0.001 C 
HETATM    6  C8  UNL     1      26.743   2.728  51.204  1.00  0.00     0.149 C 
HETATM    7  N2  UNL     1      26.681   2.819  49.734  1.00  0.00    -0.371 N 
HETATM    8  C9  UNL     1      25.819   3.944  49.432  1.00  0.00     0.124 C 
HETATM    9  C10 UNL     1      24.509   3.830  49.427  1.00  0.00     0.050 C 
HETATM   10  C11 UNL     1      23.115   3.450  49.483  1.00  0.00     0.007 C 
HETATM   11  C12 UNL     1      21.805   3.273  49.498  1.00  0.00    -0.069 C 
HETATM   12  C13 UNL     1      20.822   4.350  49.259  1.00  0.00     0.041 C 
HETATM   13  C14 UNL     1      21.558   5.651  48.978  1.00  0.00     0.070 C 
HETATM   14  C15 UNL     1      20.535   6.740  48.756  1.00  0.00     0.058 C 
HETATM   15  C17 UNL     1      20.711   7.803  49.528  1.00  0.00     0.019 C 
HETATM   16  P1  UNL     1      22.234   8.407  49.460  1.00  0.00    -0.016 P 
HETATM   17  C18 UNL     1      23.610   7.453  48.733  1.00  0.00     0.176 C 
HETATM   18  N3  UNL     1      24.498   6.810  48.064  1.00  0.00    -0.270 NA
HETATM   19  C19 UNL     1      25.639   6.173  48.609  1.00  0.00     0.229 C 
HETATM   20  N4  UNL     1      26.366   5.230  49.142  1.00  0.00    -0.225 NA
HETATM   21  C20 UNL     1      21.536   1.838  49.727  1.00  0.00     0.120 C 
HETATM   22  H15 UNL     1      26.786   2.691  48.712  1.00  0.00     0.161 HD
ENDROOT
BRANCH   1  23
HETATM   23  C3  UNL     1      20.759   0.024  51.878  1.00  0.00     0.113 C 
BRANCH  23  24
HETATM   24  C2  UNL     1      19.678  -0.105  52.942  1.00  0.00     0.178 C 
BRANCH  24  25
HETATM   25  O1  UNL     1      20.196  -0.354  54.206  1.00  0.00    -0.395 OA
HETATM   26  C1  UNL     1      21.054  -1.446  54.203  1.00  0.00     0.201 C 
ENDBRANCH  24  25
ENDBRANCH  23  24
ENDBRANCH   1  23
BRANCH   4  27
HETATM   27  C6  UNL     1      25.495   0.455  53.218  1.00  0.00     0.258 C 
HETATM   28  F1  UNL     1      26.015  -0.388  52.241  1.00  0.00    -0.251 F 
ENDBRANCH   4  27
BRANCH  14  29
HETATM   29  O2  UNL     1      19.564   6.486  47.789  1.00  0.00    -0.359 OA
HETATM   30  C16 UNL     1      19.834   6.572  46.407  1.00  0.00     0.209 C 
ENDBRANCH  14  29
TORSDOF 5
ENDMDL
MODEL 7
REMARK VINA RESULT:      -6.5      3.362      5.522
REMARK  5 active torsions:
REMARK  status: ('A' for Active; 'I' for Inactive)
REMARK    1  A    between atoms: O1_2  and  C2_3 
REMARK    2  A    between atoms: C2_3  and  C3_4 
REMARK    3  A    between atoms: C3_4  and  S1_5 
REMARK    4  A    between atoms: C5_8  and  C6_9 
REMARK    5  A    between atoms: C15_20  and  O2_21 
ROOT
HETATM    1  S1  UNL     1      24.603   6.413  50.599  1.00  0.00    -0.102 SA
HETATM    2  N1  UNL     1      23.056   6.578  50.936  1.00  0.00    -0.264 NA
HETATM    3  C4  UNL     1      22.299   7.702  50.577  1.00  0.00     0.193 C 
HETATM    4  C5  UNL     1      20.965   7.206  49.990  1.00  0.00    -0.034 C 
HETATM    5  C7  UNL     1      20.221   6.127  49.763  1.00  0.00    -0.001 C 
HETATM    6  C8  UNL     1      19.100   5.303  49.313  1.00  0.00     0.149 C 
HETATM    7  N2  UNL     1      19.490   4.210  48.402  1.00  0.00    -0.371 N 
HETATM    8  C9  UNL     1      20.176   3.227  49.217  1.00  0.00     0.124 C 
HETATM    9  C10 UNL     1      21.448   3.353  49.526  1.00  0.00     0.050 C 
HETATM   10  C11 UNL     1      22.834   3.713  49.722  1.00  0.00     0.007 C 
HETATM   11  C12 UNL     1      24.113   3.896  50.002  1.00  0.00    -0.069 C 
HETATM   12  C13 UNL     1      24.909   2.997  50.862  1.00  0.00     0.041 C 
HETATM   13  C14 UNL     1      24.034   1.847  51.334  1.00  0.00     0.070 C 
HETATM   14  C15 UNL     1      24.862   0.951  52.227  1.00  0.00     0.058 C 
HETATM   15  C17 UNL     1      24.316   0.728  53.413  1.00  0.00     0.019 C 
HETATM   16  P1  UNL     1      22.768   0.195  53.323  1.00  0.00    -0.016 P 
HETATM   17  C18 UNL     1      21.802   0.316  51.779  1.00  0.00     0.176 C 
HETATM   18  N3  UNL     1      21.232   0.274  50.629  1.00  0.00    -0.270 NA
HETATM   19  C19 UNL     1      20.132   1.069  50.225  1.00  0.00     0.229 C 
HETATM   20  N4  UNL     1      19.486   2.088  49.729  1.00  0.00    -0.225 NA
HETATM   21  C20 UNL     1      24.580   5.089  49.265  1.00  0.00     0.120 C 
HETATM   22  H15 UNL     1      19.654   3.582  47.597  1.00  0.00     0.161 HD
ENDROOT
BRANCH   1  23
HETATM   23  C3  UNL     1      25.148   7.917  49.717  1.00  0.00     0.113 C 
BRANCH  23  24
HETATM   24  C2  UNL     1      26.667   7.915  49.614  1.00  0.00     0.178 C 
BRANCH  24  25
HETATM   25  O1  UNL     1      27.255   8.944  50.338  1.00  0.00    -0.395 OA
HETATM   26  C1  UNL     1      28.381   9.444  49.698  1.00  0.00     0.201 C 
ENDBRANCH  24  25
ENDBRANCH  23  24
ENDBRANCH   1  23
BRANCH   4  27
HETATM   27  C6  UNL     1      20.233   8.379  49.502  1.00  0.00     0.258 C 
HETATM   28  F1  UNL     1      19.710   9.051  50.602  1.00  0.00    -0.251 F 
ENDBRANCH   4  27
BRANCH  14  29
HETATM   29  O2  UNL     1      26.063   0.490  51.692  1.00  0.00    -0.359 OA
HETATM   30  C16 UNL     1      27.032  -0.176  52.473  1.00  0.00     0.209 C 
ENDBRANCH  14  29
TORSDOF 5
ENDMDL
MODEL 8
REMARK VINA RESULT:      -6.3      5.546      8.864
REMARK  5 active torsions:
REMARK  status: ('A' for Active; 'I' for Inactive)
REMARK    1  A    between atoms: O1_2  and  C2_3 
REMARK    2  A    between atoms: C2_3  and  C3_4 
REMARK    3  A    between atoms: C3_4  and  S1_5 
REMARK    4  A    between atoms: C5_8  and  C6_9 
REMARK    5  A    between atoms: C15_20  and  O2_21 
ROOT
HETATM    1  S1  UNL     1      30.484   7.020  48.766  1.00  0.00    -0.102 SA
HETATM    2  N1  UNL     1      30.245   8.553  49.123  1.00  0.00    -0.264 NA
HETATM    3  C4  UNL     1      31.200   9.557  48.913  1.00  0.00     0.193 C 
HETATM    4  C5  UNL     1      30.488  10.760  48.269  1.00  0.00    -0.034 C 
HETATM    5  C7  UNL     1      29.304  11.246  47.905  1.00  0.00    -0.001 C 
HETATM    6  C8  UNL     1      28.307  12.162  47.355  1.00  0.00     0.149 C 
HETATM    7  N2  UNL     1      27.456  11.562  46.310  1.00  0.00    -0.371 N 
HETATM    8  C9  UNL     1      26.564  10.645  46.991  1.00  0.00     0.124 C 
HETATM    9  C10 UNL     1      26.939   9.426  47.311  1.00  0.00     0.050 C 
HETATM   10  C11 UNL     1      27.581   8.153  47.550  1.00  0.00     0.007 C 
HETATM   11  C12 UNL     1      28.017   6.941  47.850  1.00  0.00    -0.069 C 
HETATM   12  C13 UNL     1      27.224   5.935  48.586  1.00  0.00     0.041 C 
HETATM   13  C14 UNL     1      25.854   6.510  48.907  1.00  0.00     0.070 C 
HETATM   14  C15 UNL     1      25.069   5.472  49.675  1.00  0.00     0.058 C 
HETATM   15  C17 UNL     1      24.579   5.916  50.824  1.00  0.00     0.019 C 
HETATM   16  P1  UNL     1      23.719   7.304  50.668  1.00  0.00    -0.016 P 
HETATM   17  C18 UNL     1      23.808   8.319  49.153  1.00  0.00     0.176 C 
HETATM   18  N3  UNL     1      23.779   8.900  48.008  1.00  0.00    -0.270 NA
HETATM   19  C19 UNL     1      24.344  10.164  47.712  1.00  0.00     0.229 C 
HETATM   20  N4  UNL     1      25.241  11.041  47.352  1.00  0.00    -0.225 NA
HETATM   21  C20 UNL     1      29.368   6.782  47.272  1.00  0.00     0.120 C 
HETATM   22  H15 UNL     1      26.988  11.284  45.430  1.00  0.00     0.161 HD
ENDROOT
BRANCH   1  23
HETATM   23  C3  UNL     1      32.171   6.860  48.084  1.00  0.00     0.113 C 
BRANCH  23  24
HETATM   24  C2  UNL     1      32.763   5.526  48.518  1.00  0.00     0.178 C 
BRANCH  24  25
HETATM   25  O1  UNL     1      31.872   4.471  48.370  1.00  0.00    -0.395 OA
HETATM   26  C1  UNL     1      32.000   3.862  47.129  1.00  0.00     0.201 C 
ENDBRANCH  24  25
ENDBRANCH  23  24
ENDBRANCH   1  23
BRANCH   4  27
HETATM   27  C6  UNL     1      31.513  11.755  47.937  1.00  0.00     0.258 C 
HETATM   28  F1  UNL     1      31.585  11.856  46.552  1.00  0.00    -0.251 F 
ENDBRANCH   4  27
BRANCH  14  29
HETATM   29  O2  UNL     1      24.967   4.215  49.084  1.00  0.00    -0.359 OA
HETATM   30  C16 UNL     1      23.778   3.455  49.123  1.00  0.00     0.209 C 
ENDBRANCH  14  29
TORSDOF 5
ENDMDL
MODEL 9
REMARK VINA RESULT:      -6.2      3.469      5.979
REMARK  5 active torsions:
REMARK  status: ('A' for Active; 'I' for Inactive)
REMARK    1  A    between atoms: O1_2  and  C2_3 
REMARK    2  A    between atoms: C2_3  and  C3_4 
REMARK    3  A    between atoms: C3_4  and  S1_5 
REMARK    4  A    between atoms: C5_8  and  C6_9 
REMARK    5  A    between atoms: C15_20  and  O2_21 
ROOT
HETATM    1  S1  UNL     1      22.120   1.443  52.502  1.00  0.00    -0.102 SA
HETATM    2  N1  UNL     1      22.383   2.797  51.706  1.00  0.00    -0.264 NA
HETATM    3  C4  UNL     1      23.662   3.284  51.405  1.00  0.00     0.193 C 
HETATM    4  C5  UNL     1      23.662   3.738  49.934  1.00  0.00    -0.034 C 
HETATM    5  C7  UNL     1      22.897   3.918  48.861  1.00  0.00    -0.001 C 
HETATM    6  C8  UNL     1      22.511   4.257  47.491  1.00  0.00     0.149 C 
HETATM    7  N2  UNL     1      21.824   3.165  46.777  1.00  0.00    -0.371 N 
HETATM    8  C9  UNL     1      20.502   3.065  47.363  1.00  0.00     0.124 C 
HETATM    9  C10 UNL     1      20.288   2.399  48.477  1.00  0.00     0.050 C 
HETATM   10  C11 UNL     1      20.313   1.617  49.692  1.00  0.00     0.007 C 
HETATM   11  C12 UNL     1      20.162   0.937  50.816  1.00  0.00    -0.069 C 
HETATM   12  C13 UNL     1      18.880   0.805  51.537  1.00  0.00     0.041 C 
HETATM   13  C14 UNL     1      17.793   1.544  50.773  1.00  0.00     0.070 C 
HETATM   14  C15 UNL     1      16.497   1.413  51.537  1.00  0.00     0.058 C 
HETATM   15  C17 UNL     1      15.910   2.572  51.798  1.00  0.00     0.019 C 
HETATM   16  P1  UNL     1      15.713   3.511  50.468  1.00  0.00    -0.016 P 
HETATM   17  C18 UNL     1      16.592   3.157  48.908  1.00  0.00     0.176 C 
HETATM   18  N3  UNL     1      17.103   2.765  47.796  1.00  0.00    -0.270 NA
HETATM   19  C19 UNL     1      18.158   3.406  47.103  1.00  0.00     0.229 C 
HETATM   20  N4  UNL     1      19.379   3.702  46.754  1.00  0.00    -0.225 NA
HETATM   21  C20 UNL     1      21.459   0.313  51.154  1.00  0.00     0.120 C 
HETATM   22  H15 UNL     1      21.550   2.386  46.153  1.00  0.00     0.161 HD
ENDROOT
BRANCH   1  23
HETATM   23  C3  UNL     1      23.742   0.719  52.927  1.00  0.00     0.113 C 
BRANCH  23  24
HETATM   24  C2  UNL     1      23.527  -0.542  53.753  1.00  0.00     0.178 C 
BRANCH  24  25
HETATM   25  O1  UNL     1      22.347  -0.510  54.484  1.00  0.00    -0.395 OA
HETATM   26  C1  UNL     1      21.688  -1.731  54.450  1.00  0.00     0.201 C 
ENDBRANCH  24  25
ENDBRANCH  23  24
ENDBRANCH   1  23
BRANCH   4  27
HETATM   27  C6  UNL     1      25.033   4.128  49.590  1.00  0.00     0.258 C 
HETATM   28  F1  UNL     1      25.723   2.985  49.200  1.00  0.00    -0.251 F 
ENDBRANCH   4  27
BRANCH  14  29
HETATM   29  O2  UNL     1      16.100   0.116  51.858  1.00  0.00    -0.359 OA
HETATM   30  C16 UNL     1      15.014  -0.151  52.719  1.00  0.00     0.209 C 
ENDBRANCH  14  29
TORSDOF 5
ENDMDL
