MODEL 1
REMARK VINA RESULT:      -9.2      0.000      0.000
REMARK  7 active torsions:
REMARK  status: ('A' for Active; 'I' for Inactive)
REMARK    1  A    between atoms: N1_2  and  C3_4 
REMARK    2  A    between atoms: C3_4  and  C4_5 
REMARK    3  A    between atoms: C5_6  and  C6_7 
REMARK       I    between atoms: C6_7  and  N2_9 
REMARK    4  A    between atoms: N2_9  and  C7_10 
REMARK    5  A    between atoms: C10_13  and  C11_14 
REMARK    6  A    between atoms: C19_26  and  O2_27 
REMARK    7  A    between atoms: O2_27  and  C20_28 
ROOT
HETATM    1  C7  UNL     1      25.987   2.712  51.142  1.00  0.00     0.069 A 
HETATM    2  C8  UNL     1      24.776   2.139  51.467  1.00  0.00     0.048 A 
HETATM    3  C9  UNL     1      23.632   2.270  50.750  1.00  0.00     0.025 A 
HETATM    4  C10 UNL     1      22.434   1.684  51.105  1.00  0.00     0.082 A 
HETATM    5  N3  UNL     1      21.338   1.853  50.355  1.00  0.00    -0.240 NA
HETATM    6  C16 UNL     1      21.342   2.591  49.235  1.00  0.00     0.234 A 
HETATM    7  N4  UNL     1      22.507   3.175  48.871  1.00  0.00    -0.241 NA
HETATM    8  C17 UNL     1      23.627   3.032  49.591  1.00  0.00     0.073 A 
HETATM    9  C18 UNL     1      24.829   3.625  49.233  1.00  0.00     0.071 A 
HETATM   10  C19 UNL     1      25.979   3.474  49.980  1.00  0.00     0.098 A 
ENDROOT
BRANCH   1  11
HETATM   11  N2  UNL     1      27.196   2.579  51.868  1.00  0.00    -0.321 N 
HETATM   12  C6  UNL     1      27.409   2.428  53.245  1.00  0.00     0.245 C 
HETATM   13  O1  UNL     1      26.407   2.394  53.988  1.00  0.00    -0.268 OA
HETATM   14  H11 UNL     1      28.093   2.594  51.315  1.00  0.00     0.169 HD
BRANCH  12  15
HETATM   15  C5  UNL     1      28.735   2.312  53.814  1.00  0.00     0.072 C 
HETATM   16  C4  UNL     1      29.257   1.199  54.294  1.00  0.00     0.008 C 
BRANCH  16  17
HETATM   17  C3  UNL     1      28.877  -0.204  54.477  1.00  0.00     0.299 C 
BRANCH  17  18
HETATM   18  N1  UNL     1      28.788  -0.941  53.234  1.00  0.00     0.083 N 
HETATM   19  C1  UNL     1      27.356  -1.096  52.967  1.00  0.00     0.309 C 
HETATM   20  C2  UNL     1      29.379  -2.244  53.311  1.00  0.00     0.309 C 
ENDBRANCH  17  18
ENDBRANCH  16  17
ENDBRANCH  12  15
ENDBRANCH   1  11
BRANCH  10  21
HETATM   21  O2  UNL     1      27.135   4.070  49.597  1.00  0.00    -0.341 OA
BRANCH  21  22
HETATM   22  C20 UNL     1      27.435   4.947  48.583  1.00  0.00     0.154 C 
HETATM   23  C21 UNL     1      26.922   6.369  48.860  1.00  0.00     0.061 C 
HETATM   24  C22 UNL     1      27.826   7.143  47.920  1.00  0.00     0.170 C 
HETATM   25  O3  UNL     1      29.007   6.470  47.788  1.00  0.00    -0.389 OA
HETATM   26  C23 UNL     1      28.907   5.245  48.432  1.00  0.00     0.200 C 
ENDBRANCH  21  22
ENDBRANCH  10  21
BRANCH   4  27
HETATM   27  C11 UNL     1      22.360   0.868  52.329  1.00  0.00     0.010 C 
HETATM   28  C12 UNL     1      22.954   0.500  53.437  1.00  0.00     0.031 C 
HETATM   29  C13 UNL     1      22.338  -0.476  54.059  1.00  0.00     0.150 C 
HETATM   30  F1  UNL     1      23.010  -1.036  55.119  1.00  0.00    -0.203 F 
HETATM   31  C14 UNL     1      21.052  -0.683  53.398  1.00  0.00     0.074 C 
HETATM   32 CL1  UNL     1      19.935  -1.837  54.087  1.00  0.00    -0.081 Cl
HETATM   33  C15 UNL     1      21.070   0.140  52.340  1.00  0.00     0.042 C 
ENDBRANCH   4  27
TORSDOF 7
ENDMDL
MODEL 2
REMARK VINA RESULT:      -9.2      3.667      7.119
REMARK  7 active torsions:
REMARK  status: ('A' for Active; 'I' for Inactive)
REMARK    1  A    between atoms: N1_2  and  C3_4 
REMARK    2  A    between atoms: C3_4  and  C4_5 
REMARK    3  A    between atoms: C5_6  and  C6_7 
REMARK       I    between atoms: C6_7  and  N2_9 
REMARK    4  A    between atoms: N2_9  and  C7_10 
REMARK    5  A    between atoms: C10_13  and  C11_14 
REMARK    6  A    between atoms: C19_26  and  O2_27 
REMARK    7  A    between atoms: O2_27  and  C20_28 
ROOT
HETATM    1  C7  UNL     1      22.943   1.759  51.118  1.00  0.00     0.069 A 
HETATM    2  C8  UNL     1      23.894   1.366  52.034  1.00  0.00     0.048 A 
HETATM    3  C9  UNL     1      23.707   0.438  53.007  1.00  0.00     0.025 A 
HETATM    4  C10 UNL     1      24.681   0.068  53.910  1.00  0.00     0.082 A 
HETATM    5  N3  UNL     1      24.433  -0.854  54.848  1.00  0.00    -0.240 NA
HETATM    6  C16 UNL     1      23.241  -1.460  54.962  1.00  0.00     0.234 A 
HETATM    7  N4  UNL     1      22.272  -1.110  54.086  1.00  0.00    -0.241 NA
HETATM    8  C17 UNL     1      22.477  -0.192  53.131  1.00  0.00     0.073 A 
HETATM    9  C18 UNL     1      21.494   0.179  52.226  1.00  0.00     0.071 A 
HETATM   10  C19 UNL     1      21.712   1.126  51.245  1.00  0.00     0.098 A 
ENDROOT
BRANCH   1  11
HETATM   11  N2  UNL     1      23.119   2.716  50.088  1.00  0.00    -0.321 N 
HETATM   12  C6  UNL     1      23.041   4.114  50.135  1.00  0.00     0.245 C 
HETATM   13  O1  UNL     1      22.783   4.647  51.234  1.00  0.00    -0.268 OA
HETATM   14  H11 UNL     1      23.343   2.351  49.126  1.00  0.00     0.169 HD
BRANCH  12  15
HETATM   15  C5  UNL     1      23.248   4.939  48.963  1.00  0.00     0.072 C 
HETATM   16  C4  UNL     1      24.377   5.552  48.660  1.00  0.00     0.008 C 
BRANCH  16  17
HETATM   17  C3  UNL     1      25.726   5.706  49.208  1.00  0.00     0.299 C 
BRANCH  17  18
HETATM   18  N1  UNL     1      26.628   4.643  48.819  1.00  0.00     0.083 N 
HETATM   19  C1  UNL     1      26.664   3.718  49.955  1.00  0.00     0.309 C 
HETATM   20  C2  UNL     1      27.961   5.102  48.565  1.00  0.00     0.309 C 
ENDBRANCH  17  18
ENDBRANCH  16  17
ENDBRANCH  12  15
ENDBRANCH   1  11
BRANCH  10  21
HETATM   21  O2  UNL     1      20.726   1.462  50.379  1.00  0.00    -0.341 OA
BRANCH  21  22
HETATM   22  C20 UNL     1      19.595   2.231  50.512  1.00  0.00     0.154 C 
HETATM   23  C21 UNL     1      18.355   1.401  50.878  1.00  0.00     0.061 C 
HETATM   24  C22 UNL     1      17.488   2.500  51.462  1.00  0.00     0.170 C 
HETATM   25  O3  UNL     1      18.296   3.459  52.004  1.00  0.00    -0.389 OA
HETATM   26  C23 UNL     1      19.617   3.169  51.695  1.00  0.00     0.200 C 
ENDBRANCH  21  22
ENDBRANCH  10  21
BRANCH   4  27
HETATM   27  C11 UNL     1      26.009   0.702  53.846  1.00  0.00     0.010 C 
HETATM   28  C12 UNL     1      26.688   1.823  53.826  1.00  0.00     0.031 C 
HETATM   29  C13 UNL     1      27.963   1.655  53.570  1.00  0.00     0.150 C 
HETATM   30  F1  UNL     1      28.689   2.799  53.343  1.00  0.00    -0.203 F 
HETATM   31  C14 UNL     1      28.239   0.221  53.605  1.00  0.00     0.074 C 
HETATM   32 CL1  UNL     1      29.893  -0.316  53.433  1.00  0.00    -0.081 Cl
HETATM   33  C15 UNL     1      27.042  -0.358  53.773  1.00  0.00     0.042 C 
ENDBRANCH   4  27
TORSDOF 7
ENDMDL
MODEL 3
REMARK VINA RESULT:      -9.0      3.309      6.176
REMARK  7 active torsions:
REMARK  status: ('A' for Active; 'I' for Inactive)
REMARK    1  A    between atoms: N1_2  and  C3_4 
REMARK    2  A    between atoms: C3_4  and  C4_5 
REMARK    3  A    between atoms: C5_6  and  C6_7 
REMARK       I    between atoms: C6_7  and  N2_9 
REMARK    4  A    between atoms: N2_9  and  C7_10 
REMARK    5  A    between atoms: C10_13  and  C11_14 
REMARK    6  A    between atoms: C19_26  and  O2_27 
REMARK    7  A    between atoms: O2_27  and  C20_28 
ROOT
HETATM    1  C7  UNL     1      24.654   3.008  51.111  1.00  0.00     0.069 A 
HETATM    2  C8  UNL     1      24.989   2.030  52.022  1.00  0.00     0.048 A 
HETATM    3  C9  UNL     1      24.134   1.105  52.526  1.00  0.00     0.025 A 
HETATM    4  C10 UNL     1      24.502   0.138  53.439  1.00  0.00     0.082 A 
HETATM    5  N3  UNL     1      23.609  -0.747  53.899  1.00  0.00    -0.240 NA
HETATM    6  C16 UNL     1      22.327  -0.743  53.506  1.00  0.00     0.234 A 
HETATM    7  N4  UNL     1      21.947   0.197  52.611  1.00  0.00    -0.241 NA
HETATM    8  C17 UNL     1      22.807   1.102  52.124  1.00  0.00     0.073 A 
HETATM    9  C18 UNL     1      22.432   2.073  51.208  1.00  0.00     0.071 A 
HETATM   10  C19 UNL     1      23.323   3.003  50.711  1.00  0.00     0.098 A 
ENDROOT
BRANCH   1  11
HETATM   11  N2  UNL     1      25.531   3.977  50.563  1.00  0.00    -0.321 N 
HETATM   12  C6  UNL     1      26.532   3.839  49.592  1.00  0.00     0.245 C 
HETATM   13  O1  UNL     1      26.713   2.706  49.099  1.00  0.00    -0.268 OA
HETATM   14  H11 UNL     1      25.443   4.963  50.922  1.00  0.00     0.169 HD
BRANCH  12  15
HETATM   15  C5  UNL     1      27.344   4.956  49.154  1.00  0.00     0.072 C 
HETATM   16  C4  UNL     1      26.872   6.095  48.687  1.00  0.00     0.008 C 
BRANCH  16  17
HETATM   17  C3  UNL     1      25.575   6.719  48.414  1.00  0.00     0.299 C 
BRANCH  17  18
HETATM   18  N1  UNL     1      25.194   7.707  49.401  1.00  0.00     0.083 N 
HETATM   19  C1  UNL     1      24.486   8.755  48.661  1.00  0.00     0.309 C 
HETATM   20  C2  UNL     1      26.318   8.300  50.063  1.00  0.00     0.309 C 
ENDBRANCH  17  18
ENDBRANCH  16  17
ENDBRANCH  12  15
ENDBRANCH   1  11
BRANCH  10  21
HETATM   21  O2  UNL     1      22.919   3.937  49.816  1.00  0.00    -0.341 OA
BRANCH  21  22
HETATM   22  C20 UNL     1      22.003   4.958  49.890  1.00  0.00     0.154 C 
HETATM   23  C21 UNL     1      22.370   6.006  50.953  1.00  0.00     0.061 C 
HETATM   24  C22 UNL     1      21.553   7.175  50.436  1.00  0.00     0.170 C 
HETATM   25  O3  UNL     1      21.433   7.065  49.080  1.00  0.00    -0.389 OA
HETATM   26  C23 UNL     1      21.964   5.850  48.673  1.00  0.00     0.200 C 
ENDBRANCH  21  22
ENDBRANCH  10  21
BRANCH   4  27
HETATM   27  C11 UNL     1      25.894   0.085  53.919  1.00  0.00     0.010 C 
HETATM   28  C12 UNL     1      26.784   0.568  54.750  1.00  0.00     0.031 C 
HETATM   29  C13 UNL     1      28.001   0.141  54.515  1.00  0.00     0.150 C 
HETATM   30  F1  UNL     1      29.005   0.756  55.225  1.00  0.00    -0.203 F 
HETATM   31  C14 UNL     1      27.915  -0.919  53.513  1.00  0.00     0.074 C 
HETATM   32 CL1  UNL     1      29.372  -1.786  53.087  1.00  0.00    -0.081 Cl
HETATM   33  C15 UNL     1      26.625  -0.949  53.151  1.00  0.00     0.042 C 
ENDBRANCH   4  27
TORSDOF 7
ENDMDL
MODEL 4
REMARK VINA RESULT:      -9.0      2.966      6.337
REMARK  7 active torsions:
REMARK  status: ('A' for Active; 'I' for Inactive)
REMARK    1  A    between atoms: N1_2  and  C3_4 
REMARK    2  A    between atoms: C3_4  and  C4_5 
REMARK    3  A    between atoms: C5_6  and  C6_7 
REMARK       I    between atoms: C6_7  and  N2_9 
REMARK    4  A    between atoms: N2_9  and  C7_10 
REMARK    5  A    between atoms: C10_13  and  C11_14 
REMARK    6  A    between atoms: C19_26  and  O2_27 
REMARK    7  A    between atoms: O2_27  and  C20_28 
ROOT
HETATM    1  C7  UNL     1      25.027   1.250  52.344  1.00  0.00     0.069 A 
HETATM    2  C8  UNL     1      23.678   1.032  52.170  1.00  0.00     0.048 A 
HETATM    3  C9  UNL     1      22.909   0.228  52.947  1.00  0.00     0.025 A 
HETATM    4  C10 UNL     1      21.558   0.030  52.744  1.00  0.00     0.082 A 
HETATM    5  N3  UNL     1      20.855  -0.778  53.546  1.00  0.00    -0.240 NA
HETATM    6  C16 UNL     1      21.414  -1.432  54.575  1.00  0.00     0.234 A 
HETATM    7  N4  UNL     1      22.737  -1.252  54.790  1.00  0.00    -0.241 NA
HETATM    8  C17 UNL     1      23.479  -0.452  54.012  1.00  0.00     0.073 A 
HETATM    9  C18 UNL     1      24.837  -0.257  54.218  1.00  0.00     0.071 A 
HETATM   10  C19 UNL     1      25.596   0.568  53.413  1.00  0.00     0.098 A 
ENDROOT
BRANCH   1  11
HETATM   11  N2  UNL     1      25.846   2.093  51.554  1.00  0.00    -0.321 N 
HETATM   12  C6  UNL     1      25.522   2.878  50.439  1.00  0.00     0.245 C 
HETATM   13  O1  UNL     1      24.337   2.869  50.046  1.00  0.00    -0.268 OA
HETATM   14  H11 UNL     1      26.863   2.162  51.820  1.00  0.00     0.169 HD
BRANCH  12  15
HETATM   15  C5  UNL     1      26.507   3.682  49.747  1.00  0.00     0.072 C 
HETATM   16  C4  UNL     1      26.305   4.908  49.303  1.00  0.00     0.008 C 
BRANCH  16  17
HETATM   17  C3  UNL     1      25.229   5.902  49.268  1.00  0.00     0.299 C 
BRANCH  17  18
HETATM   18  N1  UNL     1      25.182   6.736  50.450  1.00  0.00     0.083 N 
HETATM   19  C1  UNL     1      24.020   6.275  51.215  1.00  0.00     0.309 C 
HETATM   20  C2  UNL     1      25.004   8.126  50.149  1.00  0.00     0.309 C 
ENDBRANCH  17  18
ENDBRANCH  16  17
ENDBRANCH  12  15
ENDBRANCH   1  11
BRANCH  10  21
HETATM   21  O2  UNL     1      26.921   0.733  53.646  1.00  0.00    -0.341 OA
BRANCH  21  22
HETATM   22  C20 UNL     1      27.916  -0.145  54.003  1.00  0.00     0.154 C 
HETATM   23  C21 UNL     1      28.043  -1.325  53.028  1.00  0.00     0.061 C 
HETATM   24  C22 UNL     1      29.462  -1.755  53.346  1.00  0.00     0.170 C 
HETATM   25  O3  UNL     1      30.172  -0.663  53.757  1.00  0.00    -0.389 OA
HETATM   26  C23 UNL     1      29.313   0.417  53.887  1.00  0.00     0.200 C 
ENDBRANCH  21  22
ENDBRANCH  10  21
BRANCH   4  27
HETATM   27  C11 UNL     1      20.885   0.712  51.625  1.00  0.00     0.010 C 
HETATM   28  C12 UNL     1      20.693   0.763  50.330  1.00  0.00     0.031 C 
HETATM   29  C13 UNL     1      20.033   1.827  49.943  1.00  0.00     0.150 C 
HETATM   30  F1  UNL     1      19.968   2.038  48.586  1.00  0.00    -0.203 F 
HETATM   31  C14 UNL     1      19.538   2.504  51.139  1.00  0.00     0.074 C 
HETATM   32 CL1  UNL     1      18.498   3.894  50.944  1.00  0.00    -0.081 Cl
HETATM   33  C15 UNL     1      20.062   1.819  52.166  1.00  0.00     0.042 C 
ENDBRANCH   4  27
TORSDOF 7
ENDMDL
MODEL 5
REMARK VINA RESULT:      -8.9      4.057      7.024
REMARK  7 active torsions:
REMARK  status: ('A' for Active; 'I' for Inactive)
REMARK    1  A    between atoms: N1_2  and  C3_4 
REMARK    2  A    between atoms: C3_4  and  C4_5 
REMARK    3  A    between atoms: C5_6  and  C6_7 
REMARK       I    between atoms: C6_7  and  N2_9 
REMARK    4  A    between atoms: N2_9  and  C7_10 
REMARK    5  A    between atoms: C10_13  and  C11_14 
REMARK    6  A    between atoms: C19_26  and  O2_27 
REMARK    7  A    between atoms: O2_27  and  C20_28 
ROOT
HETATM    1  C7  UNL     1      24.293   2.745  51.500  1.00  0.00     0.069 A 
HETATM    2  C8  UNL     1      24.804   3.782  50.751  1.00  0.00     0.048 A 
HETATM    3  C9  UNL     1      24.204   4.985  50.568  1.00  0.00     0.025 A 
HETATM    4  C10 UNL     1      24.744   6.004  49.810  1.00  0.00     0.082 A 
HETATM    5  N3  UNL     1      24.100   7.169  49.667  1.00  0.00    -0.240 NA
HETATM    6  C16 UNL     1      22.913   7.408  50.243  1.00  0.00     0.234 A 
HETATM    7  N4  UNL     1      22.367   6.422  50.991  1.00  0.00    -0.241 NA
HETATM    8  C17 UNL     1      22.976   5.240  51.160  1.00  0.00     0.073 A 
HETATM    9  C18 UNL     1      22.430   4.218  51.922  1.00  0.00     0.071 A 
HETATM   10  C19 UNL     1      23.063   3.004  52.092  1.00  0.00     0.098 A 
ENDROOT
BRANCH   1  11
HETATM   11  N2  UNL     1      24.906   1.486  51.714  1.00  0.00    -0.321 N 
HETATM   12  C6  UNL     1      26.263   1.135  51.723  1.00  0.00     0.245 C 
HETATM   13  O1  UNL     1      27.100   2.038  51.520  1.00  0.00    -0.268 OA
HETATM   14  H11 UNL     1      24.271   0.666  51.896  1.00  0.00     0.169 HD
BRANCH  12  15
HETATM   15  C5  UNL     1      26.708  -0.223  51.957  1.00  0.00     0.072 C 
HETATM   16  C4  UNL     1      27.221  -0.666  53.089  1.00  0.00     0.008 C 
BRANCH  16  17
HETATM   17  C3  UNL     1      27.549  -0.154  54.422  1.00  0.00     0.299 C 
BRANCH  17  18
HETATM   18  N1  UNL     1      28.968   0.031  54.632  1.00  0.00     0.083 N 
HETATM   19  C1  UNL     1      29.238   1.434  54.310  1.00  0.00     0.309 C 
HETATM   20  C2  UNL     1      29.774  -0.793  53.780  1.00  0.00     0.309 C 
ENDBRANCH  17  18
ENDBRANCH  16  17
ENDBRANCH  12  15
ENDBRANCH   1  11
BRANCH  10  21
HETATM   21  O2  UNL     1      22.496   2.029  52.844  1.00  0.00    -0.341 OA
BRANCH  21  22
HETATM   22  C20 UNL     1      21.208   1.559  52.937  1.00  0.00     0.154 C 
HETATM   23  C21 UNL     1      20.721   0.906  51.634  1.00  0.00     0.061 C 
HETATM   24  C22 UNL     1      19.592   0.060  52.190  1.00  0.00     0.170 C 
HETATM   25  O3  UNL     1      19.891  -0.283  53.478  1.00  0.00    -0.389 OA
HETATM   26  C23 UNL     1      21.039   0.387  53.874  1.00  0.00     0.200 C 
ENDBRANCH  21  22
ENDBRANCH  10  21
BRANCH   4  27
HETATM   27  C11 UNL     1      26.042   5.802  49.142  1.00  0.00     0.010 C 
HETATM   28  C12 UNL     1      27.010   4.965  48.861  1.00  0.00     0.031 C 
HETATM   29  C13 UNL     1      28.051   5.540  48.308  1.00  0.00     0.150 C 
HETATM   30  F1  UNL     1      29.170   4.756  48.167  1.00  0.00    -0.203 F 
HETATM   31  C14 UNL     1      27.683   6.918  47.992  1.00  0.00     0.074 C 
HETATM   32 CL1  UNL     1      28.826   7.909  47.118  1.00  0.00    -0.081 Cl
HETATM   33  C15 UNL     1      26.454   7.074  48.504  1.00  0.00     0.042 C 
ENDBRANCH   4  27
TORSDOF 7
ENDMDL
MODEL 6
REMARK VINA RESULT:      -8.7      3.810      7.872
REMARK  7 active torsions:
REMARK  status: ('A' for Active; 'I' for Inactive)
REMARK    1  A    between atoms: N1_2  and  C3_4 
REMARK    2  A    between atoms: C3_4  and  C4_5 
REMARK    3  A    between atoms: C5_6  and  C6_7 
REMARK       I    between atoms: C6_7  and  N2_9 
REMARK    4  A    between atoms: N2_9  and  C7_10 
REMARK    5  A    between atoms: C10_13  and  C11_14 
REMARK    6  A    between atoms: C19_26  and  O2_27 
REMARK    7  A    between atoms: O2_27  and  C20_28 
ROOT
HETATM    1  C7  UNL     1      23.285   1.525  51.268  1.00  0.00     0.069 A 
HETATM    2  C8  UNL     1      24.263   1.207  52.185  1.00  0.00     0.048 A 
HETATM    3  C9  UNL     1      24.117   0.334  53.214  1.00  0.00     0.025 A 
HETATM    4  C10 UNL     1      25.118   0.039  54.116  1.00  0.00     0.082 A 
HETATM    5  N3  UNL     1      24.910  -0.831  55.112  1.00  0.00    -0.240 NA
HETATM    6  C16 UNL     1      23.735  -1.454  55.287  1.00  0.00     0.234 A 
HETATM    7  N4  UNL     1      22.741  -1.177  54.413  1.00  0.00    -0.241 NA
HETATM    8  C17 UNL     1      22.905  -0.314  53.402  1.00  0.00     0.073 A 
HETATM    9  C18 UNL     1      21.896  -0.018  52.498  1.00  0.00     0.071 A 
HETATM   10  C19 UNL     1      22.072   0.873  51.459  1.00  0.00     0.098 A 
ENDROOT
BRANCH   1  11
HETATM   11  N2  UNL     1      23.418   2.422  50.180  1.00  0.00    -0.321 N 
HETATM   12  C6  UNL     1      23.398   3.823  50.161  1.00  0.00     0.245 C 
HETATM   13  O1  UNL     1      23.246   4.419  51.247  1.00  0.00    -0.268 OA
HETATM   14  H11 UNL     1      23.553   2.002  49.224  1.00  0.00     0.169 HD
BRANCH  12  15
HETATM   15  C5  UNL     1      23.546   4.581  48.935  1.00  0.00     0.072 C 
HETATM   16  C4  UNL     1      22.548   5.041  48.206  1.00  0.00     0.008 C 
BRANCH  16  17
HETATM   17  C3  UNL     1      21.083   5.041  48.221  1.00  0.00     0.299 C 
BRANCH  17  18
HETATM   18  N1  UNL     1      20.521   5.863  49.271  1.00  0.00     0.083 N 
HETATM   19  C1  UNL     1      19.082   5.585  49.266  1.00  0.00     0.309 C 
HETATM   20  C2  UNL     1      20.712   7.266  49.047  1.00  0.00     0.309 C 
ENDBRANCH  17  18
ENDBRANCH  16  17
ENDBRANCH  12  15
ENDBRANCH   1  11
BRANCH  10  21
HETATM   21  O2  UNL     1      21.060   1.136  50.596  1.00  0.00    -0.341 OA
BRANCH  21  22
HETATM   22  C20 UNL     1      19.989   1.995  50.655  1.00  0.00     0.154 C 
HETATM   23  C21 UNL     1      18.677   1.280  51.011  1.00  0.00     0.061 C 
HETATM   24  C22 UNL     1      17.880   2.467  51.515  1.00  0.00     0.170 C 
HETATM   25  O3  UNL     1      18.742   3.385  52.044  1.00  0.00    -0.389 OA
HETATM   26  C23 UNL     1      20.045   2.982  51.796  1.00  0.00     0.200 C 
ENDBRANCH  21  22
ENDBRANCH  10  21
BRANCH   4  27
HETATM   27  C11 UNL     1      26.430   0.696  53.985  1.00  0.00     0.010 C 
HETATM   28  C12 UNL     1      27.086   1.829  53.925  1.00  0.00     0.031 C 
HETATM   29  C13 UNL     1      28.351   1.683  53.612  1.00  0.00     0.150 C 
HETATM   30  F1  UNL     1      29.045   2.838  53.344  1.00  0.00    -0.203 F 
HETATM   31  C14 UNL     1      28.655   0.254  53.646  1.00  0.00     0.074 C 
HETATM   32 CL1  UNL     1      30.309  -0.254  53.402  1.00  0.00    -0.081 Cl
HETATM   33  C15 UNL     1      27.478  -0.345  53.874  1.00  0.00     0.042 C 
ENDBRANCH   4  27
TORSDOF 7
ENDMDL
MODEL 7
REMARK VINA RESULT:      -8.5      4.313      7.355
REMARK  7 active torsions:
REMARK  status: ('A' for Active; 'I' for Inactive)
REMARK    1  A    between atoms: N1_2  and  C3_4 
REMARK    2  A    between atoms: C3_4  and  C4_5 
REMARK    3  A    between atoms: C5_6  and  C6_7 
REMARK       I    between atoms: C6_7  and  N2_9 
REMARK    4  A    between atoms: N2_9  and  C7_10 
REMARK    5  A    between atoms: C10_13  and  C11_14 
REMARK    6  A    between atoms: C19_26  and  O2_27 
REMARK    7  A    between atoms: O2_27  and  C20_28 
ROOT
HETATM    1  C7  UNL     1      25.960   3.388  49.740  1.00  0.00     0.069 A 
HETATM    2  C8  UNL     1      26.828   4.337  49.248  1.00  0.00     0.048 A 
HETATM    3  C9  UNL     1      26.472   5.570  48.806  1.00  0.00     0.025 A 
HETATM    4  C10 UNL     1      27.369   6.497  48.318  1.00  0.00     0.082 A 
HETATM    5  N3  UNL     1      26.953   7.698  47.896  1.00  0.00    -0.240 NA
HETATM    6  C16 UNL     1      25.662   8.060  47.922  1.00  0.00     0.234 A 
HETATM    7  N4  UNL     1      24.767   7.164  48.397  1.00  0.00    -0.241 NA
HETATM    8  C17 UNL     1      25.139   5.952  48.830  1.00  0.00     0.073 A 
HETATM    9  C18 UNL     1      24.235   5.021  49.318  1.00  0.00     0.071 A 
HETATM   10  C19 UNL     1      24.625   3.774  49.762  1.00  0.00     0.098 A 
ENDROOT
BRANCH   1  11
HETATM   11  N2  UNL     1      26.310   2.100  50.217  1.00  0.00    -0.321 N 
HETATM   12  C6  UNL     1      26.493   1.645  51.529  1.00  0.00     0.245 C 
HETATM   13  O1  UNL     1      26.328   2.463  52.458  1.00  0.00    -0.268 OA
HETATM   14  H11 UNL     1      26.465   1.347  49.497  1.00  0.00     0.169 HD
BRANCH  12  15
HETATM   15  C5  UNL     1      26.860   0.276  51.829  1.00  0.00     0.072 C 
HETATM   16  C4  UNL     1      27.243  -0.162  53.013  1.00  0.00     0.008 C 
BRANCH  16  17
HETATM   17  C3  UNL     1      27.459   0.364  54.363  1.00  0.00     0.299 C 
BRANCH  17  18
HETATM   18  N1  UNL     1      28.856   0.435  54.733  1.00  0.00     0.083 N 
HETATM   19  C1  UNL     1      29.295   1.785  54.369  1.00  0.00     0.309 C 
HETATM   20  C2  UNL     1      29.672  -0.511  54.032  1.00  0.00     0.309 C 
ENDBRANCH  17  18
ENDBRANCH  16  17
ENDBRANCH  12  15
ENDBRANCH   1  11
BRANCH  10  21
HETATM   21  O2  UNL     1      23.710   2.891  50.233  1.00  0.00    -0.341 OA
BRANCH  21  22
HETATM   22  C20 UNL     1      22.965   2.853  51.387  1.00  0.00     0.154 C 
HETATM   23  C21 UNL     1      21.483   3.181  51.145  1.00  0.00     0.061 C 
HETATM   24  C22 UNL     1      20.887   2.551  52.388  1.00  0.00     0.170 C 
HETATM   25  O3  UNL     1      21.671   1.501  52.771  1.00  0.00    -0.389 OA
HETATM   26  C23 UNL     1      22.814   1.475  51.985  1.00  0.00     0.200 C 
ENDBRANCH  21  22
ENDBRANCH  10  21
BRANCH   4  27
HETATM   27  C11 UNL     1      28.801   6.159  48.254  1.00  0.00     0.010 C 
HETATM   28  C12 UNL     1      29.698   5.232  48.021  1.00  0.00     0.031 C 
HETATM   29  C13 UNL     1      30.918   5.598  48.330  1.00  0.00     0.150 C 
HETATM   30  F1  UNL     1      31.873   4.611  48.293  1.00  0.00    -0.203 F 
HETATM   31  C14 UNL     1      30.889   7.026  48.638  1.00  0.00     0.074 C 
HETATM   32 CL1  UNL     1      32.401   7.842  48.959  1.00  0.00    -0.081 Cl
HETATM   33  C15 UNL     1      29.593   7.365  48.591  1.00  0.00     0.042 C 
ENDBRANCH   4  27
TORSDOF 7
ENDMDL
MODEL 8
REMARK VINA RESULT:      -8.4      3.471      6.426
REMARK  7 active torsions:
REMARK  status: ('A' for Active; 'I' for Inactive)
REMARK    1  A    between atoms: N1_2  and  C3_4 
REMARK    2  A    between atoms: C3_4  and  C4_5 
REMARK    3  A    between atoms: C5_6  and  C6_7 
REMARK       I    between atoms: C6_7  and  N2_9 
REMARK    4  A    between atoms: N2_9  and  C7_10 
REMARK    5  A    between atoms: C10_13  and  C11_14 
REMARK    6  A    between atoms: C19_26  and  O2_27 
REMARK    7  A    between atoms: O2_27  and  C20_28 
ROOT
HETATM    1  C7  UNL     1      24.196   3.310  50.761  1.00  0.00     0.069 A 
HETATM    2  C8  UNL     1      24.829   2.478  51.659  1.00  0.00     0.048 A 
HETATM    3  C9  UNL     1      24.269   1.391  52.246  1.00  0.00     0.025 A 
HETATM    4  C10 UNL     1      24.931   0.578  53.143  1.00  0.00     0.082 A 
HETATM    5  N3  UNL     1      24.321  -0.481  53.690  1.00  0.00    -0.240 NA
HETATM    6  C16 UNL     1      23.052  -0.806  53.403  1.00  0.00     0.234 A 
HETATM    7  N4  UNL     1      22.386  -0.021  52.526  1.00  0.00    -0.241 NA
HETATM    8  C17 UNL     1      22.957   1.048  51.955  1.00  0.00     0.073 A 
HETATM    9  C18 UNL     1      22.287   1.865  51.055  1.00  0.00     0.071 A 
HETATM   10  C19 UNL     1      22.882   2.964  50.471  1.00  0.00     0.098 A 
ENDROOT
BRANCH   1  11
HETATM   11  N2  UNL     1      24.764   4.443  50.127  1.00  0.00    -0.321 N 
HETATM   12  C6  UNL     1      25.953   4.563  49.395  1.00  0.00     0.245 C 
HETATM   13  O1  UNL     1      26.652   3.540  49.246  1.00  0.00    -0.268 OA
HETATM   14  H11 UNL     1      24.235   5.350  50.200  1.00  0.00     0.169 HD
BRANCH  12  15
HETATM   15  C5  UNL     1      26.380   5.821  48.817  1.00  0.00     0.072 C 
HETATM   16  C4  UNL     1      27.605   6.086  48.406  1.00  0.00     0.008 C 
BRANCH  16  17
HETATM   17  C3  UNL     1      28.907   5.418  48.324  1.00  0.00     0.299 C 
BRANCH  17  18
HETATM   18  N1  UNL     1      30.019   6.339  48.231  1.00  0.00     0.083 N 
HETATM   19  C1  UNL     1      29.629   7.332  47.226  1.00  0.00     0.309 C 
HETATM   20  C2  UNL     1      31.233   5.711  47.802  1.00  0.00     0.309 C 
ENDBRANCH  17  18
ENDBRANCH  16  17
ENDBRANCH  12  15
ENDBRANCH   1  11
BRANCH  10  21
HETATM   21  O2  UNL     1      22.194   3.738  49.596  1.00  0.00    -0.341 OA
BRANCH  21  22
HETATM   22  C20 UNL     1      21.016   4.437  49.702  1.00  0.00     0.154 C 
HETATM   23  C21 UNL     1      21.205   5.949  49.503  1.00  0.00     0.061 C 
HETATM   24  C22 UNL     1      19.782   6.328  49.142  1.00  0.00     0.170 C 
HETATM   25  O3  UNL     1      19.183   5.264  48.529  1.00  0.00    -0.389 OA
HETATM   26  C23 UNL     1      20.030   4.167  48.591  1.00  0.00     0.200 C 
ENDBRANCH  21  22
ENDBRANCH  10  21
BRANCH   4  27
HETATM   27  C11 UNL     1      26.325   0.885  53.509  1.00  0.00     0.010 C 
HETATM   28  C12 UNL     1      27.163   1.777  53.976  1.00  0.00     0.031 C 
HETATM   29  C13 UNL     1      28.418   1.409  53.886  1.00  0.00     0.150 C 
HETATM   30  F1  UNL     1      29.353   2.374  54.176  1.00  0.00    -0.203 F 
HETATM   31  C14 UNL     1      28.443   0.006  53.480  1.00  0.00     0.074 C 
HETATM   32 CL1  UNL     1      29.984  -0.815  53.405  1.00  0.00    -0.081 Cl
HETATM   33  C15 UNL     1      27.161  -0.311  53.251  1.00  0.00     0.042 C 
ENDBRANCH   4  27
TORSDOF 7
ENDMDL
MODEL 9
REMARK VINA RESULT:      -8.3      5.551      9.638
REMARK  7 active torsions:
REMARK  status: ('A' for Active; 'I' for Inactive)
REMARK    1  A    between atoms: N1_2  and  C3_4 
REMARK    2  A    between atoms: C3_4  and  C4_5 
REMARK    3  A    between atoms: C5_6  and  C6_7 
REMARK       I    between atoms: C6_7  and  N2_9 
REMARK    4  A    between atoms: N2_9  and  C7_10 
REMARK    5  A    between atoms: C10_13  and  C11_14 
REMARK    6  A    between atoms: C19_26  and  O2_27 
REMARK    7  A    between atoms: O2_27  and  C20_28 
ROOT
HETATM    1  C7  UNL     1      30.401   6.854  48.700  1.00  0.00     0.069 A 
HETATM    2  C8  UNL     1      31.214   5.832  48.261  1.00  0.00     0.048 A 
HETATM    3  C9  UNL     1      32.569   5.876  48.211  1.00  0.00     0.025 A 
HETATM    4  C10 UNL     1      33.354   4.833  47.764  1.00  0.00     0.082 A 
HETATM    5  N3  UNL     1      34.688   4.940  47.739  1.00  0.00    -0.240 NA
HETATM    6  C16 UNL     1      35.327   6.049  48.140  1.00  0.00     0.234 A 
HETATM    7  N4  UNL     1      34.575   7.082  48.582  1.00  0.00    -0.241 NA
HETATM    8  C17 UNL     1      33.237   7.019  48.625  1.00  0.00     0.073 A 
HETATM    9  C18 UNL     1      32.451   8.070  49.074  1.00  0.00     0.071 A 
HETATM   10  C19 UNL     1      31.074   7.998  49.114  1.00  0.00     0.098 A 
ENDROOT
BRANCH   1  11
HETATM   11  N2  UNL     1      28.987   6.827  48.771  1.00  0.00    -0.321 N 
HETATM   12  C6  UNL     1      28.030   7.085  47.780  1.00  0.00     0.245 C 
HETATM   13  O1  UNL     1      28.439   7.384  46.640  1.00  0.00    -0.268 OA
HETATM   14  H11 UNL     1      28.556   6.579  49.700  1.00  0.00     0.169 HD
BRANCH  12  15
HETATM   15  C5  UNL     1      26.607   7.012  48.042  1.00  0.00     0.072 C 
HETATM   16  C4  UNL     1      26.002   6.014  48.658  1.00  0.00     0.008 C 
BRANCH  16  17
HETATM   17  C3  UNL     1      26.346   4.730  49.272  1.00  0.00     0.299 C 
BRANCH  17  18
HETATM   18  N1  UNL     1      25.375   4.281  50.246  1.00  0.00     0.083 N 
HETATM   19  C1  UNL     1      24.551   3.286  49.557  1.00  0.00     0.309 C 
HETATM   20  C2  UNL     1      24.521   5.333  50.712  1.00  0.00     0.309 C 
ENDBRANCH  17  18
ENDBRANCH  16  17
ENDBRANCH  12  15
ENDBRANCH   1  11
BRANCH  10  21
HETATM   21  O2  UNL     1      30.340   9.047  49.559  1.00  0.00    -0.341 OA
BRANCH  21  22
HETATM   22  C20 UNL     1      29.908  10.202  48.953  1.00  0.00     0.154 C 
HETATM   23  C21 UNL     1      30.761  11.423  49.330  1.00  0.00     0.061 C 
HETATM   24  C22 UNL     1      30.418  12.331  48.165  1.00  0.00     0.170 C 
HETATM   25  O3  UNL     1      30.128  11.561  47.075  1.00  0.00    -0.389 OA
HETATM   26  C23 UNL     1      30.098  10.227  47.455  1.00  0.00     0.200 C 
ENDBRANCH  21  22
ENDBRANCH  10  21
BRANCH   4  27
HETATM   27  C11 UNL     1      32.714   3.590  47.300  1.00  0.00     0.010 C 
HETATM   28  C12 UNL     1      31.850   3.044  46.479  1.00  0.00     0.031 C 
HETATM   29  C13 UNL     1      31.627   1.776  46.727  1.00  0.00     0.150 C 
HETATM   30  F1  UNL     1      30.594   1.196  46.031  1.00  0.00    -0.203 F 
HETATM   31  C14 UNL     1      32.601   1.340  47.726  1.00  0.00     0.074 C 
HETATM   32 CL1  UNL     1      32.645  -0.350  48.167  1.00  0.00    -0.081 Cl
HETATM   33  C15 UNL     1      33.263   2.453  48.073  1.00  0.00     0.042 C 
ENDBRANCH   4  27
TORSDOF 7
ENDMDL
