MODEL 1
REMARK VINA RESULT:      -7.5      0.000      0.000
REMARK  10 active torsions:
REMARK  status: ('A' for Active; 'I' for Inactive)
REMARK    1  A    between atoms: O1_2  and  C2_3 
REMARK    2  A    between atoms: C2_3  and  C3_4 
REMARK    3  A    between atoms: C3_4  and  N1_5 
REMARK    4  A    between atoms: N1_5  and  C4_6 
REMARK    5  A    between atoms: C4_6  and  C5_7 
REMARK    6  A    between atoms: C5_7  and  O2_8 
REMARK    7  A    between atoms: O2_8  and  C6_9 
REMARK    8  A    between atoms: C9_12  and  N2_13 
REMARK    9  A    between atoms: N2_13  and  C10_14 
REMARK   10  A    between atoms: C19_26  and  O3_27 
ROOT
HETATM    1  C6  UNL     1      23.942   1.250  53.014  1.00  0.00     0.103 A 
HETATM    2  C7  UNL     1      23.961   2.571  52.570  1.00  0.00     0.057 A 
HETATM    3  C8  UNL     1      22.873   3.256  52.126  1.00  0.00     0.042 A 
HETATM    4  C9  UNL     1      22.900   4.554  51.692  1.00  0.00     0.142 A 
HETATM    5  N3  UNL     1      21.731   5.084  51.285  1.00  0.00    -0.224 NA
HETATM    6  C16 UNL     1      20.568   4.421  51.282  1.00  0.00     0.236 A 
HETATM    7  N4  UNL     1      20.547   3.152  51.709  1.00  0.00    -0.241 NA
HETATM    8  C17 UNL     1      21.689   2.541  52.138  1.00  0.00     0.075 A 
HETATM    9  C18 UNL     1      21.633   1.237  52.569  1.00  0.00     0.072 A 
HETATM   10  C19 UNL     1      22.734   0.552  53.016  1.00  0.00     0.103 A 
ENDROOT
BRANCH   1  11
HETATM   11  O2  UNL     1      25.128   0.635  53.453  1.00  0.00    -0.347 OA
BRANCH  11  12
HETATM   12  C5  UNL     1      25.974   0.072  52.506  1.00  0.00     0.195 C 
BRANCH  12  13
HETATM   13  C4  UNL     1      26.443  -1.313  52.760  1.00  0.00     0.140 C 
BRANCH  13  14
HETATM   14  N1  UNL     1      27.572  -1.439  53.608  1.00  0.00    -0.417 N 
HETATM   15  H8  UNL     1      27.435  -1.687  54.582  1.00  0.00     0.153 HD
BRANCH  14  16
HETATM   16  C3  UNL     1      28.622  -0.462  53.393  1.00  0.00     0.140 C 
BRANCH  16  17
HETATM   17  C2  UNL     1      28.899   0.329  54.642  1.00  0.00     0.186 C 
BRANCH  17  18
HETATM   18  O1  UNL     1      28.302   1.565  54.664  1.00  0.00    -0.394 OA
HETATM   19  C1  UNL     1      28.698   2.430  53.684  1.00  0.00     0.201 C 
ENDBRANCH  17  18
ENDBRANCH  16  17
ENDBRANCH  14  16
ENDBRANCH  13  14
ENDBRANCH  12  13
ENDBRANCH  11  12
ENDBRANCH   1  11
BRANCH  10  20
HETATM   20  O3  UNL     1      22.699  -0.759  53.451  1.00  0.00    -0.353 OA
HETATM   21  C20 UNL     1      22.163  -0.999  54.756  1.00  0.00     0.210 C 
ENDBRANCH  10  20
BRANCH   4  22
HETATM   22  N2  UNL     1      24.108   5.278  51.698  1.00  0.00    -0.340 N 
HETATM   23  H14 UNL     1      24.430   5.794  52.540  1.00  0.00     0.167 HD
BRANCH  22  24
HETATM   24  C10 UNL     1      25.080   5.459  50.676  1.00  0.00     0.033 A 
HETATM   25  C11 UNL     1      25.753   4.433  50.015  1.00  0.00     0.032 A 
HETATM   26  C12 UNL     1      26.675   4.679  49.026  1.00  0.00     0.044 A 
HETATM   27  C13 UNL     1      26.989   5.950  48.631  1.00  0.00     0.116 A 
HETATM   28  F1  UNL     1      27.905   6.144  47.653  1.00  0.00    -0.206 F 
HETATM   29  C14 UNL     1      26.343   6.998  49.262  1.00  0.00     0.044 A 
HETATM   30  C15 UNL     1      25.415   6.730  50.258  1.00  0.00     0.032 A 
ENDBRANCH  22  24
ENDBRANCH   4  22
TORSDOF 10
ENDMDL
MODEL 2
REMARK VINA RESULT:      -7.4      3.217      6.183
REMARK  10 active torsions:
REMARK  status: ('A' for Active; 'I' for Inactive)
REMARK    1  A    between atoms: O1_2  and  C2_3 
REMARK    2  A    between atoms: C2_3  and  C3_4 
REMARK    3  A    between atoms: C3_4  and  N1_5 
REMARK    4  A    between atoms: N1_5  and  C4_6 
REMARK    5  A    between atoms: C4_6  and  C5_7 
REMARK    6  A    between atoms: C5_7  and  O2_8 
REMARK    7  A    between atoms: O2_8  and  C6_9 
REMARK    8  A    between atoms: C9_12  and  N2_13 
REMARK    9  A    between atoms: N2_13  and  C10_14 
REMARK   10  A    between atoms: C19_26  and  O3_27 
ROOT
HETATM    1  C6  UNL     1      21.154   0.829  51.543  1.00  0.00     0.103 A 
HETATM    2  C7  UNL     1      22.409   0.590  52.100  1.00  0.00     0.057 A 
HETATM    3  C8  UNL     1      22.631  -0.128  53.234  1.00  0.00     0.042 A 
HETATM    4  C9  UNL     1      23.867  -0.359  53.775  1.00  0.00     0.142 A 
HETATM    5  N3  UNL     1      23.911  -1.091  54.904  1.00  0.00    -0.224 NA
HETATM    6  C16 UNL     1      22.830  -1.594  55.513  1.00  0.00     0.236 A 
HETATM    7  N4  UNL     1      21.622  -1.366  54.980  1.00  0.00    -0.241 NA
HETATM    8  C17 UNL     1      21.492  -0.633  53.836  1.00  0.00     0.075 A 
HETATM    9  C18 UNL     1      20.239  -0.416  53.315  1.00  0.00     0.072 A 
HETATM   10  C19 UNL     1      20.022   0.308  52.171  1.00  0.00     0.103 A 
ENDROOT
BRANCH   1  11
HETATM   11  O2  UNL     1      21.038   1.587  50.365  1.00  0.00    -0.347 OA
BRANCH  11  12
HETATM   12  C5  UNL     1      21.934   1.348  49.331  1.00  0.00     0.195 C 
BRANCH  12  13
HETATM   13  C4  UNL     1      22.254   2.491  48.438  1.00  0.00     0.140 C 
BRANCH  13  14
HETATM   14  N1  UNL     1      22.970   3.560  49.033  1.00  0.00    -0.417 N 
HETATM   15  H8  UNL     1      22.916   4.484  48.619  1.00  0.00     0.153 HD
BRANCH  14  16
HETATM   16  C3  UNL     1      24.285   3.219  49.541  1.00  0.00     0.140 C 
BRANCH  16  17
HETATM   17  C2  UNL     1      24.408   3.544  51.004  1.00  0.00     0.186 C 
BRANCH  17  18
HETATM   18  O1  UNL     1      25.355   2.800  51.663  1.00  0.00    -0.394 OA
HETATM   19  C1  UNL     1      26.582   2.742  51.066  1.00  0.00     0.201 C 
ENDBRANCH  17  18
ENDBRANCH  16  17
ENDBRANCH  14  16
ENDBRANCH  13  14
ENDBRANCH  12  13
ENDBRANCH  11  12
ENDBRANCH   1  11
BRANCH  10  20
HETATM   20  O3  UNL     1      18.772   0.539  51.633  1.00  0.00    -0.353 OA
HETATM   21  C20 UNL     1      17.789  -0.489  51.800  1.00  0.00     0.210 C 
ENDBRANCH  10  20
BRANCH   4  22
HETATM   22  N2  UNL     1      25.020   0.146  53.145  1.00  0.00    -0.340 N 
HETATM   23  H14 UNL     1      24.962   0.848  52.382  1.00  0.00     0.167 HD
BRANCH  22  24
HETATM   24  C10 UNL     1      26.395  -0.139  53.372  1.00  0.00     0.033 A 
HETATM   25  C11 UNL     1      27.242   0.590  54.205  1.00  0.00     0.032 A 
HETATM   26  C12 UNL     1      28.561   0.253  54.388  1.00  0.00     0.044 A 
HETATM   27  C13 UNL     1      29.125  -0.824  53.761  1.00  0.00     0.116 A 
HETATM   28  F1  UNL     1      30.429  -1.119  53.970  1.00  0.00    -0.206 F 
HETATM   29  C14 UNL     1      28.319  -1.576  52.925  1.00  0.00     0.044 A 
HETATM   30  C15 UNL     1      26.989  -1.219  52.753  1.00  0.00     0.032 A 
ENDBRANCH  22  24
ENDBRANCH   4  22
TORSDOF 10
ENDMDL
MODEL 3
REMARK VINA RESULT:      -7.3      3.195      6.237
REMARK  10 active torsions:
REMARK  status: ('A' for Active; 'I' for Inactive)
REMARK    1  A    between atoms: O1_2  and  C2_3 
REMARK    2  A    between atoms: C2_3  and  C3_4 
REMARK    3  A    between atoms: C3_4  and  N1_5 
REMARK    4  A    between atoms: N1_5  and  C4_6 
REMARK    5  A    between atoms: C4_6  and  C5_7 
REMARK    6  A    between atoms: C5_7  and  O2_8 
REMARK    7  A    between atoms: O2_8  and  C6_9 
REMARK    8  A    between atoms: C9_12  and  N2_13 
REMARK    9  A    between atoms: N2_13  and  C10_14 
REMARK   10  A    between atoms: C19_26  and  O3_27 
ROOT
HETATM    1  C6  UNL     1      21.859   2.759  52.032  1.00  0.00     0.103 A 
HETATM    2  C7  UNL     1      22.977   1.983  52.334  1.00  0.00     0.057 A 
HETATM    3  C8  UNL     1      22.968   0.898  53.154  1.00  0.00     0.042 A 
HETATM    4  C9  UNL     1      24.070   0.139  53.446  1.00  0.00     0.142 A 
HETATM    5  N3  UNL     1      23.888  -0.904  54.278  1.00  0.00    -0.224 NA
HETATM    6  C16 UNL     1      22.710  -1.231  54.824  1.00  0.00     0.236 A 
HETATM    7  N4  UNL     1      21.635  -0.486  54.535  1.00  0.00    -0.241 NA
HETATM    8  C17 UNL     1      21.734   0.588  53.699  1.00  0.00     0.075 A 
HETATM    9  C18 UNL     1      20.613   1.332  53.423  1.00  0.00     0.072 A 
HETATM   10  C19 UNL     1      20.628   2.425  52.595  1.00  0.00     0.103 A 
ENDROOT
BRANCH   1  11
HETATM   11  O2  UNL     1      21.980   3.863  51.170  1.00  0.00    -0.347 OA
BRANCH  11  12
HETATM   12  C5  UNL     1      22.566   5.025  51.656  1.00  0.00     0.195 C 
BRANCH  12  13
HETATM   13  C4  UNL     1      23.837   5.456  51.022  1.00  0.00     0.140 C 
BRANCH  13  14
HETATM   14  N1  UNL     1      24.935   4.572  51.172  1.00  0.00    -0.417 N 
HETATM   15  H8  UNL     1      25.486   4.607  52.022  1.00  0.00     0.153 HD
BRANCH  14  16
HETATM   16  C3  UNL     1      25.718   4.346  49.973  1.00  0.00     0.140 C 
BRANCH  16  17
HETATM   17  C2  UNL     1      25.709   5.553  49.076  1.00  0.00     0.186 C 
BRANCH  17  18
HETATM   18  O1  UNL     1      26.943   6.129  48.902  1.00  0.00    -0.394 OA
HETATM   19  C1  UNL     1      27.937   5.285  48.498  1.00  0.00     0.201 C 
ENDBRANCH  17  18
ENDBRANCH  16  17
ENDBRANCH  14  16
ENDBRANCH  13  14
ENDBRANCH  12  13
ENDBRANCH  11  12
ENDBRANCH   1  11
BRANCH  10  20
HETATM   20  O3  UNL     1      19.512   3.187  52.307  1.00  0.00    -0.353 OA
HETATM   21  C20 UNL     1      18.485   2.570  51.523  1.00  0.00     0.210 C 
ENDBRANCH  10  20
BRANCH   4  22
HETATM   22  N2  UNL     1      25.317   0.453  52.874  1.00  0.00    -0.340 N 
HETATM   23  H14 UNL     1      25.404   1.137  52.098  1.00  0.00     0.167 HD
BRANCH  22  24
HETATM   24  C10 UNL     1      26.620  -0.027  53.180  1.00  0.00     0.033 A 
HETATM   25  C11 UNL     1      27.170  -1.218  52.709  1.00  0.00     0.032 A 
HETATM   26  C12 UNL     1      28.443  -1.618  53.037  1.00  0.00     0.044 A 
HETATM   27  C13 UNL     1      29.250  -0.870  53.848  1.00  0.00     0.116 A 
HETATM   28  F1  UNL     1      30.497  -1.304  54.145  1.00  0.00    -0.206 F 
HETATM   29  C14 UNL     1      28.742   0.321  54.338  1.00  0.00     0.044 A 
HETATM   30  C15 UNL     1      27.454   0.708  53.996  1.00  0.00     0.032 A 
ENDBRANCH  22  24
ENDBRANCH   4  22
TORSDOF 10
ENDMDL
MODEL 4
REMARK VINA RESULT:      -7.1      3.791      6.394
REMARK  10 active torsions:
REMARK  status: ('A' for Active; 'I' for Inactive)
REMARK    1  A    between atoms: O1_2  and  C2_3 
REMARK    2  A    between atoms: C2_3  and  C3_4 
REMARK    3  A    between atoms: C3_4  and  N1_5 
REMARK    4  A    between atoms: N1_5  and  C4_6 
REMARK    5  A    between atoms: C4_6  and  C5_7 
REMARK    6  A    between atoms: C5_7  and  O2_8 
REMARK    7  A    between atoms: O2_8  and  C6_9 
REMARK    8  A    between atoms: C9_12  and  N2_13 
REMARK    9  A    between atoms: N2_13  and  C10_14 
REMARK   10  A    between atoms: C19_26  and  O3_27 
ROOT
HETATM    1  C6  UNL     1      24.511   3.409  50.182  1.00  0.00     0.103 A 
HETATM    2  C7  UNL     1      24.744   2.644  51.324  1.00  0.00     0.057 A 
HETATM    3  C8  UNL     1      23.919   1.665  51.783  1.00  0.00     0.042 A 
HETATM    4  C9  UNL     1      24.155   0.917  52.905  1.00  0.00     0.142 A 
HETATM    5  N3  UNL     1      23.234  -0.013  53.221  1.00  0.00    -0.224 NA
HETATM    6  C16 UNL     1      22.123  -0.241  52.509  1.00  0.00     0.236 A 
HETATM    7  N4  UNL     1      21.898   0.493  51.411  1.00  0.00    -0.241 NA
HETATM    8  C17 UNL     1      22.782   1.456  51.022  1.00  0.00     0.075 A 
HETATM    9  C18 UNL     1      22.521   2.193  49.892  1.00  0.00     0.072 A 
HETATM   10  C19 UNL     1      23.357   3.178  49.433  1.00  0.00     0.103 A 
ENDROOT
BRANCH   1  11
HETATM   11  O2  UNL     1      25.433   4.399  49.796  1.00  0.00    -0.347 OA
BRANCH  11  12
HETATM   12  C5  UNL     1      26.773   4.051  49.684  1.00  0.00     0.195 C 
BRANCH  12  13
HETATM   13  C4  UNL     1      27.551   4.706  48.603  1.00  0.00     0.140 C 
BRANCH  13  14
HETATM   14  N1  UNL     1      28.424   5.746  49.010  1.00  0.00    -0.417 N 
HETATM   15  H8  UNL     1      28.037   6.580  49.437  1.00  0.00     0.153 HD
BRANCH  14  16
HETATM   16  C3  UNL     1      29.539   6.005  48.120  1.00  0.00     0.140 C 
BRANCH  16  17
HETATM   17  C2  UNL     1      30.853   5.907  48.845  1.00  0.00     0.186 C 
BRANCH  17  18
HETATM   18  O1  UNL     1      31.624   4.838  48.460  1.00  0.00    -0.394 OA
HETATM   19  C1  UNL     1      32.931   5.121  48.184  1.00  0.00     0.201 C 
ENDBRANCH  17  18
ENDBRANCH  16  17
ENDBRANCH  14  16
ENDBRANCH  13  14
ENDBRANCH  12  13
ENDBRANCH  11  12
ENDBRANCH   1  11
BRANCH  10  20
HETATM   20  O3  UNL     1      23.112   3.930  48.302  1.00  0.00    -0.353 OA
HETATM   21  C20 UNL     1      22.048   3.496  47.447  1.00  0.00     0.210 C 
ENDBRANCH  10  20
BRANCH   4  22
HETATM   22  N2  UNL     1      25.323   1.126  53.663  1.00  0.00    -0.340 N 
HETATM   23  H14 UNL     1      25.379   1.872  54.383  1.00  0.00     0.167 HD
BRANCH  22  24
HETATM   24  C10 UNL     1      26.572   0.447  53.639  1.00  0.00     0.033 A 
HETATM   25  C11 UNL     1      26.802  -0.793  53.046  1.00  0.00     0.032 A 
HETATM   26  C12 UNL     1      28.040  -1.390  53.050  1.00  0.00     0.044 A 
HETATM   27  C13 UNL     1      29.124  -0.800  53.638  1.00  0.00     0.116 A 
HETATM   28  F1  UNL     1      30.324  -1.425  53.618  1.00  0.00    -0.206 F 
HETATM   29  C14 UNL     1      28.939   0.433  54.238  1.00  0.00     0.044 A 
HETATM   30  C15 UNL     1      27.682   1.019  54.224  1.00  0.00     0.032 A 
ENDBRANCH  22  24
ENDBRANCH   4  22
TORSDOF 10
ENDMDL
MODEL 5
REMARK VINA RESULT:      -7.0      2.982      5.472
REMARK  10 active torsions:
REMARK  status: ('A' for Active; 'I' for Inactive)
REMARK    1  A    between atoms: O1_2  and  C2_3 
REMARK    2  A    between atoms: C2_3  and  C3_4 
REMARK    3  A    between atoms: C3_4  and  N1_5 
REMARK    4  A    between atoms: N1_5  and  C4_6 
REMARK    5  A    between atoms: C4_6  and  C5_7 
REMARK    6  A    between atoms: C5_7  and  O2_8 
REMARK    7  A    between atoms: O2_8  and  C6_9 
REMARK    8  A    between atoms: C9_12  and  N2_13 
REMARK    9  A    between atoms: N2_13  and  C10_14 
REMARK   10  A    between atoms: C19_26  and  O3_27 
ROOT
HETATM    1  C6  UNL     1      25.881   0.644  52.460  1.00  0.00     0.103 A 
HETATM    2  C7  UNL     1      24.539   1.016  52.397  1.00  0.00     0.057 A 
HETATM    3  C8  UNL     1      23.550   0.483  53.163  1.00  0.00     0.042 A 
HETATM    4  C9  UNL     1      22.234   0.854  53.096  1.00  0.00     0.142 A 
HETATM    5  N3  UNL     1      21.381   0.226  53.927  1.00  0.00    -0.224 NA
HETATM    6  C16 UNL     1      21.745  -0.723  54.798  1.00  0.00     0.236 A 
HETATM    7  N4  UNL     1      23.034  -1.082  54.861  1.00  0.00    -0.241 NA
HETATM    8  C17 UNL     1      23.963  -0.493  54.053  1.00  0.00     0.075 A 
HETATM    9  C18 UNL     1      25.277  -0.884  54.142  1.00  0.00     0.072 A 
HETATM   10  C19 UNL     1      26.270  -0.343  53.366  1.00  0.00     0.103 A 
ENDROOT
BRANCH   1  11
HETATM   11  O2  UNL     1      26.824   1.260  51.619  1.00  0.00    -0.347 OA
BRANCH  11  12
HETATM   12  C5  UNL     1      26.755   2.636  51.439  1.00  0.00     0.195 C 
BRANCH  12  13
HETATM   13  C4  UNL     1      26.495   3.123  50.061  1.00  0.00     0.140 C 
BRANCH  13  14
HETATM   14  N1  UNL     1      26.915   4.448  49.784  1.00  0.00    -0.417 N 
HETATM   15  H8  UNL     1      27.474   4.945  50.468  1.00  0.00     0.153 HD
BRANCH  14  16
HETATM   16  C3  UNL     1      25.938   5.280  49.107  1.00  0.00     0.140 C 
BRANCH  16  17
HETATM   17  C2  UNL     1      26.413   6.703  48.999  1.00  0.00     0.186 C 
BRANCH  17  18
HETATM   18  O1  UNL     1      26.182   7.456  50.123  1.00  0.00    -0.394 OA
HETATM   19  C1  UNL     1      25.162   8.359  50.031  1.00  0.00     0.201 C 
ENDBRANCH  17  18
ENDBRANCH  16  17
ENDBRANCH  14  16
ENDBRANCH  13  14
ENDBRANCH  12  13
ENDBRANCH  11  12
ENDBRANCH   1  11
BRANCH  10  20
HETATM   20  O3  UNL     1      27.596  -0.723  53.439  1.00  0.00    -0.353 OA
HETATM   21  C20 UNL     1      28.409  -0.071  54.420  1.00  0.00     0.210 C 
ENDBRANCH  10  20
BRANCH   4  22
HETATM   22  N2  UNL     1      21.827   1.859  52.198  1.00  0.00    -0.340 N 
HETATM   23  H14 UNL     1      21.332   2.712  52.522  1.00  0.00     0.167 HD
BRANCH  22  24
HETATM   24  C10 UNL     1      21.977   1.952  50.787  1.00  0.00     0.033 A 
HETATM   25  C11 UNL     1      21.497   1.024  49.864  1.00  0.00     0.032 A 
HETATM   26  C12 UNL     1      21.668   1.181  48.510  1.00  0.00     0.044 A 
HETATM   27  C13 UNL     1      22.322   2.261  47.984  1.00  0.00     0.116 A 
HETATM   28  F1  UNL     1      22.468   2.373  46.643  1.00  0.00    -0.206 F 
HETATM   29  C14 UNL     1      22.815   3.206  48.866  1.00  0.00     0.044 A 
HETATM   30  C15 UNL     1      22.632   3.030  50.230  1.00  0.00     0.032 A 
ENDBRANCH  22  24
ENDBRANCH   4  22
TORSDOF 10
ENDMDL
MODEL 6
REMARK VINA RESULT:      -6.9      3.186      6.158
REMARK  10 active torsions:
REMARK  status: ('A' for Active; 'I' for Inactive)
REMARK    1  A    between atoms: O1_2  and  C2_3 
REMARK    2  A    between atoms: C2_3  and  C3_4 
REMARK    3  A    between atoms: C3_4  and  N1_5 
REMARK    4  A    between atoms: N1_5  and  C4_6 
REMARK    5  A    between atoms: C4_6  and  C5_7 
REMARK    6  A    between atoms: C5_7  and  O2_8 
REMARK    7  A    between atoms: O2_8  and  C6_9 
REMARK    8  A    between atoms: C9_12  and  N2_13 
REMARK    9  A    between atoms: N2_13  and  C10_14 
REMARK   10  A    between atoms: C19_26  and  O3_27 
ROOT
HETATM    1  C6  UNL     1      22.109   2.346  50.633  1.00  0.00     0.103 A 
HETATM    2  C7  UNL     1      23.379   2.043  51.121  1.00  0.00     0.057 A 
HETATM    3  C8  UNL     1      24.530   2.642  50.713  1.00  0.00     0.042 A 
HETATM    4  C9  UNL     1      25.774   2.339  51.197  1.00  0.00     0.142 A 
HETATM    5  N3  UNL     1      26.811   3.027  50.685  1.00  0.00    -0.224 NA
HETATM    6  C16 UNL     1      26.692   3.974  49.746  1.00  0.00     0.236 A 
HETATM    7  N4  UNL     1      25.472   4.268  49.276  1.00  0.00    -0.241 NA
HETATM    8  C17 UNL     1      24.369   3.616  49.743  1.00  0.00     0.075 A 
HETATM    9  C18 UNL     1      23.132   3.940  49.240  1.00  0.00     0.072 A 
HETATM   10  C19 UNL     1      21.975   3.332  49.655  1.00  0.00     0.103 A 
ENDROOT
BRANCH   1  11
HETATM   11  O2  UNL     1      20.982   1.663  51.125  1.00  0.00    -0.347 OA
BRANCH  11  12
HETATM   12  C5  UNL     1      20.485   2.015  52.373  1.00  0.00     0.195 C 
BRANCH  12  13
HETATM   13  C4  UNL     1      20.346   0.928  53.375  1.00  0.00     0.140 C 
BRANCH  13  14
HETATM   14  N1  UNL     1      21.534   0.551  54.048  1.00  0.00    -0.417 N 
HETATM   15  H8  UNL     1      22.202   1.265  54.314  1.00  0.00     0.153 HD
BRANCH  14  16
HETATM   16  C3  UNL     1      22.144  -0.681  53.587  1.00  0.00     0.140 C 
BRANCH  16  17
HETATM   17  C2  UNL     1      21.988  -1.782  54.599  1.00  0.00     0.186 C 
BRANCH  17  18
HETATM   18  O1  UNL     1      22.818  -1.663  55.687  1.00  0.00    -0.394 OA
HETATM   19  C1  UNL     1      24.113  -1.331  55.408  1.00  0.00     0.201 C 
ENDBRANCH  17  18
ENDBRANCH  16  17
ENDBRANCH  14  16
ENDBRANCH  13  14
ENDBRANCH  12  13
ENDBRANCH  11  12
ENDBRANCH   1  11
BRANCH  10  20
HETATM   20  O3  UNL     1      20.723   3.642  49.160  1.00  0.00    -0.353 OA
HETATM   21  C20 UNL     1      20.156   4.895  49.558  1.00  0.00     0.210 C 
ENDBRANCH  10  20
BRANCH   4  22
HETATM   22  N2  UNL     1      25.925   1.358  52.196  1.00  0.00    -0.340 N 
HETATM   23  H14 UNL     1      25.111   0.985  52.722  1.00  0.00     0.167 HD
BRANCH  22  24
HETATM   24  C10 UNL     1      27.092   0.702  52.676  1.00  0.00     0.033 A 
HETATM   25  C11 UNL     1      28.216   1.340  53.197  1.00  0.00     0.032 A 
HETATM   26  C12 UNL     1      29.309   0.644  53.655  1.00  0.00     0.044 A 
HETATM   27  C13 UNL     1      29.359  -0.722  53.626  1.00  0.00     0.116 A 
HETATM   28  F1  UNL     1      30.457  -1.366  54.087  1.00  0.00    -0.206 F 
HETATM   29  C14 UNL     1      28.263  -1.395  53.116  1.00  0.00     0.044 A 
HETATM   30  C15 UNL     1      27.169  -0.675  52.659  1.00  0.00     0.032 A 
ENDBRANCH  22  24
ENDBRANCH   4  22
TORSDOF 10
ENDMDL
MODEL 7
REMARK VINA RESULT:      -6.9      3.982      8.032
REMARK  10 active torsions:
REMARK  status: ('A' for Active; 'I' for Inactive)
REMARK    1  A    between atoms: O1_2  and  C2_3 
REMARK    2  A    between atoms: C2_3  and  C3_4 
REMARK    3  A    between atoms: C3_4  and  N1_5 
REMARK    4  A    between atoms: N1_5  and  C4_6 
REMARK    5  A    between atoms: C4_6  and  C5_7 
REMARK    6  A    between atoms: C5_7  and  O2_8 
REMARK    7  A    between atoms: O2_8  and  C6_9 
REMARK    8  A    between atoms: C9_12  and  N2_13 
REMARK    9  A    between atoms: N2_13  and  C10_14 
REMARK   10  A    between atoms: C19_26  and  O3_27 
ROOT
HETATM    1  C6  UNL     1      24.637   4.168  50.582  1.00  0.00     0.103 A 
HETATM    2  C7  UNL     1      24.195   3.217  51.501  1.00  0.00     0.057 A 
HETATM    3  C8  UNL     1      24.886   2.100  51.853  1.00  0.00     0.042 A 
HETATM    4  C9  UNL     1      24.446   1.171  52.757  1.00  0.00     0.142 A 
HETATM    5  N3  UNL     1      25.255   0.120  52.993  1.00  0.00    -0.224 NA
HETATM    6  C16 UNL     1      26.442  -0.060  52.400  1.00  0.00     0.236 A 
HETATM    7  N4  UNL     1      26.868   0.852  51.517  1.00  0.00    -0.241 NA
HETATM    8  C17 UNL     1      26.109   1.947  51.223  1.00  0.00     0.075 A 
HETATM    9  C18 UNL     1      26.574   2.864  50.311  1.00  0.00     0.072 A 
HETATM   10  C19 UNL     1      25.873   3.989  49.961  1.00  0.00     0.103 A 
ENDROOT
BRANCH   1  11
HETATM   11  O2  UNL     1      23.841   5.289  50.290  1.00  0.00    -0.347 OA
BRANCH  11  12
HETATM   12  C5  UNL     1      23.874   6.372  51.158  1.00  0.00     0.195 C 
BRANCH  12  13
HETATM   13  C4  UNL     1      24.599   7.583  50.700  1.00  0.00     0.140 C 
BRANCH  13  14
HETATM   14  N1  UNL     1      26.012   7.537  50.808  1.00  0.00    -0.417 N 
HETATM   15  H8  UNL     1      26.440   7.566  51.726  1.00  0.00     0.153 HD
BRANCH  14  16
HETATM   16  C3  UNL     1      26.736   8.284  49.798  1.00  0.00     0.140 C 
BRANCH  16  17
HETATM   17  C2  UNL     1      25.882   8.538  48.587  1.00  0.00     0.186 C 
BRANCH  17  18
HETATM   18  O1  UNL     1      26.306   7.882  47.457  1.00  0.00    -0.394 OA
HETATM   19  C1  UNL     1      26.463   8.660  46.346  1.00  0.00     0.201 C 
ENDBRANCH  17  18
ENDBRANCH  16  17
ENDBRANCH  14  16
ENDBRANCH  13  14
ENDBRANCH  12  13
ENDBRANCH  11  12
ENDBRANCH   1  11
BRANCH  10  20
HETATM   20  O3  UNL     1      26.322   4.921  49.046  1.00  0.00    -0.353 OA
HETATM   21  C20 UNL     1      27.697   4.839  48.653  1.00  0.00     0.210 C 
ENDBRANCH  10  20
BRANCH   4  22
HETATM   22  N2  UNL     1      23.208   1.344  53.405  1.00  0.00    -0.340 N 
HETATM   23  H14 UNL     1      22.981   2.214  53.923  1.00  0.00     0.167 HD
BRANCH  22  24
HETATM   24  C10 UNL     1      22.086   0.475  53.497  1.00  0.00     0.033 A 
HETATM   25  C11 UNL     1      20.874   0.654  52.833  1.00  0.00     0.032 A 
HETATM   26  C12 UNL     1      19.831  -0.232  52.959  1.00  0.00     0.044 A 
HETATM   27  C13 UNL     1      19.921  -1.347  53.746  1.00  0.00     0.116 A 
HETATM   28  F1  UNL     1      18.868  -2.192  53.841  1.00  0.00    -0.206 F 
HETATM   29  C14 UNL     1      21.109  -1.562  54.423  1.00  0.00     0.044 A 
HETATM   30  C15 UNL     1      22.150  -0.656  54.284  1.00  0.00     0.032 A 
ENDBRANCH  22  24
ENDBRANCH   4  22
TORSDOF 10
ENDMDL
MODEL 8
REMARK VINA RESULT:      -6.9      3.090      6.670
REMARK  10 active torsions:
REMARK  status: ('A' for Active; 'I' for Inactive)
REMARK    1  A    between atoms: O1_2  and  C2_3 
REMARK    2  A    between atoms: C2_3  and  C3_4 
REMARK    3  A    between atoms: C3_4  and  N1_5 
REMARK    4  A    between atoms: N1_5  and  C4_6 
REMARK    5  A    between atoms: C4_6  and  C5_7 
REMARK    6  A    between atoms: C5_7  and  O2_8 
REMARK    7  A    between atoms: O2_8  and  C6_9 
REMARK    8  A    between atoms: C9_12  and  N2_13 
REMARK    9  A    between atoms: N2_13  and  C10_14 
REMARK   10  A    between atoms: C19_26  and  O3_27 
ROOT
HETATM    1  C6  UNL     1      26.299   0.741  52.413  1.00  0.00     0.103 A 
HETATM    2  C7  UNL     1      24.957   0.366  52.449  1.00  0.00     0.057 A 
HETATM    3  C8  UNL     1      24.362  -0.286  53.485  1.00  0.00     0.042 A 
HETATM    4  C9  UNL     1      23.043  -0.650  53.514  1.00  0.00     0.142 A 
HETATM    5  N3  UNL     1      22.612  -1.290  54.618  1.00  0.00    -0.224 NA
HETATM    6  C16 UNL     1      23.392  -1.583  55.666  1.00  0.00     0.236 A 
HETATM    7  N4  UNL     1      24.681  -1.223  55.633  1.00  0.00    -0.241 NA
HETATM    8  C17 UNL     1      25.196  -0.571  54.552  1.00  0.00     0.075 A 
HETATM    9  C18 UNL     1      26.524  -0.216  54.548  1.00  0.00     0.072 A 
HETATM   10  C19 UNL     1      27.118   0.441  53.501  1.00  0.00     0.103 A 
ENDROOT
BRANCH   1  11
HETATM   11  O2  UNL     1      26.813   1.412  51.289  1.00  0.00    -0.347 OA
BRANCH  11  12
HETATM   12  C5  UNL     1      26.795   2.800  51.279  1.00  0.00     0.195 C 
BRANCH  12  13
HETATM   13  C4  UNL     1      26.571   3.463  49.970  1.00  0.00     0.140 C 
BRANCH  13  14
HETATM   14  N1  UNL     1      26.166   4.820  50.023  1.00  0.00    -0.417 N 
HETATM   15  H8  UNL     1      26.172   5.305  50.913  1.00  0.00     0.153 HD
BRANCH  14  16
HETATM   16  C3  UNL     1      25.043   5.166  49.174  1.00  0.00     0.140 C 
BRANCH  16  17
HETATM   17  C2  UNL     1      23.780   4.490  49.632  1.00  0.00     0.186 C 
BRANCH  17  18
HETATM   18  O1  UNL     1      23.493   4.685  50.961  1.00  0.00    -0.394 OA
HETATM   19  C1  UNL     1      22.740   5.788  51.247  1.00  0.00     0.201 C 
ENDBRANCH  17  18
ENDBRANCH  16  17
ENDBRANCH  14  16
ENDBRANCH  13  14
ENDBRANCH  12  13
ENDBRANCH  11  12
ENDBRANCH   1  11
BRANCH  10  20
HETATM   20  O3  UNL     1      28.450   0.804  53.478  1.00  0.00    -0.353 OA
HETATM   21  C20 UNL     1      29.407  -0.204  53.823  1.00  0.00     0.210 C 
ENDBRANCH  10  20
BRANCH   4  22
HETATM   22  N2  UNL     1      22.199  -0.342  52.430  1.00  0.00    -0.340 N 
HETATM   23  H14 UNL     1      22.204  -0.903  51.557  1.00  0.00     0.167 HD
BRANCH  22  24
HETATM   24  C10 UNL     1      21.236   0.693  52.277  1.00  0.00     0.033 A 
HETATM   25  C11 UNL     1      21.459   2.045  52.532  1.00  0.00     0.032 A 
HETATM   26  C12 UNL     1      20.485   2.997  52.352  1.00  0.00     0.044 A 
HETATM   27  C13 UNL     1      19.231   2.673  51.911  1.00  0.00     0.116 A 
HETATM   28  F1  UNL     1      18.303   3.644  51.749  1.00  0.00    -0.206 F 
HETATM   29  C14 UNL     1      18.967   1.341  51.646  1.00  0.00     0.044 A 
HETATM   30  C15 UNL     1      19.964   0.395  51.833  1.00  0.00     0.032 A 
ENDBRANCH  22  24
ENDBRANCH   4  22
TORSDOF 10
ENDMDL
MODEL 9
REMARK VINA RESULT:      -6.8      3.487      6.632
REMARK  10 active torsions:
REMARK  status: ('A' for Active; 'I' for Inactive)
REMARK    1  A    between atoms: O1_2  and  C2_3 
REMARK    2  A    between atoms: C2_3  and  C3_4 
REMARK    3  A    between atoms: C3_4  and  N1_5 
REMARK    4  A    between atoms: N1_5  and  C4_6 
REMARK    5  A    between atoms: C4_6  and  C5_7 
REMARK    6  A    between atoms: C5_7  and  O2_8 
REMARK    7  A    between atoms: O2_8  and  C6_9 
REMARK    8  A    between atoms: C9_12  and  N2_13 
REMARK    9  A    between atoms: N2_13  and  C10_14 
REMARK   10  A    between atoms: C19_26  and  O3_27 
ROOT
HETATM    1  C6  UNL     1      23.597   2.893  50.359  1.00  0.00     0.103 A 
HETATM    2  C7  UNL     1      24.159   2.241  51.455  1.00  0.00     0.057 A 
HETATM    3  C8  UNL     1      23.600   1.179  52.096  1.00  0.00     0.042 A 
HETATM    4  C9  UNL     1      24.158   0.543  53.172  1.00  0.00     0.142 A 
HETATM    5  N3  UNL     1      23.472  -0.494  53.689  1.00  0.00    -0.224 NA
HETATM    6  C16 UNL     1      22.297  -0.926  53.216  1.00  0.00     0.236 A 
HETATM    7  N4  UNL     1      21.755  -0.301  52.163  1.00  0.00    -0.241 NA
HETATM    8  C17 UNL     1      22.387   0.759  51.579  1.00  0.00     0.075 A 
HETATM    9  C18 UNL     1      21.804   1.379  50.501  1.00  0.00     0.072 A 
HETATM   10  C19 UNL     1      22.373   2.449  49.858  1.00  0.00     0.103 A 
ENDROOT
BRANCH   1  11
HETATM   11  O2  UNL     1      24.261   3.984  49.771  1.00  0.00    -0.347 OA
BRANCH  11  12
HETATM   12  C5  UNL     1      25.643   4.063  49.889  1.00  0.00     0.195 C 
BRANCH  12  13
HETATM   13  C4  UNL     1      26.306   5.244  49.281  1.00  0.00     0.140 C 
BRANCH  13  14
HETATM   14  N1  UNL     1      26.331   6.417  50.076  1.00  0.00    -0.417 N 
HETATM   15  H8  UNL     1      25.914   6.399  51.000  1.00  0.00     0.153 HD
BRANCH  14  16
HETATM   16  C3  UNL     1      26.116   7.658  49.357  1.00  0.00     0.140 C 
BRANCH  16  17
HETATM   17  C2  UNL     1      26.834   8.803  50.016  1.00  0.00     0.186 C 
BRANCH  17  18
HETATM   18  O1  UNL     1      28.172   8.874  49.712  1.00  0.00    -0.394 OA
HETATM   19  C1  UNL     1      28.481   8.777  48.386  1.00  0.00     0.201 C 
ENDBRANCH  17  18
ENDBRANCH  16  17
ENDBRANCH  14  16
ENDBRANCH  13  14
ENDBRANCH  12  13
ENDBRANCH  11  12
ENDBRANCH   1  11
BRANCH  10  20
HETATM   20  O3  UNL     1      21.803   3.087  48.774  1.00  0.00    -0.353 OA
HETATM   21  C20 UNL     1      20.731   3.997  49.043  1.00  0.00     0.210 C 
ENDBRANCH  10  20
BRANCH   4  22
HETATM   22  N2  UNL     1      25.400   0.969  53.680  1.00  0.00    -0.340 N 
HETATM   23  H14 UNL     1      25.516   1.896  54.132  1.00  0.00     0.167 HD
BRANCH  22  24
HETATM   24  C10 UNL     1      26.661   0.312  53.703  1.00  0.00     0.033 A 
HETATM   25  C11 UNL     1      26.967  -0.866  53.024  1.00  0.00     0.032 A 
HETATM   26  C12 UNL     1      28.213  -1.443  53.082  1.00  0.00     0.044 A 
HETATM   27  C13 UNL     1      29.231  -0.895  53.811  1.00  0.00     0.116 A 
HETATM   28  F1  UNL     1      30.442  -1.499  53.840  1.00  0.00    -0.206 F 
HETATM   29  C14 UNL     1      28.969   0.276  54.501  1.00  0.00     0.044 A 
HETATM   30  C15 UNL     1      27.705   0.844  54.431  1.00  0.00     0.032 A 
ENDBRANCH  22  24
ENDBRANCH   4  22
TORSDOF 10
ENDMDL
