MODEL 1
REMARK VINA RESULT:      -9.2      0.000      0.000
REMARK  5 active torsions:
REMARK  status: ('A' for Active; 'I' for Inactive)
REMARK    1  A    between atoms: C7_7  and  C8_8 
REMARK    2  A    between atoms: C8_8  and  C9_9 
REMARK    3  A    between atoms: C12_12  and  N1_13 
REMARK    4  A    between atoms: N1_13  and  C13_14 
REMARK    5  A    between atoms: C19_22  and  N3_23 
ROOT
HETATM    1  C9  UNL     1      26.111   1.750  51.587  1.00  0.00    -0.022 A 
HETATM    2  C10 UNL     1      26.583   2.343  50.517  1.00  0.00     0.027 A 
HETATM    3  C11 UNL     1      25.634   3.395  50.704  1.00  0.00     0.041 A 
HETATM    4  C12 UNL     1      25.136   4.594  50.238  1.00  0.00     0.160 A 
HETATM    5  N2  UNL     1      24.115   5.195  50.908  1.00  0.00    -0.044 NA
HETATM    6  C19 UNL     1      23.582   4.649  52.011  1.00  0.00     0.722 A 
HETATM    7  N4  UNL     1      24.083   3.483  52.444  1.00  0.00    -0.062 NA
HETATM    8  C20 UNL     1      25.106   2.823  51.822  1.00  0.00     0.096 A 
ENDROOT
BRANCH   4   9
HETATM    9  N1  UNL     1      25.546   5.349  49.109  1.00  0.00    -0.340 N 
HETATM   10  H11 UNL     1      24.633   5.523  48.644  1.00  0.00     0.167 HD
BRANCH   9  11
HETATM   11  C13 UNL     1      26.753   5.832  48.580  1.00  0.00     0.033 A 
HETATM   12  C14 UNL     1      26.753   7.097  48.001  1.00  0.00     0.031 A 
HETATM   13  C15 UNL     1      27.917   7.581  47.484  1.00  0.00     0.026 A 
HETATM   14  C16 UNL     1      29.062   6.842  47.532  1.00  0.00     0.034 A 
HETATM   15 CL1  UNL     1      30.501   7.561  46.839  1.00  0.00    -0.084 Cl
HETATM   16  C17 UNL     1      29.150   5.588  48.084  1.00  0.00     0.026 A 
HETATM   17  C18 UNL     1      27.937   5.129  48.602  1.00  0.00     0.031 A 
ENDBRANCH   9  11
ENDBRANCH   4   9
BRANCH   6  18
HETATM   18  N3  UNL     1      22.518   5.187  52.784  1.00  0.00    -0.231 N 
HETATM   19  H16 UNL     1      22.146   4.397  53.380  1.00  0.00     0.174 HD
HETATM   20  H17 UNL     1      22.390   6.212  52.558  1.00  0.00     0.174 HD
ENDBRANCH   6  18
BRANCH   1  21
HETATM   21  C8  UNL     1      26.196   0.605  52.493  1.00  0.00     0.080 C 
BRANCH  21  22
HETATM   22  C7  UNL     1      27.535   0.226  52.962  1.00  0.00    -0.048 A 
HETATM   23  C2  UNL     1      27.704  -1.172  52.862  1.00  0.00    -0.055 A 
HETATM   24  C1  UNL     1      26.642  -2.081  52.352  1.00  0.00     0.049 C 
HETATM   25  C3  UNL     1      28.910  -1.743  53.256  1.00  0.00     0.007 A 
HETATM   26  C4  UNL     1      29.974  -1.023  53.747  1.00  0.00     0.001 A 
HETATM   27  C5  UNL     1      29.808   0.339  53.843  1.00  0.00     0.001 A 
HETATM   28  C6  UNL     1      28.620   0.903  53.456  1.00  0.00     0.008 A 
ENDBRANCH  21  22
ENDBRANCH   1  21
TORSDOF 5
ENDMDL
MODEL 2
REMARK VINA RESULT:      -9.1      4.297      8.343
REMARK  5 active torsions:
REMARK  status: ('A' for Active; 'I' for Inactive)
REMARK    1  A    between atoms: C7_7  and  C8_8 
REMARK    2  A    between atoms: C8_8  and  C9_9 
REMARK    3  A    between atoms: C12_12  and  N1_13 
REMARK    4  A    between atoms: N1_13  and  C13_14 
REMARK    5  A    between atoms: C19_22  and  N3_23 
ROOT
HETATM    1  C9  UNL     1      26.320   2.667  50.603  1.00  0.00    -0.022 A 
HETATM    2  C10 UNL     1      25.336   1.893  50.995  1.00  0.00     0.027 A 
HETATM    3  C11 UNL     1      26.072   1.592  52.183  1.00  0.00     0.041 A 
HETATM    4  C12 UNL     1      26.101   0.900  53.376  1.00  0.00     0.160 A 
HETATM    5  N2  UNL     1      27.187   1.019  54.188  1.00  0.00    -0.044 NA
HETATM    6  C19 UNL     1      28.230   1.793  53.854  1.00  0.00     0.722 A 
HETATM    7  N4  UNL     1      28.179   2.455  52.689  1.00  0.00    -0.062 NA
HETATM    8  C20 UNL     1      27.122   2.383  51.825  1.00  0.00     0.096 A 
ENDROOT
BRANCH   4   9
HETATM    9  N1  UNL     1      25.118   0.039  53.929  1.00  0.00    -0.340 N 
HETATM   10  H11 UNL     1      25.693  -0.518  54.593  1.00  0.00     0.167 HD
BRANCH   9  11
HETATM   11  C13 UNL     1      23.739  -0.176  53.780  1.00  0.00     0.033 A 
HETATM   12  C14 UNL     1      23.092  -0.957  54.732  1.00  0.00     0.031 A 
HETATM   13  C15 UNL     1      21.753  -1.173  54.602  1.00  0.00     0.026 A 
HETATM   14  C16 UNL     1      21.058  -0.635  53.560  1.00  0.00     0.034 A 
HETATM   15 CL1  UNL     1      19.341  -0.976  53.490  1.00  0.00    -0.084 Cl
HETATM   16  C17 UNL     1      21.616   0.145  52.579  1.00  0.00     0.026 A 
HETATM   17  C18 UNL     1      22.989   0.342  52.748  1.00  0.00     0.031 A 
ENDBRANCH   9  11
ENDBRANCH   4   9
BRANCH   6  18
HETATM   18  N3  UNL     1      29.409   1.988  54.622  1.00  0.00    -0.231 N 
HETATM   19  H16 UNL     1      29.180   2.718  55.352  1.00  0.00     0.174 HD
HETATM   20  H17 UNL     1      30.182   1.363  54.263  1.00  0.00     0.174 HD
ENDBRANCH   6  18
BRANCH   1  21
HETATM   21  C8  UNL     1      26.837   3.567  49.573  1.00  0.00     0.080 C 
BRANCH  21  22
HETATM   22  C7  UNL     1      25.988   4.707  49.199  1.00  0.00    -0.048 A 
HETATM   23  C2  UNL     1      26.774   5.717  48.602  1.00  0.00    -0.055 A 
HETATM   24  C1  UNL     1      28.244   5.593  48.410  1.00  0.00     0.049 C 
HETATM   25  C3  UNL     1      26.160   6.890  48.171  1.00  0.00     0.007 A 
HETATM   26  C4  UNL     1      24.813   7.138  48.288  1.00  0.00     0.001 A 
HETATM   27  C5  UNL     1      24.051   6.152  48.869  1.00  0.00     0.001 A 
HETATM   28  C6  UNL     1      24.653   4.996  49.295  1.00  0.00     0.008 A 
ENDBRANCH  21  22
ENDBRANCH   1  21
TORSDOF 5
ENDMDL
MODEL 3
REMARK VINA RESULT:      -8.9      3.709      5.317
REMARK  5 active torsions:
REMARK  status: ('A' for Active; 'I' for Inactive)
REMARK    1  A    between atoms: C7_7  and  C8_8 
REMARK    2  A    between atoms: C8_8  and  C9_9 
REMARK    3  A    between atoms: C12_12  and  N1_13 
REMARK    4  A    between atoms: N1_13  and  C13_14 
REMARK    5  A    between atoms: C19_22  and  N3_23 
ROOT
HETATM    1  C9  UNL     1      23.663   1.245  52.479  1.00  0.00    -0.022 A 
HETATM    2  C10 UNL     1      23.802   1.735  51.271  1.00  0.00     0.027 A 
HETATM    3  C11 UNL     1      25.169   2.028  51.567  1.00  0.00     0.041 A 
HETATM    4  C12 UNL     1      26.361   2.548  51.109  1.00  0.00     0.160 A 
HETATM    5  N2  UNL     1      27.444   2.557  51.933  1.00  0.00    -0.044 NA
HETATM    6  C19 UNL     1      27.378   2.071  53.182  1.00  0.00     0.722 A 
HETATM    7  N4  UNL     1      26.208   1.571  53.605  1.00  0.00    -0.062 NA
HETATM    8  C20 UNL     1      25.081   1.530  52.832  1.00  0.00     0.096 A 
ENDROOT
BRANCH   4   9
HETATM    9  N1  UNL     1      26.660   3.102  49.837  1.00  0.00    -0.340 N 
HETATM   10  H11 UNL     1      26.900   2.247  49.299  1.00  0.00     0.167 HD
BRANCH   9  11
HETATM   11  C13 UNL     1      26.688   4.379  49.255  1.00  0.00     0.033 A 
HETATM   12  C14 UNL     1      25.510   5.120  49.243  1.00  0.00     0.031 A 
HETATM   13  C15 UNL     1      25.523   6.361  48.682  1.00  0.00     0.026 A 
HETATM   14  C16 UNL     1      26.665   6.871  48.141  1.00  0.00     0.034 A 
HETATM   15 CL1  UNL     1      26.568   8.477  47.447  1.00  0.00    -0.084 Cl
HETATM   16  C17 UNL     1      27.868   6.210  48.110  1.00  0.00     0.026 A 
HETATM   17  C18 UNL     1      27.813   4.942  48.694  1.00  0.00     0.031 A 
ENDBRANCH   9  11
ENDBRANCH   4   9
BRANCH   6  18
HETATM   18  N3  UNL     1      28.441   2.031  54.124  1.00  0.00    -0.231 N 
HETATM   19  H16 UNL     1      28.507   2.998  54.548  1.00  0.00     0.174 HD
HETATM   20  H17 UNL     1      28.870   1.066  54.145  1.00  0.00     0.174 HD
ENDBRANCH   6  18
BRANCH   1  21
HETATM   21  C8  UNL     1      22.771   0.617  53.453  1.00  0.00     0.080 C 
BRANCH  21  22
HETATM   22  C7  UNL     1      21.378   0.402  53.038  1.00  0.00    -0.048 A 
HETATM   23  C2  UNL     1      20.830  -0.696  53.737  1.00  0.00    -0.055 A 
HETATM   24  C1  UNL     1      21.600  -1.485  54.736  1.00  0.00     0.049 C 
HETATM   25  C3  UNL     1      19.513  -1.071  53.490  1.00  0.00     0.007 A 
HETATM   26  C4  UNL     1      18.689  -0.432  52.594  1.00  0.00     0.001 A 
HETATM   27  C5  UNL     1      19.225   0.637  51.915  1.00  0.00     0.001 A 
HETATM   28  C6  UNL     1      20.523   1.008  52.155  1.00  0.00     0.008 A 
ENDBRANCH  21  22
ENDBRANCH   1  21
TORSDOF 5
ENDMDL
MODEL 4
REMARK VINA RESULT:      -8.8      2.692      7.157
REMARK  5 active torsions:
REMARK  status: ('A' for Active; 'I' for Inactive)
REMARK    1  A    between atoms: C7_7  and  C8_8 
REMARK    2  A    between atoms: C8_8  and  C9_9 
REMARK    3  A    between atoms: C12_12  and  N1_13 
REMARK    4  A    between atoms: N1_13  and  C13_14 
REMARK    5  A    between atoms: C19_22  and  N3_23 
ROOT
HETATM    1  C9  UNL     1      25.296   3.924  50.159  1.00  0.00    -0.022 A 
HETATM    2  C10 UNL     1      25.964   3.009  50.821  1.00  0.00     0.027 A 
HETATM    3  C11 UNL     1      24.770   2.682  51.537  1.00  0.00     0.041 A 
HETATM    4  C12 UNL     1      24.186   1.887  52.500  1.00  0.00     0.160 A 
HETATM    5  N2  UNL     1      22.864   2.047  52.783  1.00  0.00    -0.044 NA
HETATM    6  C19 UNL     1      22.117   2.962  52.147  1.00  0.00     0.722 A 
HETATM    7  N4  UNL     1      22.708   3.723  51.214  1.00  0.00    -0.062 NA
HETATM    8  C20 UNL     1      24.029   3.617  50.879  1.00  0.00     0.096 A 
ENDROOT
BRANCH   4   9
HETATM    9  N1  UNL     1      24.775   0.862  53.285  1.00  0.00    -0.340 N 
HETATM   10  H11 UNL     1      23.943   0.494  53.788  1.00  0.00     0.167 HD
BRANCH   9  11
HETATM   11  C13 UNL     1      26.058   0.330  53.484  1.00  0.00     0.033 A 
HETATM   12  C14 UNL     1      26.501  -0.656  52.608  1.00  0.00     0.031 A 
HETATM   13  C15 UNL     1      27.745  -1.182  52.788  1.00  0.00     0.026 A 
HETATM   14  C16 UNL     1      28.544  -0.751  53.804  1.00  0.00     0.034 A 
HETATM   15 CL1  UNL     1      30.124  -1.494  53.943  1.00  0.00    -0.084 Cl
HETATM   16  C17 UNL     1      28.187   0.215  54.712  1.00  0.00     0.026 A 
HETATM   17  C18 UNL     1      26.906   0.728  54.494  1.00  0.00     0.031 A 
ENDBRANCH   9  11
ENDBRANCH   4   9
BRANCH   6  18
HETATM   18  N3  UNL     1      20.736   3.214  52.363  1.00  0.00    -0.231 N 
HETATM   19  H16 UNL     1      20.293   3.322  51.408  1.00  0.00     0.174 HD
HETATM   20  H17 UNL     1      20.528   3.224  53.399  1.00  0.00     0.174 HD
ENDBRANCH   6  18
BRANCH   1  21
HETATM   21  C8  UNL     1      25.330   4.967  49.136  1.00  0.00     0.080 C 
BRANCH  21  22
HETATM   22  C7  UNL     1      26.656   5.420  48.693  1.00  0.00    -0.048 A 
HETATM   23  C2  UNL     1      26.576   6.744  48.207  1.00  0.00    -0.055 A 
HETATM   24  C1  UNL     1      25.306   7.517  48.171  1.00  0.00     0.049 C 
HETATM   25  C3  UNL     1      27.728   7.367  47.736  1.00  0.00     0.007 A 
HETATM   26  C4  UNL     1      28.966   6.770  47.710  1.00  0.00     0.001 A 
HETATM   27  C5  UNL     1      29.041   5.481  48.184  1.00  0.00     0.001 A 
HETATM   28  C6  UNL     1      27.908   4.865  48.648  1.00  0.00     0.008 A 
ENDBRANCH  21  22
ENDBRANCH   1  21
TORSDOF 5
ENDMDL
MODEL 5
REMARK VINA RESULT:      -8.7      5.148      7.323
REMARK  5 active torsions:
REMARK  status: ('A' for Active; 'I' for Inactive)
REMARK    1  A    between atoms: C7_7  and  C8_8 
REMARK    2  A    between atoms: C8_8  and  C9_9 
REMARK    3  A    between atoms: C12_12  and  N1_13 
REMARK    4  A    between atoms: N1_13  and  C13_14 
REMARK    5  A    between atoms: C19_22  and  N3_23 
ROOT
HETATM    1  C9  UNL     1      25.028   0.967  53.442  1.00  0.00    -0.022 A 
HETATM    2  C10 UNL     1      23.924   0.358  53.080  1.00  0.00     0.027 A 
HETATM    3  C11 UNL     1      23.353   1.627  52.754  1.00  0.00     0.041 A 
HETATM    4  C12 UNL     1      22.251   2.307  52.279  1.00  0.00     0.160 A 
HETATM    5  N2  UNL     1      22.299   3.663  52.176  1.00  0.00    -0.044 NA
HETATM    6  C19 UNL     1      23.394   4.354  52.526  1.00  0.00     0.722 A 
HETATM    7  N4  UNL     1      24.453   3.671  52.985  1.00  0.00    -0.062 NA
HETATM    8  C20 UNL     1      24.475   2.310  53.116  1.00  0.00     0.096 A 
ENDROOT
BRANCH   4   9
HETATM    9  N1  UNL     1      21.003   1.787  51.848  1.00  0.00    -0.340 N 
HETATM   10  H11 UNL     1      20.797   2.408  51.041  1.00  0.00     0.167 HD
BRANCH   9  11
HETATM   11  C13 UNL     1      20.129   0.759  52.236  1.00  0.00     0.033 A 
HETATM   12  C14 UNL     1      18.972   0.566  51.488  1.00  0.00     0.031 A 
HETATM   13  C15 UNL     1      18.115  -0.428  51.852  1.00  0.00     0.026 A 
HETATM   14  C16 UNL     1      18.383  -1.221  52.927  1.00  0.00     0.034 A 
HETATM   15 CL1  UNL     1      17.213  -2.470  53.305  1.00  0.00    -0.084 Cl
HETATM   16  C17 UNL     1      19.498  -1.101  53.718  1.00  0.00     0.026 A 
HETATM   17  C18 UNL     1      20.350  -0.071  53.313  1.00  0.00     0.031 A 
ENDBRANCH   9  11
ENDBRANCH   4   9
BRANCH   6  18
HETATM   18  N3  UNL     1      23.552   5.764  52.460  1.00  0.00    -0.231 N 
HETATM   19  H16 UNL     1      23.504   6.028  51.437  1.00  0.00     0.174 HD
HETATM   20  H17 UNL     1      23.673   6.160  53.433  1.00  0.00     0.174 HD
ENDBRANCH   6  18
BRANCH   1  21
HETATM   21  C8  UNL     1      26.387   0.834  53.963  1.00  0.00     0.080 C 
BRANCH  21  22
HETATM   22  C7  UNL     1      27.140  -0.362  53.562  1.00  0.00    -0.048 A 
HETATM   23  C2  UNL     1      28.510  -0.192  53.857  1.00  0.00    -0.055 A 
HETATM   24  C1  UNL     1      29.057   1.042  54.481  1.00  0.00     0.049 C 
HETATM   25  C3  UNL     1      29.403  -1.216  53.555  1.00  0.00     0.007 A 
HETATM   26  C4  UNL     1      29.036  -2.408  52.977  1.00  0.00     0.001 A 
HETATM   27  C5  UNL     1      27.701  -2.571  52.690  1.00  0.00     0.001 A 
HETATM   28  C6  UNL     1      26.819  -1.564  52.986  1.00  0.00     0.008 A 
ENDBRANCH  21  22
ENDBRANCH   1  21
TORSDOF 5
ENDMDL
MODEL 6
REMARK VINA RESULT:      -8.6      2.584      7.222
REMARK  5 active torsions:
REMARK  status: ('A' for Active; 'I' for Inactive)
REMARK    1  A    between atoms: C7_7  and  C8_8 
REMARK    2  A    between atoms: C8_8  and  C9_9 
REMARK    3  A    between atoms: C12_12  and  N1_13 
REMARK    4  A    between atoms: N1_13  and  C13_14 
REMARK    5  A    between atoms: C19_22  and  N3_23 
ROOT
HETATM    1  C9  UNL     1      26.442   5.288  49.085  1.00  0.00    -0.022 A 
HETATM    2  C10 UNL     1      26.842   4.073  49.374  1.00  0.00     0.027 A 
HETATM    3  C11 UNL     1      25.771   3.964  50.315  1.00  0.00     0.041 A 
HETATM    4  C12 UNL     1      25.131   3.173  51.245  1.00  0.00     0.160 A 
HETATM    5  N2  UNL     1      24.039   3.661  51.894  1.00  0.00    -0.044 NA
HETATM    6  C19 UNL     1      23.571   4.894  51.651  1.00  0.00     0.722 A 
HETATM    7  N4  UNL     1      24.210   5.644  50.742  1.00  0.00    -0.062 NA
HETATM    8  C20 UNL     1      25.312   5.220  50.053  1.00  0.00     0.096 A 
ENDROOT
BRANCH   4   9
HETATM    9  N1  UNL     1      25.442   1.850  51.653  1.00  0.00    -0.340 N 
HETATM   10  H11 UNL     1      24.558   1.357  51.422  1.00  0.00     0.167 HD
BRANCH   9  11
HETATM   11  C13 UNL     1      26.540   1.181  52.218  1.00  0.00     0.033 A 
HETATM   12  C14 UNL     1      26.521  -0.210  52.233  1.00  0.00     0.031 A 
HETATM   13  C15 UNL     1      27.579  -0.873  52.777  1.00  0.00     0.026 A 
HETATM   14  C16 UNL     1      28.638  -0.190  53.297  1.00  0.00     0.034 A 
HETATM   15 CL1  UNL     1      29.945  -1.143  53.970  1.00  0.00    -0.084 Cl
HETATM   16  C17 UNL     1      28.738   1.178  53.323  1.00  0.00     0.026 A 
HETATM   17  C18 UNL     1      27.634   1.821  52.758  1.00  0.00     0.031 A 
ENDBRANCH   9  11
ENDBRANCH   4   9
BRANCH   6  18
HETATM   18  N3  UNL     1      22.445   5.501  52.269  1.00  0.00    -0.231 N 
HETATM   19  H16 UNL     1      21.814   5.836  51.489  1.00  0.00     0.174 HD
HETATM   20  H17 UNL     1      22.542   5.455  53.320  1.00  0.00     0.174 HD
ENDBRANCH   6  18
BRANCH   1  21
HETATM   21  C8  UNL     1      26.660   6.494  48.287  1.00  0.00     0.080 C 
BRANCH  21  22
HETATM   22  C7  UNL     1      28.035   7.005  48.217  1.00  0.00    -0.048 A 
HETATM   23  C2  UNL     1      28.164   8.158  49.022  1.00  0.00    -0.055 A 
HETATM   24  C1  UNL     1      27.034   8.729  49.804  1.00  0.00     0.049 C 
HETATM   25  C3  UNL     1      29.395   8.802  49.097  1.00  0.00     0.007 A 
HETATM   26  C4  UNL     1      30.520   8.385  48.428  1.00  0.00     0.001 A 
HETATM   27  C5  UNL     1      30.393   7.261  47.645  1.00  0.00     0.001 A 
HETATM   28  C6  UNL     1      29.181   6.625  47.568  1.00  0.00     0.008 A 
ENDBRANCH  21  22
ENDBRANCH   1  21
TORSDOF 5
ENDMDL
MODEL 7
REMARK VINA RESULT:      -8.6      4.903      7.475
REMARK  5 active torsions:
REMARK  status: ('A' for Active; 'I' for Inactive)
REMARK    1  A    between atoms: C7_7  and  C8_8 
REMARK    2  A    between atoms: C8_8  and  C9_9 
REMARK    3  A    between atoms: C12_12  and  N1_13 
REMARK    4  A    between atoms: N1_13  and  C13_14 
REMARK    5  A    between atoms: C19_22  and  N3_23 
ROOT
HETATM    1  C9  UNL     1      21.719   1.063  51.775  1.00  0.00    -0.022 A 
HETATM    2  C10 UNL     1      22.801   0.703  52.423  1.00  0.00     0.027 A 
HETATM    3  C11 UNL     1      23.188   2.077  52.504  1.00  0.00     0.041 A 
HETATM    4  C12 UNL     1      24.126   2.985  52.946  1.00  0.00     0.160 A 
HETATM    5  N2  UNL     1      23.933   4.310  52.708  1.00  0.00    -0.044 NA
HETATM    6  C19 UNL     1      22.850   4.755  52.052  1.00  0.00     0.722 A 
HETATM    7  N4  UNL     1      21.951   3.852  51.633  1.00  0.00    -0.062 NA
HETATM    8  C20 UNL     1      22.081   2.506  51.836  1.00  0.00     0.096 A 
ENDROOT
BRANCH   4   9
HETATM    9  N1  UNL     1      25.330   2.745  53.658  1.00  0.00    -0.340 N 
HETATM   10  H11 UNL     1      25.303   3.511  54.359  1.00  0.00     0.167 HD
BRANCH   9  11
HETATM   11  C13 UNL     1      26.385   1.820  53.609  1.00  0.00     0.033 A 
HETATM   12  C14 UNL     1      27.682   2.312  53.501  1.00  0.00     0.031 A 
HETATM   13  C15 UNL     1      28.717   1.427  53.454  1.00  0.00     0.026 A 
HETATM   14  C16 UNL     1      28.489   0.085  53.513  1.00  0.00     0.034 A 
HETATM   15 CL1  UNL     1      29.892  -0.963  53.445  1.00  0.00    -0.084 Cl
HETATM   16  C17 UNL     1      27.245  -0.485  53.619  1.00  0.00     0.026 A 
HETATM   17  C18 UNL     1      26.212   0.455  53.664  1.00  0.00     0.031 A 
ENDBRANCH   9  11
ENDBRANCH   4   9
BRANCH   6  18
HETATM   18  N3  UNL     1      22.549   6.109  51.749  1.00  0.00    -0.231 N 
HETATM   19  H16 UNL     1      22.030   6.500  52.584  1.00  0.00     0.174 HD
HETATM   20  H17 UNL     1      22.919   6.356  50.790  1.00  0.00     0.174 HD
ENDBRANCH   6  18
BRANCH   1  21
HETATM   21  C8  UNL     1      20.483   0.638  51.121  1.00  0.00     0.080 C 
BRANCH  21  22
HETATM   22  C7  UNL     1      19.524  -0.118  51.938  1.00  0.00    -0.048 A 
HETATM   23  C2  UNL     1      18.251  -0.101  51.327  1.00  0.00    -0.055 A 
HETATM   24  C1  UNL     1      17.978   0.600  50.044  1.00  0.00     0.049 C 
HETATM   25  C3  UNL     1      17.192  -0.764  51.941  1.00  0.00     0.007 A 
HETATM   26  C4  UNL     1      17.303  -1.450  53.128  1.00  0.00     0.001 A 
HETATM   27  C5  UNL     1      18.543  -1.465  53.720  1.00  0.00     0.001 A 
HETATM   28  C6  UNL     1      19.588  -0.812  53.117  1.00  0.00     0.008 A 
ENDBRANCH  21  22
ENDBRANCH   1  21
TORSDOF 5
ENDMDL
MODEL 8
REMARK VINA RESULT:      -8.5      1.779      2.768
REMARK  5 active torsions:
REMARK  status: ('A' for Active; 'I' for Inactive)
REMARK    1  A    between atoms: C7_7  and  C8_8 
REMARK    2  A    between atoms: C8_8  and  C9_9 
REMARK    3  A    between atoms: C12_12  and  N1_13 
REMARK    4  A    between atoms: N1_13  and  C13_14 
REMARK    5  A    between atoms: C19_22  and  N3_23 
ROOT
HETATM    1  C9  UNL     1      25.200   3.081  50.390  1.00  0.00    -0.022 A 
HETATM    2  C10 UNL     1      26.132   3.304  49.494  1.00  0.00     0.027 A 
HETATM    3  C11 UNL     1      25.905   4.708  49.635  1.00  0.00     0.041 A 
HETATM    4  C12 UNL     1      26.260   5.978  49.233  1.00  0.00     0.160 A 
HETATM    5  N2  UNL     1      25.626   7.051  49.780  1.00  0.00    -0.044 NA
HETATM    6  C19 UNL     1      24.663   6.901  50.703  1.00  0.00     0.722 A 
HETATM    7  N4  UNL     1      24.336   5.656  51.077  1.00  0.00    -0.062 NA
HETATM    8  C20 UNL     1      24.929   4.534  50.570  1.00  0.00     0.096 A 
ENDROOT
BRANCH   4   9
HETATM    9  N1  UNL     1      27.243   6.370  48.288  1.00  0.00    -0.340 N 
HETATM   10  H11 UNL     1      26.650   6.593  47.465  1.00  0.00     0.167 HD
BRANCH   9  11
HETATM   11  C13 UNL     1      28.641   6.497  48.252  1.00  0.00     0.033 A 
HETATM   12  C14 UNL     1      29.186   7.770  48.385  1.00  0.00     0.031 A 
HETATM   13  C15 UNL     1      30.541   7.909  48.354  1.00  0.00     0.026 A 
HETATM   14  C16 UNL     1      31.350   6.824  48.196  1.00  0.00     0.034 A 
HETATM   15 CL1  UNL     1      33.077   7.116  48.171  1.00  0.00    -0.084 Cl
HETATM   16  C17 UNL     1      30.897   5.535  48.058  1.00  0.00     0.026 A 
HETATM   17  C18 UNL     1      29.504   5.435  48.095  1.00  0.00     0.031 A 
ENDBRANCH   9  11
ENDBRANCH   4   9
BRANCH   6  18
HETATM   18  N3  UNL     1      23.939   7.946  51.336  1.00  0.00    -0.231 N 
HETATM   19  H16 UNL     1      23.952   7.739  52.373  1.00  0.00     0.174 HD
HETATM   20  H17 UNL     1      23.590   8.633  50.614  1.00  0.00     0.174 HD
ENDBRANCH   6  18
BRANCH   1  21
HETATM   21  C8  UNL     1      24.449   2.089  51.157  1.00  0.00     0.080 C 
BRANCH  21  22
HETATM   22  C7  UNL     1      25.231   1.098  51.909  1.00  0.00    -0.048 A 
HETATM   23  C2  UNL     1      24.418   0.479  52.884  1.00  0.00    -0.055 A 
HETATM   24  C1  UNL     1      22.984   0.824  53.079  1.00  0.00     0.049 C 
HETATM   25  C3  UNL     1      24.968  -0.497  53.709  1.00  0.00     0.007 A 
HETATM   26  C4  UNL     1      26.277  -0.912  53.639  1.00  0.00     0.001 A 
HETATM   27  C5  UNL     1      27.066  -0.308  52.688  1.00  0.00     0.001 A 
HETATM   28  C6  UNL     1      26.527   0.655  51.875  1.00  0.00     0.008 A 
ENDBRANCH  21  22
ENDBRANCH   1  21
TORSDOF 5
ENDMDL
MODEL 9
REMARK VINA RESULT:      -8.5      3.367      4.326
REMARK  5 active torsions:
REMARK  status: ('A' for Active; 'I' for Inactive)
REMARK    1  A    between atoms: C7_7  and  C8_8 
REMARK    2  A    between atoms: C8_8  and  C9_9 
REMARK    3  A    between atoms: C12_12  and  N1_13 
REMARK    4  A    between atoms: N1_13  and  C13_14 
REMARK    5  A    between atoms: C19_22  and  N3_23 
ROOT
HETATM    1  C9  UNL     1      22.325   1.937  50.013  1.00  0.00    -0.022 A 
HETATM    2  C10 UNL     1      22.914   2.499  48.985  1.00  0.00     0.027 A 
HETATM    3  C11 UNL     1      23.366   3.550  49.843  1.00  0.00     0.041 A 
HETATM    4  C12 UNL     1      24.075   4.728  49.946  1.00  0.00     0.160 A 
HETATM    5  N2  UNL     1      24.176   5.340  51.157  1.00  0.00    -0.044 NA
HETATM    6  C19 UNL     1      23.601   4.824  52.254  1.00  0.00     0.722 A 
HETATM    7  N4  UNL     1      22.917   3.677  52.128  1.00  0.00    -0.062 NA
HETATM    8  C20 UNL     1      22.775   3.009  50.944  1.00  0.00     0.096 A 
ENDROOT
BRANCH   4   9
HETATM    9  N1  UNL     1      24.762   5.444  48.932  1.00  0.00    -0.340 N 
HETATM   10  H11 UNL     1      23.969   5.763  48.341  1.00  0.00     0.167 HD
BRANCH   9  11
HETATM   11  C13 UNL     1      26.094   5.759  48.619  1.00  0.00     0.033 A 
HETATM   12  C14 UNL     1      27.060   4.776  48.807  1.00  0.00     0.031 A 
HETATM   13  C15 UNL     1      28.357   5.067  48.507  1.00  0.00     0.026 A 
HETATM   14  C16 UNL     1      28.705   6.296  48.032  1.00  0.00     0.034 A 
HETATM   15 CL1  UNL     1      30.400   6.561  47.678  1.00  0.00    -0.084 Cl
HETATM   16  C17 UNL     1      27.817   7.321  47.817  1.00  0.00     0.026 A 
HETATM   17  C18 UNL     1      26.500   6.984  48.137  1.00  0.00     0.031 A 
ENDBRANCH   9  11
ENDBRANCH   4   9
BRANCH   6  18
HETATM   18  N3  UNL     1      23.642   5.377  53.561  1.00  0.00    -0.231 N 
HETATM   19  H16 UNL     1      22.848   6.073  53.622  1.00  0.00     0.174 HD
HETATM   20  H17 UNL     1      24.439   4.951  54.109  1.00  0.00     0.174 HD
ENDBRANCH   6  18
BRANCH   1  21
HETATM   21  C8  UNL     1      21.520   0.820  50.506  1.00  0.00     0.080 C 
BRANCH  21  22
HETATM   22  C7  UNL     1      21.811   0.339  51.863  1.00  0.00    -0.048 A 
HETATM   23  C2  UNL     1      20.605   0.100  52.559  1.00  0.00    -0.055 A 
HETATM   24  C1  UNL     1      19.264   0.325  51.956  1.00  0.00     0.049 C 
HETATM   25  C3  UNL     1      20.657  -0.364  53.870  1.00  0.00     0.007 A 
HETATM   26  C4  UNL     1      21.825  -0.613  54.550  1.00  0.00     0.001 A 
HETATM   27  C5  UNL     1      22.998  -0.380  53.870  1.00  0.00     0.001 A 
HETATM   28  C6  UNL     1      22.950   0.078  52.579  1.00  0.00     0.008 A 
ENDBRANCH  21  22
ENDBRANCH   1  21
TORSDOF 5
ENDMDL
