MODEL 1
REMARK VINA RESULT:      -8.3      0.000      0.000
REMARK  3 active torsions:
REMARK  status: ('A' for Active; 'I' for Inactive)
REMARK    1  A    between atoms: N1_1  and  C1_2 
REMARK    2  A    between atoms: C1_2  and  N2_4 
REMARK    3  A    between atoms: N2_4  and  N3_5 
ROOT
HETATM    1  N3  UNL     1      26.752  -0.237  51.924  1.00  0.00    -0.181 NA
HETATM    2  C2  UNL     1      26.006   0.881  52.027  1.00  0.00     0.041 C 
HETATM    3  C3  UNL     1      25.744   2.223  51.365  1.00  0.00     0.083 C 
HETATM    4  C4  UNL     1      26.500   2.307  50.194  1.00  0.00     0.016 C 
HETATM    5  C5  UNL     1      26.192   3.636  49.604  1.00  0.00    -0.047 A 
HETATM    6  C6  UNL     1      27.205   4.455  49.150  1.00  0.00     0.010 A 
HETATM    7  C7  UNL     1      27.059   5.708  48.602  1.00  0.00     0.024 A 
HETATM    8  C8  UNL     1      25.793   6.209  48.487  1.00  0.00     0.034 A 
HETATM    9 CL1  UNL     1      25.643   7.800  47.787  1.00  0.00    -0.084 Cl
HETATM   10  C9  UNL     1      24.776   5.396  48.940  1.00  0.00     0.035 A 
HETATM   11  C10 UNL     1      24.906   4.108  49.506  1.00  0.00    -0.028 A 
HETATM   12  C11 UNL     1      23.552   3.674  49.914  1.00  0.00     0.012 C 
HETATM   13  C12 UNL     1      23.009   2.857  50.795  1.00  0.00     0.001 C 
HETATM   14  C13 UNL     1      22.962   1.855  51.896  1.00  0.00    -0.004 C 
HETATM   15  C14 UNL     1      23.731   1.087  52.688  1.00  0.00    -0.021 C 
HETATM   16  C15 UNL     1      25.050   0.567  53.139  1.00  0.00     0.084 C 
ENDROOT
BRANCH   1  17
HETATM   17  N2  UNL     1      26.724  -1.310  52.750  1.00  0.00    -0.254 N 
HETATM   18  H3  UNL     1      25.922  -1.787  53.170  1.00  0.00     0.191 HD
BRANCH  17  19
HETATM   19  C1  UNL     1      27.993  -1.820  53.058  1.00  0.00     0.185 C 
HETATM   20  S1  UNL     1      29.328  -1.022  53.501  1.00  0.00    -0.040 SA
BRANCH  19  21
HETATM   21  N1  UNL     1      28.544  -3.129  53.095  1.00  0.00    -0.375 N 
HETATM   22  H1  UNL     1      29.382  -3.587  52.659  1.00  0.00     0.158 HD
HETATM   23  H2  UNL     1      28.224  -3.981  53.591  1.00  0.00     0.158 HD
ENDBRANCH  19  21
ENDBRANCH  17  19
ENDBRANCH   1  17
TORSDOF 3
ENDMDL
MODEL 2
REMARK VINA RESULT:      -7.8      3.589      5.647
REMARK  3 active torsions:
REMARK  status: ('A' for Active; 'I' for Inactive)
REMARK    1  A    between atoms: N1_1  and  C1_2 
REMARK    2  A    between atoms: C1_2  and  N2_4 
REMARK    3  A    between atoms: N2_4  and  N3_5 
ROOT
HETATM    1  N3  UNL     1      26.666   2.206  53.169  1.00  0.00    -0.181 NA
HETATM    2  C2  UNL     1      25.813   1.923  52.165  1.00  0.00     0.041 C 
HETATM    3  C3  UNL     1      24.383   1.495  51.881  1.00  0.00     0.083 C 
HETATM    4  C4  UNL     1      23.679   1.433  53.086  1.00  0.00     0.016 C 
HETATM    5  C5  UNL     1      22.298   1.013  52.730  1.00  0.00    -0.047 A 
HETATM    6  C6  UNL     1      21.661   0.018  53.441  1.00  0.00     0.010 A 
HETATM    7  C7  UNL     1      20.399  -0.474  53.207  1.00  0.00     0.024 A 
HETATM    8  C8  UNL     1      19.688   0.065  52.171  1.00  0.00     0.034 A 
HETATM    9 CL1  UNL     1      18.090  -0.581  51.901  1.00  0.00    -0.084 Cl
HETATM   10  C9  UNL     1      20.319   1.060  51.456  1.00  0.00     0.035 A 
HETATM   11  C10 UNL     1      21.614   1.577  51.681  1.00  0.00    -0.028 A 
HETATM   12  C11 UNL     1      21.880   2.563  50.610  1.00  0.00     0.012 C 
HETATM   13  C12 UNL     1      22.925   3.080  49.992  1.00  0.00     0.001 C 
HETATM   14  C13 UNL     1      24.361   3.307  49.673  1.00  0.00    -0.004 C 
HETATM   15  C14 UNL     1      25.612   2.984  50.047  1.00  0.00    -0.021 C 
HETATM   16  C15 UNL     1      26.583   2.287  50.932  1.00  0.00     0.084 C 
ENDROOT
BRANCH   1  17
HETATM   17  N2  UNL     1      27.962   2.581  53.050  1.00  0.00    -0.254 N 
HETATM   18  H3  UNL     1      28.379   3.308  52.463  1.00  0.00     0.191 HD
BRANCH  17  19
HETATM   19  C1  UNL     1      28.840   1.847  53.862  1.00  0.00     0.185 C 
HETATM   20  S1  UNL     1      29.026   0.244  53.966  1.00  0.00    -0.040 SA
BRANCH  19  21
HETATM   21  N1  UNL     1      29.820   2.206  54.826  1.00  0.00    -0.375 N 
HETATM   22  H1  UNL     1      30.748   1.810  55.114  1.00  0.00     0.158 HD
HETATM   23  H2  UNL     1      29.842   2.989  55.504  1.00  0.00     0.158 HD
ENDBRANCH  19  21
ENDBRANCH  17  19
ENDBRANCH   1  17
TORSDOF 3
ENDMDL
MODEL 3
REMARK VINA RESULT:      -7.7      5.675      7.565
REMARK  3 active torsions:
REMARK  status: ('A' for Active; 'I' for Inactive)
REMARK    1  A    between atoms: N1_1  and  C1_2 
REMARK    2  A    between atoms: C1_2  and  N2_4 
REMARK    3  A    between atoms: N2_4  and  N3_5 
ROOT
HETATM    1  N3  UNL     1      20.251   2.570  51.878  1.00  0.00    -0.181 NA
HETATM    2  C2  UNL     1      20.796   1.356  52.091  1.00  0.00     0.041 C 
HETATM    3  C3  UNL     1      22.119   0.654  52.342  1.00  0.00     0.083 C 
HETATM    4  C4  UNL     1      23.128   1.614  52.458  1.00  0.00     0.016 C 
HETATM    5  C5  UNL     1      24.384   0.858  52.704  1.00  0.00    -0.047 A 
HETATM    6  C6  UNL     1      25.533   1.159  52.004  1.00  0.00     0.010 A 
HETATM    7  C7  UNL     1      26.751   0.530  52.122  1.00  0.00     0.024 A 
HETATM    8  C8  UNL     1      26.852  -0.498  53.016  1.00  0.00     0.034 A 
HETATM    9 CL1  UNL     1      28.409  -1.274  53.142  1.00  0.00    -0.084 Cl
HETATM   10  C9  UNL     1      25.706  -0.805  53.719  1.00  0.00     0.035 A 
HETATM   11  C10 UNL     1      24.448  -0.171  53.611  1.00  0.00    -0.028 A 
HETATM   12  C11 UNL     1      23.516  -0.903  54.497  1.00  0.00     0.012 C 
HETATM   13  C12 UNL     1      22.219  -1.126  54.584  1.00  0.00     0.001 C 
HETATM   14  C13 UNL     1      20.780  -1.037  54.213  1.00  0.00    -0.004 C 
HETATM   15  C14 UNL     1      19.923  -0.460  53.352  1.00  0.00    -0.021 C 
HETATM   16  C15 UNL     1      19.607   0.452  52.221  1.00  0.00     0.084 C 
ENDROOT
BRANCH   1  17
HETATM   17  N2  UNL     1      18.940   2.847  51.678  1.00  0.00    -0.254 N 
HETATM   18  H3  UNL     1      18.111   2.352  52.016  1.00  0.00     0.191 HD
BRANCH  17  19
HETATM   19  C1  UNL     1      18.717   3.984  50.888  1.00  0.00     0.185 C 
HETATM   20  S1  UNL     1      19.789   4.882  50.075  1.00  0.00    -0.040 SA
BRANCH  19  21
HETATM   21  N1  UNL     1      17.556   4.720  50.530  1.00  0.00    -0.375 N 
HETATM   22  H1  UNL     1      16.683   4.502  49.991  1.00  0.00     0.158 HD
HETATM   23  H2  UNL     1      17.292   5.702  50.734  1.00  0.00     0.158 HD
ENDBRANCH  19  21
ENDBRANCH  17  19
ENDBRANCH   1  17
TORSDOF 3
ENDMDL
MODEL 4
REMARK VINA RESULT:      -7.6      3.812      4.940
REMARK  3 active torsions:
REMARK  status: ('A' for Active; 'I' for Inactive)
REMARK    1  A    between atoms: N1_1  and  C1_2 
REMARK    2  A    between atoms: C1_2  and  N2_4 
REMARK    3  A    between atoms: N2_4  and  N3_5 
ROOT
HETATM    1  N3  UNL     1      26.014  -0.472  53.186  1.00  0.00    -0.181 NA
HETATM    2  C2  UNL     1      24.847  -0.140  53.773  1.00  0.00     0.041 C 
HETATM    3  C3  UNL     1      23.526   0.565  53.518  1.00  0.00     0.083 C 
HETATM    4  C4  UNL     1      23.471   0.957  52.179  1.00  0.00     0.016 C 
HETATM    5  C5  UNL     1      22.158   1.633  52.006  1.00  0.00    -0.047 A 
HETATM    6  C6  UNL     1      22.070   2.839  51.342  1.00  0.00     0.010 A 
HETATM    7  C7  UNL     1      20.928   3.574  51.129  1.00  0.00     0.024 A 
HETATM    8  C8  UNL     1      19.752   3.076  51.615  1.00  0.00     0.034 A 
HETATM    9 CL1  UNL     1      18.321   4.033  51.327  1.00  0.00    -0.084 Cl
HETATM   10  C9  UNL     1      19.832   1.872  52.280  1.00  0.00     0.035 A 
HETATM   11  C10 UNL     1      20.995   1.104  52.510  1.00  0.00    -0.028 A 
HETATM   12  C11 UNL     1      20.594  -0.057  53.335  1.00  0.00     0.012 C 
HETATM   13  C12 UNL     1      21.150  -0.883  54.198  1.00  0.00     0.001 C 
HETATM   14  C13 UNL     1      22.230  -1.482  55.031  1.00  0.00    -0.004 C 
HETATM   15  C14 UNL     1      23.545  -1.410  55.304  1.00  0.00    -0.021 C 
HETATM   16  C15 UNL     1      24.904  -0.842  55.096  1.00  0.00     0.084 C 
ENDROOT
BRANCH   1  17
HETATM   17  N2  UNL     1      27.041  -1.151  53.750  1.00  0.00    -0.254 N 
HETATM   18  H3  UNL     1      27.108  -2.141  54.000  1.00  0.00     0.191 HD
BRANCH  17  19
HETATM   19  C1  UNL     1      28.165  -0.355  54.021  1.00  0.00     0.185 C 
HETATM   20  S1  UNL     1      29.706  -0.598  53.597  1.00  0.00    -0.040 SA
BRANCH  19  21
HETATM   21  N1  UNL     1      28.358   0.869  54.715  1.00  0.00    -0.375 N 
HETATM   22  H1  UNL     1      28.602   1.848  54.427  1.00  0.00     0.158 HD
HETATM   23  H2  UNL     1      28.299   1.085  55.728  1.00  0.00     0.158 HD
ENDBRANCH  19  21
ENDBRANCH  17  19
ENDBRANCH   1  17
TORSDOF 3
ENDMDL
MODEL 5
REMARK VINA RESULT:      -7.4      3.891      6.110
REMARK  3 active torsions:
REMARK  status: ('A' for Active; 'I' for Inactive)
REMARK    1  A    between atoms: N1_1  and  C1_2 
REMARK    2  A    between atoms: C1_2  and  N2_4 
REMARK    3  A    between atoms: N2_4  and  N3_5 
ROOT
HETATM    1  N3  UNL     1      27.096  -1.200  53.861  1.00  0.00    -0.181 NA
HETATM    2  C2  UNL     1      26.153  -0.767  52.999  1.00  0.00     0.041 C 
HETATM    3  C3  UNL     1      24.654  -0.585  52.842  1.00  0.00     0.083 C 
HETATM    4  C4  UNL     1      24.026  -0.932  54.041  1.00  0.00     0.016 C 
HETATM    5  C5  UNL     1      22.571  -0.728  53.813  1.00  0.00    -0.047 A 
HETATM    6  C6  UNL     1      21.659  -1.688  54.198  1.00  0.00     0.010 A 
HETATM    7  C7  UNL     1      20.295  -1.632  54.032  1.00  0.00     0.024 A 
HETATM    8  C8  UNL     1      19.772  -0.524  53.427  1.00  0.00     0.034 A 
HETATM    9 CL1  UNL     1      18.039  -0.484  53.231  1.00  0.00    -0.084 Cl
HETATM   10  C9  UNL     1      20.679   0.439  53.039  1.00  0.00     0.035 A 
HETATM   11  C10 UNL     1      22.082   0.399  53.201  1.00  0.00    -0.028 A 
HETATM   12  C11 UNL     1      22.628   1.613  52.554  1.00  0.00     0.012 C 
HETATM   13  C12 UNL     1      23.759   2.001  51.997  1.00  0.00     0.001 C 
HETATM   14  C13 UNL     1      25.169   1.899  51.530  1.00  0.00    -0.004 C 
HETATM   15  C14 UNL     1      26.243   1.089  51.517  1.00  0.00    -0.021 C 
HETATM   16  C15 UNL     1      26.948  -0.170  51.877  1.00  0.00     0.084 C 
ENDROOT
BRANCH   1  17
HETATM   17  N2  UNL     1      28.434  -1.219  53.656  1.00  0.00    -0.254 N 
HETATM   18  H3  UNL     1      29.032  -1.980  53.324  1.00  0.00     0.191 HD
BRANCH  17  19
HETATM   19  C1  UNL     1      29.068  -0.002  53.952  1.00  0.00     0.185 C 
HETATM   20  S1  UNL     1      28.629   1.140  55.009  1.00  0.00    -0.040 SA
BRANCH  19  21
HETATM   21  N1  UNL     1      30.243   0.636  53.472  1.00  0.00    -0.375 N 
HETATM   22  H1  UNL     1      31.195   0.303  53.182  1.00  0.00     0.158 HD
HETATM   23  H2  UNL     1      30.438   1.638  53.289  1.00  0.00     0.158 HD
ENDBRANCH  19  21
ENDBRANCH  17  19
ENDBRANCH   1  17
TORSDOF 3
ENDMDL
MODEL 6
REMARK VINA RESULT:      -7.4      2.226      2.871
REMARK  3 active torsions:
REMARK  status: ('A' for Active; 'I' for Inactive)
REMARK    1  A    between atoms: N1_1  and  C1_2 
REMARK    2  A    between atoms: C1_2  and  N2_4 
REMARK    3  A    between atoms: N2_4  and  N3_5 
ROOT
HETATM    1  N3  UNL     1      26.263  -0.424  52.583  1.00  0.00    -0.181 NA
HETATM    2  C2  UNL     1      25.224   0.267  53.093  1.00  0.00     0.041 C 
HETATM    3  C3  UNL     1      24.365   1.499  52.865  1.00  0.00     0.083 C 
HETATM    4  C4  UNL     1      24.743   2.100  51.662  1.00  0.00     0.016 C 
HETATM    5  C5  UNL     1      23.864   3.288  51.507  1.00  0.00    -0.047 A 
HETATM    6  C6  UNL     1      24.391   4.510  51.147  1.00  0.00     0.010 A 
HETATM    7  C7  UNL     1      23.696   5.686  50.986  1.00  0.00     0.024 A 
HETATM    8  C8  UNL     1      22.346   5.661  51.199  1.00  0.00     0.034 A 
HETATM    9 CL1  UNL     1      21.493   7.168  50.986  1.00  0.00    -0.084 Cl
HETATM   10  C9  UNL     1      21.812   4.442  51.560  1.00  0.00     0.035 A 
HETATM   11  C10 UNL     1      22.510   3.226  51.731  1.00  0.00    -0.028 A 
HETATM   12  C11 UNL     1      21.528   2.224  52.201  1.00  0.00     0.012 C 
HETATM   13  C12 UNL     1      21.528   1.105  52.899  1.00  0.00     0.001 C 
HETATM   14  C13 UNL     1      22.094  -0.028  53.682  1.00  0.00    -0.004 C 
HETATM   15  C14 UNL     1      23.247  -0.570  54.114  1.00  0.00    -0.021 C 
HETATM   16  C15 UNL     1      24.731  -0.607  54.207  1.00  0.00     0.084 C 
ENDROOT
BRANCH   1  17
HETATM   17  N2  UNL     1      26.804  -1.560  53.082  1.00  0.00    -0.254 N 
HETATM   18  H3  UNL     1      26.358  -2.457  53.292  1.00  0.00     0.191 HD
BRANCH  17  19
HETATM   19  C1  UNL     1      28.180  -1.465  53.340  1.00  0.00     0.185 C 
HETATM   20  S1  UNL     1      29.052  -0.161  53.732  1.00  0.00    -0.040 SA
BRANCH  19  21
HETATM   21  N1  UNL     1      29.245  -2.405  53.351  1.00  0.00    -0.375 N 
HETATM   22  H1  UNL     1      29.856  -2.815  54.099  1.00  0.00     0.158 HD
HETATM   23  H2  UNL     1      29.687  -2.932  52.575  1.00  0.00     0.158 HD
ENDBRANCH  19  21
ENDBRANCH  17  19
ENDBRANCH   1  17
TORSDOF 3
ENDMDL
MODEL 7
REMARK VINA RESULT:      -7.2      4.997      6.728
REMARK  3 active torsions:
REMARK  status: ('A' for Active; 'I' for Inactive)
REMARK    1  A    between atoms: N1_1  and  C1_2 
REMARK    2  A    between atoms: C1_2  and  N2_4 
REMARK    3  A    between atoms: N2_4  and  N3_5 
ROOT
HETATM    1  N3  UNL     1      20.476   0.049  52.574  1.00  0.00    -0.181 NA
HETATM    2  C2  UNL     1      21.447   0.980  52.669  1.00  0.00     0.041 C 
HETATM    3  C3  UNL     1      22.950   1.146  52.813  1.00  0.00     0.083 C 
HETATM    4  C4  UNL     1      23.553  -0.114  52.766  1.00  0.00     0.016 C 
HETATM    5  C5  UNL     1      25.012   0.127  52.910  1.00  0.00    -0.047 A 
HETATM    6  C6  UNL     1      25.767  -0.629  53.781  1.00  0.00     0.010 A 
HETATM    7  C7  UNL     1      27.115  -0.499  54.021  1.00  0.00     0.024 A 
HETATM    8  C8  UNL     1      27.792   0.471  53.335  1.00  0.00     0.034 A 
HETATM    9 CL1  UNL     1      29.501   0.610  53.661  1.00  0.00    -0.084 Cl
HETATM   10  C9  UNL     1      27.043   1.231  52.462  1.00  0.00     0.035 A 
HETATM   11  C10 UNL     1      25.660   1.113  52.205  1.00  0.00    -0.028 A 
HETATM   12  C11 UNL     1      25.299   2.197  51.264  1.00  0.00     0.012 C 
HETATM   13  C12 UNL     1      24.229   2.897  50.941  1.00  0.00     0.001 C 
HETATM   14  C13 UNL     1      22.806   3.334  50.983  1.00  0.00    -0.004 C 
HETATM   15  C14 UNL     1      21.613   3.068  51.545  1.00  0.00    -0.021 C 
HETATM   16  C15 UNL     1      20.724   2.271  52.432  1.00  0.00     0.084 C 
ENDROOT
BRANCH   1  17
HETATM   17  N2  UNL     1      19.147   0.274  52.449  1.00  0.00    -0.254 N 
HETATM   18  H3  UNL     1      18.657   1.093  52.078  1.00  0.00     0.191 HD
BRANCH  17  19
HETATM   19  C1  UNL     1      18.348  -0.786  52.902  1.00  0.00     0.185 C 
HETATM   20  S1  UNL     1      16.836  -1.172  52.477  1.00  0.00    -0.040 SA
BRANCH  19  21
HETATM   21  N1  UNL     1      18.549  -1.839  53.834  1.00  0.00    -0.375 N 
HETATM   22  H1  UNL     1      18.996  -1.909  54.781  1.00  0.00     0.158 HD
HETATM   23  H2  UNL     1      18.283  -2.840  53.786  1.00  0.00     0.158 HD
ENDBRANCH  19  21
ENDBRANCH  17  19
ENDBRANCH   1  17
TORSDOF 3
ENDMDL
MODEL 8
REMARK VINA RESULT:      -7.1      4.836      6.628
REMARK  3 active torsions:
REMARK  status: ('A' for Active; 'I' for Inactive)
REMARK    1  A    between atoms: N1_1  and  C1_2 
REMARK    2  A    between atoms: C1_2  and  N2_4 
REMARK    3  A    between atoms: N2_4  and  N3_5 
ROOT
HETATM    1  N3  UNL     1      29.998   5.088  48.127  1.00  0.00    -0.181 NA
HETATM    2  C2  UNL     1      28.834   5.767  48.100  1.00  0.00     0.041 C 
HETATM    3  C3  UNL     1      27.372   5.674  48.502  1.00  0.00     0.083 C 
HETATM    4  C4  UNL     1      27.171   4.486  49.211  1.00  0.00     0.016 C 
HETATM    5  C5  UNL     1      25.729   4.466  49.571  1.00  0.00    -0.047 A 
HETATM    6  C6  UNL     1      24.973   3.329  49.379  1.00  0.00     0.010 A 
HETATM    7  C7  UNL     1      23.634   3.182  49.652  1.00  0.00     0.024 A 
HETATM    8  C8  UNL     1      22.967   4.259  50.165  1.00  0.00     0.034 A 
HETATM    9 CL1  UNL     1      21.269   4.039  50.501  1.00  0.00    -0.084 Cl
HETATM   10  C9  UNL     1      23.716   5.400  50.358  1.00  0.00     0.035 A 
HETATM   11  C10 UNL     1      25.091   5.569  50.083  1.00  0.00    -0.028 A 
HETATM   12  C11 UNL     1      25.421   6.982  50.373  1.00  0.00     0.012 C 
HETATM   13  C12 UNL     1      26.311   7.878  49.992  1.00  0.00     0.001 C 
HETATM   14  C13 UNL     1      27.482   8.427  49.255  1.00  0.00    -0.004 C 
HETATM   15  C14 UNL     1      28.471   8.097  48.404  1.00  0.00    -0.021 C 
HETATM   16  C15 UNL     1      29.224   7.117  47.576  1.00  0.00     0.084 C 
ENDROOT
BRANCH   1  17
HETATM   17  N2  UNL     1      31.191   5.505  47.641  1.00  0.00    -0.254 N 
HETATM   18  H3  UNL     1      31.509   6.452  47.416  1.00  0.00     0.191 HD
BRANCH  17  19
HETATM   19  C1  UNL     1      32.108   4.465  47.422  1.00  0.00     0.185 C 
HETATM   20  S1  UNL     1      32.682   3.897  46.021  1.00  0.00    -0.040 SA
BRANCH  19  21
HETATM   21  N1  UNL     1      32.820   3.586  48.281  1.00  0.00    -0.375 N 
HETATM   22  H1  UNL     1      33.565   3.712  49.009  1.00  0.00     0.158 HD
HETATM   23  H2  UNL     1      32.762   2.557  48.389  1.00  0.00     0.158 HD
ENDBRANCH  19  21
ENDBRANCH  17  19
ENDBRANCH   1  17
TORSDOF 3
ENDMDL
MODEL 9
REMARK VINA RESULT:      -7.0      6.449      8.466
REMARK  3 active torsions:
REMARK  status: ('A' for Active; 'I' for Inactive)
REMARK    1  A    between atoms: N1_1  and  C1_2 
REMARK    2  A    between atoms: C1_2  and  N2_4 
REMARK    3  A    between atoms: N2_4  and  N3_5 
ROOT
HETATM    1  N3  UNL     1      18.162   2.039  51.566  1.00  0.00    -0.181 NA
HETATM    2  C2  UNL     1      18.914   0.933  51.732  1.00  0.00     0.041 C 
HETATM    3  C3  UNL     1      20.337   0.469  51.993  1.00  0.00     0.083 C 
HETATM    4  C4  UNL     1      21.150   1.587  52.196  1.00  0.00     0.016 C 
HETATM    5  C5  UNL     1      22.516   1.057  52.446  1.00  0.00    -0.047 A 
HETATM    6  C6  UNL     1      23.609   1.602  51.805  1.00  0.00     0.010 A 
HETATM    7  C7  UNL     1      24.917   1.198  51.932  1.00  0.00     0.024 A 
HETATM    8  C8  UNL     1      25.181   0.154  52.773  1.00  0.00     0.034 A 
HETATM    9 CL1  UNL     1      26.851  -0.334  52.912  1.00  0.00    -0.084 Cl
HETATM   10  C9  UNL     1      24.093  -0.396  53.417  1.00  0.00     0.035 A 
HETATM   11  C10 UNL     1      22.744   0.005  53.298  1.00  0.00    -0.028 A 
HETATM   12  C11 UNL     1      21.939  -0.935  54.110  1.00  0.00     0.012 C 
HETATM   13  C12 UNL     1      20.703  -1.393  54.138  1.00  0.00     0.001 C 
HETATM   14  C13 UNL     1      19.282  -1.545  53.722  1.00  0.00    -0.004 C 
HETATM   15  C14 UNL     1      18.356  -1.082  52.863  1.00  0.00    -0.021 C 
HETATM   16  C15 UNL     1      17.908  -0.177  51.771  1.00  0.00     0.084 C 
ENDROOT
BRANCH   1  17
HETATM   17  N2  UNL     1      16.829   2.086  51.334  1.00  0.00    -0.254 N 
HETATM   18  H3  UNL     1      16.118   1.363  51.474  1.00  0.00     0.191 HD
BRANCH  17  19
HETATM   19  C1  UNL     1      16.385   3.317  50.828  1.00  0.00     0.185 C 
HETATM   20  S1  UNL     1      15.387   3.604  49.589  1.00  0.00    -0.040 SA
BRANCH  19  21
HETATM   21  N1  UNL     1      16.627   4.671  51.184  1.00  0.00    -0.375 N 
HETATM   22  H1  UNL     1      16.652   5.200  52.090  1.00  0.00     0.158 HD
HETATM   23  H2  UNL     1      16.846   5.494  50.593  1.00  0.00     0.158 HD
ENDBRANCH  19  21
ENDBRANCH  17  19
ENDBRANCH   1  17
TORSDOF 3
ENDMDL
