MODEL 1
REMARK VINA RESULT:      -7.3      0.000      0.000
REMARK  8 active torsions:
REMARK  status: ('A' for Active; 'I' for Inactive)
REMARK    1  A    between atoms: C2_2  and  O1_3 
REMARK    2  A    between atoms: O1_3  and  C3_4 
REMARK    3  A    between atoms: C5_6  and  N1_7 
REMARK    4  A    between atoms: C7_9  and  C8_10 
REMARK    5  A    between atoms: C15_21  and  N4_22 
REMARK    6  A    between atoms: N4_22  and  C16_23 
REMARK    7  A    between atoms: C16_23  and  C17_24 
REMARK    8  A    between atoms: C17_24  and  C18_25 
ROOT
HETATM    1  C8  UNL     1      23.197   2.023  50.110  1.00  0.00     0.155 C 
HETATM    2  C9  UNL     1      22.038   2.691  49.633  1.00  0.00     0.061 C 
HETATM    3  N2  UNL     1      21.101   3.243  49.226  1.00  0.00    -0.197 NA
ENDROOT
BRANCH   1   4
HETATM    4  C7  UNL     1      23.478   2.117  51.562  1.00  0.00     0.149 C 
HETATM    5  C5  UNL     1      24.901   2.595  51.676  1.00  0.00     0.054 C 
HETATM    6  C4  UNL     1      26.057   2.600  52.536  1.00  0.00     0.064 C 
HETATM    7  C3  UNL     1      26.204   1.718  53.501  1.00  0.00     0.087 C 
HETATM    8  C15 UNL     1      25.425   0.608  53.992  1.00  0.00     0.328 C 
HETATM    9  C14 UNL     1      24.073   0.418  53.410  1.00  0.00     0.073 C 
HETATM   10  N3  UNL     1      23.278   0.972  52.372  1.00  0.00    -0.366 N 
HETATM   11  C13 UNL     1      23.654  -0.592  54.197  1.00  0.00     0.097 C 
HETATM   12  C10 UNL     1      22.020   0.327  52.059  1.00  0.00     0.154 C 
HETATM   13  C11 UNL     1      21.638  -0.707  53.056  1.00  0.00     0.037 C 
HETATM   14  C12 UNL     1      22.333  -1.227  54.046  1.00  0.00     0.138 C 
HETATM   15  F1  UNL     1      21.804  -2.178  54.850  1.00  0.00    -0.204 F 
HETATM   16 CL1  UNL     1      24.567  -1.337  55.526  1.00  0.00    -0.079 Cl
BRANCH   5  17
HETATM   17  N1  UNL     1      25.180   3.287  50.587  1.00  0.00    -0.297 NA
HETATM   18  C6  UNL     1      26.461   3.257  49.940  1.00  0.00     0.178 C 
ENDBRANCH   5  17
BRANCH   7  19
HETATM   19  O1  UNL     1      27.392   1.927  54.191  1.00  0.00    -0.353 OA
BRANCH  19  20
HETATM   20  C2  UNL     1      28.626   2.256  53.654  1.00  0.00     0.171 C 
HETATM   21  C1  UNL     1      29.531   1.033  53.856  1.00  0.00     0.034 C 
ENDBRANCH  19  20
ENDBRANCH   7  19
BRANCH   8  22
HETATM   22  N4  UNL     1      26.091  -0.670  53.853  1.00  0.00     0.100 N 
HETATM   23  H17 UNL     1      25.524  -1.464  54.174  1.00  0.00     0.317 HD
BRANCH  22  24
HETATM   24  C16 UNL     1      26.638  -0.964  52.574  1.00  0.00     0.277 C 
BRANCH  24  25
HETATM   25  C17 UNL     1      27.294  -2.347  52.540  1.00  0.00     0.099 C 
BRANCH  25  26
HETATM   26  C18 UNL     1      28.702  -2.280  52.984  1.00  0.00     0.232 C 
HETATM   27  O2  UNL     1      28.719  -3.343  53.539  1.00  0.00    -0.307 OA
ENDBRANCH  25  26
ENDBRANCH  24  25
ENDBRANCH  22  24
ENDBRANCH   8  22
ENDBRANCH   1   4
TORSDOF 8
ENDMDL
MODEL 2
REMARK VINA RESULT:      -7.0      3.088      6.118
REMARK  8 active torsions:
REMARK  status: ('A' for Active; 'I' for Inactive)
REMARK    1  A    between atoms: C2_2  and  O1_3 
REMARK    2  A    between atoms: O1_3  and  C3_4 
REMARK    3  A    between atoms: C5_6  and  N1_7 
REMARK    4  A    between atoms: C7_9  and  C8_10 
REMARK    5  A    between atoms: C15_21  and  N4_22 
REMARK    6  A    between atoms: N4_22  and  C16_23 
REMARK    7  A    between atoms: C16_23  and  C17_24 
REMARK    8  A    between atoms: C17_24  and  C18_25 
ROOT
HETATM    1  C8  UNL     1      25.871   1.042  54.091  1.00  0.00     0.155 C 
HETATM    2  C9  UNL     1      26.999   0.272  54.479  1.00  0.00     0.061 C 
HETATM    3  N2  UNL     1      27.932  -0.341  54.799  1.00  0.00    -0.197 NA
ENDROOT
BRANCH   1   4
HETATM    4  C7  UNL     1      25.022   0.494  53.007  1.00  0.00     0.149 C 
HETATM    5  C5  UNL     1      24.988   1.551  51.935  1.00  0.00     0.054 C 
HETATM    6  C4  UNL     1      24.211   2.060  50.834  1.00  0.00     0.064 C 
HETATM    7  C3  UNL     1      22.927   1.802  50.716  1.00  0.00     0.087 C 
HETATM    8  C15 UNL     1      21.964   1.056  51.489  1.00  0.00     0.328 C 
HETATM    9  C14 UNL     1      22.479   0.264  52.633  1.00  0.00     0.073 C 
HETATM   10  N3  UNL     1      23.707   0.068  53.319  1.00  0.00    -0.366 N 
HETATM   11  C13 UNL     1      21.334  -0.352  52.984  1.00  0.00     0.097 C 
HETATM   12  C10 UNL     1      23.690  -0.720  54.533  1.00  0.00     0.154 C 
HETATM   13  C11 UNL     1      22.394  -1.414  54.753  1.00  0.00     0.037 C 
HETATM   14  C12 UNL     1      21.244  -1.281  54.125  1.00  0.00     0.138 C 
HETATM   15  F1  UNL     1      20.162  -2.007  54.484  1.00  0.00    -0.204 F 
HETATM   16 CL1  UNL     1      19.760  -0.183  52.180  1.00  0.00    -0.079 Cl
BRANCH   5  17
HETATM   17  N1  UNL     1      26.098   2.258  52.035  1.00  0.00    -0.297 NA
HETATM   18  C6  UNL     1      26.707   2.930  50.922  1.00  0.00     0.178 C 
ENDBRANCH   5  17
BRANCH   7  19
HETATM   19  O1  UNL     1      22.401   2.397  49.575  1.00  0.00    -0.353 OA
BRANCH  19  20
HETATM   20  C2  UNL     1      21.829   1.761  48.486  1.00  0.00     0.171 C 
HETATM   21  C1  UNL     1      22.286   2.530  47.239  1.00  0.00     0.034 C 
ENDBRANCH  19  20
ENDBRANCH   7  19
BRANCH   8  22
HETATM   22  N4  UNL     1      20.901   1.876  52.031  1.00  0.00     0.100 N 
HETATM   23  H17 UNL     1      20.450   1.468  52.859  1.00  0.00     0.317 HD
BRANCH  22  24
HETATM   24  C16 UNL     1      21.219   3.238  52.287  1.00  0.00     0.277 C 
BRANCH  24  25
HETATM   25  C17 UNL     1      20.240   4.190  51.594  1.00  0.00     0.099 C 
BRANCH  25  26
HETATM   26  C18 UNL     1      19.068   3.459  51.069  1.00  0.00     0.232 C 
HETATM   27  O2  UNL     1      18.376   3.599  52.038  1.00  0.00    -0.307 OA
ENDBRANCH  25  26
ENDBRANCH  24  25
ENDBRANCH  22  24
ENDBRANCH   8  22
ENDBRANCH   1   4
TORSDOF 8
ENDMDL
MODEL 3
REMARK VINA RESULT:      -6.6      3.348      5.792
REMARK  8 active torsions:
REMARK  status: ('A' for Active; 'I' for Inactive)
REMARK    1  A    between atoms: C2_2  and  O1_3 
REMARK    2  A    between atoms: O1_3  and  C3_4 
REMARK    3  A    between atoms: C5_6  and  N1_7 
REMARK    4  A    between atoms: C7_9  and  C8_10 
REMARK    5  A    between atoms: C15_21  and  N4_22 
REMARK    6  A    between atoms: N4_22  and  C16_23 
REMARK    7  A    between atoms: C16_23  and  C17_24 
REMARK    8  A    between atoms: C17_24  and  C18_25 
ROOT
HETATM    1  C8  UNL     1      20.080  -0.047  53.475  1.00  0.00     0.155 C 
HETATM    2  C9  UNL     1      19.012  -0.978  53.368  1.00  0.00     0.061 C 
HETATM    3  N2  UNL     1      18.138  -1.738  53.300  1.00  0.00    -0.197 NA
ENDROOT
BRANCH   1   4
HETATM    4  C7  UNL     1      21.218  -0.219  52.542  1.00  0.00     0.149 C 
HETATM    5  C5  UNL     1      22.459  -0.170  53.393  1.00  0.00     0.054 C 
HETATM    6  C4  UNL     1      23.869   0.128  53.372  1.00  0.00     0.064 C 
HETATM    7  C3  UNL     1      24.403   0.874  52.429  1.00  0.00     0.087 C 
HETATM    8  C15 UNL     1      23.897   1.563  51.267  1.00  0.00     0.328 C 
HETATM    9  C14 UNL     1      22.476   1.332  50.907  1.00  0.00     0.073 C 
HETATM   10  N3  UNL     1      21.341   0.668  51.444  1.00  0.00    -0.366 N 
HETATM   11  C13 UNL     1      22.447   2.019  49.749  1.00  0.00     0.097 C 
HETATM   12  C10 UNL     1      20.066   0.858  50.784  1.00  0.00     0.154 C 
HETATM   13  C11 UNL     1      20.191   1.553  49.477  1.00  0.00     0.037 C 
HETATM   14  C12 UNL     1      21.227   2.157  48.933  1.00  0.00     0.138 C 
HETATM   15  F1  UNL     1      21.137   2.747  47.719  1.00  0.00    -0.204 F 
HETATM   16 CL1  UNL     1      23.813   2.865  48.994  1.00  0.00    -0.079 Cl
BRANCH   5  17
HETATM   17  N1  UNL     1      22.129  -0.573  54.606  1.00  0.00    -0.297 NA
HETATM   18  C6  UNL     1      22.977  -1.395  55.422  1.00  0.00     0.178 C 
ENDBRANCH   5  17
BRANCH   7  19
HETATM   19  O1  UNL     1      25.772   1.015  52.621  1.00  0.00    -0.353 OA
BRANCH  19  20
HETATM   20  C2  UNL     1      26.429   1.275  53.814  1.00  0.00     0.171 C 
HETATM   21  C1  UNL     1      27.605   2.199  53.473  1.00  0.00     0.034 C 
ENDBRANCH  19  20
ENDBRANCH   7  19
BRANCH   8  22
HETATM   22  N4  UNL     1      24.052   3.001  51.337  1.00  0.00     0.100 N 
HETATM   23  H17 UNL     1      23.620   3.498  50.549  1.00  0.00     0.317 HD
BRANCH  22  24
HETATM   24  C16 UNL     1      23.668   3.621  52.558  1.00  0.00     0.277 C 
BRANCH  24  25
HETATM   25  C17 UNL     1      23.200   5.063  52.340  1.00  0.00     0.099 C 
BRANCH  25  26
HETATM   26  C18 UNL     1      21.851   5.100  51.738  1.00  0.00     0.232 C 
HETATM   27  O2  UNL     1      21.393   4.194  52.377  1.00  0.00    -0.307 OA
ENDBRANCH  25  26
ENDBRANCH  24  25
ENDBRANCH  22  24
ENDBRANCH   8  22
ENDBRANCH   1   4
TORSDOF 8
ENDMDL
MODEL 4
REMARK VINA RESULT:      -6.3      3.562      6.080
REMARK  8 active torsions:
REMARK  status: ('A' for Active; 'I' for Inactive)
REMARK    1  A    between atoms: C2_2  and  O1_3 
REMARK    2  A    between atoms: O1_3  and  C3_4 
REMARK    3  A    between atoms: C5_6  and  N1_7 
REMARK    4  A    between atoms: C7_9  and  C8_10 
REMARK    5  A    between atoms: C15_21  and  N4_22 
REMARK    6  A    between atoms: N4_22  and  C16_23 
REMARK    7  A    between atoms: C16_23  and  C17_24 
REMARK    8  A    between atoms: C17_24  and  C18_25 
ROOT
HETATM    1  C8  UNL     1      26.087   2.946  49.680  1.00  0.00     0.155 C 
HETATM    2  C9  UNL     1      26.994   3.958  49.270  1.00  0.00     0.061 C 
HETATM    3  N2  UNL     1      27.749   4.771  48.930  1.00  0.00    -0.197 NA
ENDROOT
BRANCH   1   4
HETATM    4  C7  UNL     1      25.257   3.229  50.875  1.00  0.00     0.149 C 
HETATM    5  C5  UNL     1      25.217   1.947  51.663  1.00  0.00     0.054 C 
HETATM    6  C4  UNL     1      24.444   1.199  52.621  1.00  0.00     0.064 C 
HETATM    7  C3  UNL     1      23.164   1.437  52.815  1.00  0.00     0.087 C 
HETATM    8  C15 UNL     1      22.205   2.358  52.255  1.00  0.00     0.328 C 
HETATM    9  C14 UNL     1      22.721   3.395  51.327  1.00  0.00     0.073 C 
HETATM   10  N3  UNL     1      23.945   3.734  50.691  1.00  0.00    -0.366 N 
HETATM   11  C13 UNL     1      21.583   4.091  51.148  1.00  0.00     0.097 C 
HETATM   12  C10 UNL     1      23.929   4.790  49.702  1.00  0.00     0.154 C 
HETATM   13  C11 UNL     1      22.641   5.532  49.671  1.00  0.00     0.037 C 
HETATM   14  C12 UNL     1      21.496   5.267  50.264  1.00  0.00     0.138 C 
HETATM   15  F1  UNL     1      20.421   6.071  50.103  1.00  0.00    -0.204 F 
HETATM   16 CL1  UNL     1      20.014   3.754  51.910  1.00  0.00    -0.079 Cl
BRANCH   5  17
HETATM   17  N1  UNL     1      26.315   1.271  51.383  1.00  0.00    -0.297 NA
HETATM   18  C6  UNL     1      26.878   0.283  52.259  1.00  0.00     0.178 C 
ENDBRANCH   5  17
BRANCH   7  19
HETATM   19  O1  UNL     1      22.641   0.593  53.786  1.00  0.00    -0.353 OA
BRANCH  19  20
HETATM   20  C2  UNL     1      22.918  -0.753  53.964  1.00  0.00     0.171 C 
HETATM   21  C1  UNL     1      21.583  -1.435  54.291  1.00  0.00     0.034 C 
ENDBRANCH  19  20
ENDBRANCH   7  19
BRANCH   8  22
HETATM   22  N4  UNL     1      21.125   1.705  51.546  1.00  0.00     0.100 N 
HETATM   23  H17 UNL     1      20.451   2.361  51.133  1.00  0.00     0.317 HD
BRANCH  22  24
HETATM   24  C16 UNL     1      21.498   0.734  50.577  1.00  0.00     0.277 C 
BRANCH  24  25
HETATM   25  C17 UNL     1      20.914   1.053  49.198  1.00  0.00     0.099 C 
BRANCH  25  26
HETATM   26  C18 UNL     1      21.954   1.572  48.286  1.00  0.00     0.232 C 
HETATM   27  O2  UNL     1      21.357   2.555  47.945  1.00  0.00    -0.307 OA
ENDBRANCH  25  26
ENDBRANCH  24  25
ENDBRANCH  22  24
ENDBRANCH   8  22
ENDBRANCH   1   4
TORSDOF 8
ENDMDL
MODEL 5
REMARK VINA RESULT:      -6.1      3.761      6.425
REMARK  8 active torsions:
REMARK  status: ('A' for Active; 'I' for Inactive)
REMARK    1  A    between atoms: C2_2  and  O1_3 
REMARK    2  A    between atoms: O1_3  and  C3_4 
REMARK    3  A    between atoms: C5_6  and  N1_7 
REMARK    4  A    between atoms: C7_9  and  C8_10 
REMARK    5  A    between atoms: C15_21  and  N4_22 
REMARK    6  A    between atoms: N4_22  and  C16_23 
REMARK    7  A    between atoms: C16_23  and  C17_24 
REMARK    8  A    between atoms: C17_24  and  C18_25 
ROOT
HETATM    1  C8  UNL     1      21.061   0.399  52.922  1.00  0.00     0.155 C 
HETATM    2  C9  UNL     1      21.233  -0.483  54.022  1.00  0.00     0.061 C 
HETATM    3  N2  UNL     1      21.354  -1.208  54.921  1.00  0.00    -0.197 NA
ENDROOT
BRANCH   1   4
HETATM    4  C7  UNL     1      21.836   1.661  52.944  1.00  0.00     0.149 C 
HETATM    5  C5  UNL     1      20.967   2.690  52.271  1.00  0.00     0.054 C 
HETATM    6  C4  UNL     1      20.995   3.932  51.541  1.00  0.00     0.064 C 
HETATM    7  C3  UNL     1      22.083   4.352  50.931  1.00  0.00     0.087 C 
HETATM    8  C15 UNL     1      23.422   3.839  50.772  1.00  0.00     0.328 C 
HETATM    9  C14 UNL     1      23.779   2.623  51.543  1.00  0.00     0.073 C 
HETATM   10  N3  UNL     1      23.137   1.673  52.381  1.00  0.00    -0.366 N 
HETATM   11  C13 UNL     1      25.087   2.560  51.228  1.00  0.00     0.097 C 
HETATM   12  C10 UNL     1      23.895   0.512  52.799  1.00  0.00     0.154 C 
HETATM   13  C11 UNL     1      25.339   0.614  52.464  1.00  0.00     0.037 C 
HETATM   14  C12 UNL     1      25.975   1.490  51.715  1.00  0.00     0.138 C 
HETATM   15  F1  UNL     1      27.311   1.408  51.522  1.00  0.00    -0.204 F 
HETATM   16 CL1  UNL     1      25.977   3.706  50.204  1.00  0.00    -0.079 Cl
BRANCH   5  17
HETATM   17  N1  UNL     1      19.711   2.321  52.432  1.00  0.00    -0.297 NA
HETATM   18  C6  UNL     1      18.631   2.830  51.636  1.00  0.00     0.178 C 
ENDBRANCH   5  17
BRANCH   7  19
HETATM   19  O1  UNL     1      21.862   5.571  50.302  1.00  0.00    -0.353 OA
BRANCH  19  20
HETATM   20  C2  UNL     1      22.368   6.808  50.671  1.00  0.00     0.171 C 
HETATM   21  C1  UNL     1      21.244   7.826  50.442  1.00  0.00     0.034 C 
ENDBRANCH  19  20
ENDBRANCH   7  19
BRANCH   8  22
HETATM   22  N4  UNL     1      23.767   3.544  49.397  1.00  0.00     0.100 N 
HETATM   23  H17 UNL     1      24.347   2.704  49.292  1.00  0.00     0.317 HD
BRANCH  22  24
HETATM   24  C16 UNL     1      22.689   3.496  48.470  1.00  0.00     0.277 C 
BRANCH  24  25
HETATM   25  C17 UNL     1      22.423   2.069  47.983  1.00  0.00     0.099 C 
BRANCH  25  26
HETATM   26  C18 UNL     1      21.192   1.520  48.588  1.00  0.00     0.232 C 
HETATM   27  O2  UNL     1      21.738   0.843  49.414  1.00  0.00    -0.307 OA
ENDBRANCH  25  26
ENDBRANCH  24  25
ENDBRANCH  22  24
ENDBRANCH   8  22
ENDBRANCH   1   4
TORSDOF 8
ENDMDL
MODEL 6
REMARK VINA RESULT:      -5.6      9.168     11.955
REMARK  8 active torsions:
REMARK  status: ('A' for Active; 'I' for Inactive)
REMARK    1  A    between atoms: C2_2  and  O1_3 
REMARK    2  A    between atoms: O1_3  and  C3_4 
REMARK    3  A    between atoms: C5_6  and  N1_7 
REMARK    4  A    between atoms: C7_9  and  C8_10 
REMARK    5  A    between atoms: C15_21  and  N4_22 
REMARK    6  A    between atoms: N4_22  and  C16_23 
REMARK    7  A    between atoms: C16_23  and  C17_24 
REMARK    8  A    between atoms: C17_24  and  C18_25 
ROOT
HETATM    1  C8  UNL     1      33.209   8.448  44.508  1.00  0.00     0.155 C 
HETATM    2  C9  UNL     1      33.330   8.873  43.158  1.00  0.00     0.061 C 
HETATM    3  N2  UNL     1      33.428   9.240  42.061  1.00  0.00    -0.197 NA
ENDROOT
BRANCH   1   4
HETATM    4  C7  UNL     1      32.401   7.232  44.760  1.00  0.00     0.149 C 
HETATM    5  C5  UNL     1      31.366   7.629  45.780  1.00  0.00     0.054 C 
HETATM    6  C4  UNL     1      30.509   7.121  46.821  1.00  0.00     0.064 C 
HETATM    7  C3  UNL     1      30.745   5.967  47.408  1.00  0.00     0.087 C 
HETATM    8  C15 UNL     1      31.757   4.948  47.279  1.00  0.00     0.328 C 
HETATM    9  C14 UNL     1      32.728   5.093  46.167  1.00  0.00     0.073 C 
HETATM   10  N3  UNL     1      33.060   6.045  45.167  1.00  0.00    -0.366 N 
HETATM   11  C13 UNL     1      33.382   3.925  46.315  1.00  0.00     0.097 C 
HETATM   12  C10 UNL     1      34.242   5.807  44.365  1.00  0.00     0.154 C 
HETATM   13  C11 UNL     1      34.810   4.449  44.565  1.00  0.00     0.037 C 
HETATM   14  C12 UNL     1      34.514   3.529  45.459  1.00  0.00     0.138 C 
HETATM   15  F1  UNL     1      35.160   2.341  45.483  1.00  0.00    -0.204 F 
HETATM   16 CL1  UNL     1      33.029   2.669  47.521  1.00  0.00    -0.079 Cl
BRANCH   5  17
HETATM   17  N1  UNL     1      31.155   8.925  45.652  1.00  0.00    -0.297 NA
HETATM   18  C6  UNL     1      29.946   9.573  46.076  1.00  0.00     0.178 C 
ENDBRANCH   5  17
BRANCH   7  19
HETATM   19  O1  UNL     1      29.782   5.693  48.372  1.00  0.00    -0.353 OA
BRANCH  19  20
HETATM   20  C2  UNL     1      28.457   6.101  48.373  1.00  0.00     0.171 C 
HETATM   21  C1  UNL     1      27.615   4.852  48.666  1.00  0.00     0.034 C 
ENDBRANCH  19  20
ENDBRANCH   7  19
BRANCH   8  22
HETATM   22  N4  UNL     1      32.557   4.775  48.473  1.00  0.00     0.100 N 
HETATM   23  H17 UNL     1      33.367   4.159  48.338  1.00  0.00     0.317 HD
BRANCH  22  24
HETATM   24  C16 UNL     1      32.969   5.963  49.138  1.00  0.00     0.277 C 
BRANCH  24  25
HETATM   25  C17 UNL     1      34.352   6.424  48.672  1.00  0.00     0.099 C 
BRANCH  25  26
HETATM   26  C18 UNL     1      35.424   5.750  49.434  1.00  0.00     0.232 C 
HETATM   27  O2  UNL     1      35.374   4.707  48.844  1.00  0.00    -0.307 OA
ENDBRANCH  25  26
ENDBRANCH  24  25
ENDBRANCH  22  24
ENDBRANCH   8  22
ENDBRANCH   1   4
TORSDOF 8
ENDMDL
MODEL 7
REMARK VINA RESULT:      -5.6      4.266      7.454
REMARK  8 active torsions:
REMARK  status: ('A' for Active; 'I' for Inactive)
REMARK    1  A    between atoms: C2_2  and  O1_3 
REMARK    2  A    between atoms: O1_3  and  C3_4 
REMARK    3  A    between atoms: C5_6  and  N1_7 
REMARK    4  A    between atoms: C7_9  and  C8_10 
REMARK    5  A    between atoms: C15_21  and  N4_22 
REMARK    6  A    between atoms: N4_22  and  C16_23 
REMARK    7  A    between atoms: C16_23  and  C17_24 
REMARK    8  A    between atoms: C17_24  and  C18_25 
ROOT
HETATM    1  C8  UNL     1      23.472   1.361  52.815  1.00  0.00     0.155 C 
HETATM    2  C9  UNL     1      24.580   0.614  53.298  1.00  0.00     0.061 C 
HETATM    3  N2  UNL     1      25.497   0.021  53.692  1.00  0.00    -0.197 NA
ENDROOT
BRANCH   1   4
HETATM    4  C7  UNL     1      22.602   0.701  51.814  1.00  0.00     0.149 C 
HETATM    5  C5  UNL     1      22.566   1.627  50.626  1.00  0.00     0.054 C 
HETATM    6  C4  UNL     1      21.781   2.015  49.482  1.00  0.00     0.064 C 
HETATM    7  C3  UNL     1      20.491   1.762  49.411  1.00  0.00     0.087 C 
HETATM    8  C15 UNL     1      19.531   1.125  50.277  1.00  0.00     0.328 C 
HETATM    9  C14 UNL     1      20.052   0.464  51.499  1.00  0.00     0.073 C 
HETATM   10  N3  UNL     1      21.286   0.333  52.189  1.00  0.00    -0.366 N 
HETATM   11  C13 UNL     1      18.905  -0.092  51.934  1.00  0.00     0.097 C 
HETATM   12  C10 UNL     1      21.277  -0.309  53.486  1.00  0.00     0.154 C 
HETATM   13  C11 UNL     1      19.976  -0.955  53.801  1.00  0.00     0.037 C 
HETATM   14  C12 UNL     1      18.819  -0.880  53.176  1.00  0.00     0.138 C 
HETATM   15  F1  UNL     1      17.733  -1.545  53.630  1.00  0.00    -0.204 F 
HETATM   16 CL1  UNL     1      17.322   0.004  51.134  1.00  0.00    -0.079 Cl
BRANCH   5  17
HETATM   17  N1  UNL     1      23.686   2.325  50.629  1.00  0.00    -0.297 NA
HETATM   18  C6  UNL     1      24.016   3.290  49.619  1.00  0.00     0.178 C 
ENDBRANCH   5  17
BRANCH   7  19
HETATM   19  O1  UNL     1      19.958   2.228  48.215  1.00  0.00    -0.353 OA
BRANCH  19  20
HETATM   20  C2  UNL     1      20.438   3.265  47.431  1.00  0.00     0.171 C 
HETATM   21  C1  UNL     1      19.405   3.487  46.319  1.00  0.00     0.034 C 
ENDBRANCH  19  20
ENDBRANCH   7  19
BRANCH   8  22
HETATM   22  N4  UNL     1      18.485   2.016  50.734  1.00  0.00     0.100 N 
HETATM   23  H17 UNL     1      17.856   1.590  51.424  1.00  0.00     0.317 HD
BRANCH  22  24
HETATM   24  C16 UNL     1      18.900   3.296  51.195  1.00  0.00     0.277 C 
BRANCH  24  25
HETATM   25  C17 UNL     1      18.084   4.422  50.555  1.00  0.00     0.099 C 
BRANCH  25  26
HETATM   26  C18 UNL     1      16.788   3.922  50.051  1.00  0.00     0.232 C 
HETATM   27  O2  UNL     1      17.051   4.014  48.885  1.00  0.00    -0.307 OA
ENDBRANCH  25  26
ENDBRANCH  24  25
ENDBRANCH  22  24
ENDBRANCH   8  22
ENDBRANCH   1   4
TORSDOF 8
ENDMDL
MODEL 8
REMARK VINA RESULT:      -5.5      4.448      7.003
REMARK  8 active torsions:
REMARK  status: ('A' for Active; 'I' for Inactive)
REMARK    1  A    between atoms: C2_2  and  O1_3 
REMARK    2  A    between atoms: O1_3  and  C3_4 
REMARK    3  A    between atoms: C5_6  and  N1_7 
REMARK    4  A    between atoms: C7_9  and  C8_10 
REMARK    5  A    between atoms: C15_21  and  N4_22 
REMARK    6  A    between atoms: N4_22  and  C16_23 
REMARK    7  A    between atoms: C16_23  and  C17_24 
REMARK    8  A    between atoms: C17_24  and  C18_25 
ROOT
HETATM    1  C8  UNL     1      21.368   0.959  51.454  1.00  0.00     0.155 C 
HETATM    2  C9  UNL     1      20.695   1.996  52.153  1.00  0.00     0.061 C 
HETATM    3  N2  UNL     1      20.128   2.832  52.725  1.00  0.00    -0.197 NA
ENDROOT
BRANCH   1   4
HETATM    4  C7  UNL     1      22.294   1.367  50.373  1.00  0.00     0.149 C 
HETATM    5  C5  UNL     1      23.545   1.847  51.060  1.00  0.00     0.054 C 
HETATM    6  C4  UNL     1      24.692   2.706  50.913  1.00  0.00     0.064 C 
HETATM    7  C3  UNL     1      24.709   3.694  50.044  1.00  0.00     0.087 C 
HETATM    8  C15 UNL     1      23.772   4.217  49.080  1.00  0.00     0.328 C 
HETATM    9  C14 UNL     1      22.520   3.451  48.866  1.00  0.00     0.073 C 
HETATM   10  N3  UNL     1      21.856   2.326  49.425  1.00  0.00    -0.366 N 
HETATM   11  C13 UNL     1      22.014   4.170  47.846  1.00  0.00     0.097 C 
HETATM   12  C10 UNL     1      20.516   2.030  48.967  1.00  0.00     0.154 C 
HETATM   13  C11 UNL     1      20.118   2.835  47.783  1.00  0.00     0.037 C 
HETATM   14  C12 UNL     1      20.716   3.865  47.220  1.00  0.00     0.138 C 
HETATM   15  F1  UNL     1      20.184   4.478  46.137  1.00  0.00    -0.204 F 
HETATM   16 CL1  UNL     1      22.775   5.577  47.074  1.00  0.00    -0.079 Cl
BRANCH   5  17
HETATM   17  N1  UNL     1      23.624   1.229  52.223  1.00  0.00    -0.297 NA
HETATM   18  C6  UNL     1      24.697   1.435  53.155  1.00  0.00     0.178 C 
ENDBRANCH   5  17
BRANCH   7  19
HETATM   19  O1  UNL     1      25.921   4.373  50.085  1.00  0.00    -0.353 OA
BRANCH  19  20
HETATM   20  C2  UNL     1      26.980   4.254  49.199  1.00  0.00     0.171 C 
HETATM   21  C1  UNL     1      27.188   5.641  48.578  1.00  0.00     0.034 C 
ENDBRANCH  19  20
ENDBRANCH   7  19
BRANCH   8  22
HETATM   22  N4  UNL     1      23.355   5.575  49.360  1.00  0.00     0.100 N 
HETATM   23  H17 UNL     1      22.577   5.893  48.771  1.00  0.00     0.317 HD
BRANCH  22  24
HETATM   24  C16 UNL     1      23.079   5.885  50.720  1.00  0.00     0.277 C 
BRANCH  24  25
HETATM   25  C17 UNL     1      22.029   6.992  50.849  1.00  0.00     0.099 C 
BRANCH  25  26
HETATM   26  C18 UNL     1      20.861   6.721  49.985  1.00  0.00     0.232 C 
HETATM   27  O2  UNL     1      20.499   5.730  50.554  1.00  0.00    -0.307 OA
ENDBRANCH  25  26
ENDBRANCH  24  25
ENDBRANCH  22  24
ENDBRANCH   8  22
ENDBRANCH   1   4
TORSDOF 8
ENDMDL
MODEL 9
REMARK VINA RESULT:      -5.5      4.083      5.585
REMARK  8 active torsions:
REMARK  status: ('A' for Active; 'I' for Inactive)
REMARK    1  A    between atoms: C2_2  and  O1_3 
REMARK    2  A    between atoms: O1_3  and  C3_4 
REMARK    3  A    between atoms: C5_6  and  N1_7 
REMARK    4  A    between atoms: C7_9  and  C8_10 
REMARK    5  A    between atoms: C15_21  and  N4_22 
REMARK    6  A    between atoms: N4_22  and  C16_23 
REMARK    7  A    between atoms: C16_23  and  C17_24 
REMARK    8  A    between atoms: C17_24  and  C18_25 
ROOT
HETATM    1  C8  UNL     1      19.166   3.734  50.925  1.00  0.00     0.155 C 
HETATM    2  C9  UNL     1      17.883   3.827  51.526  1.00  0.00     0.061 C 
HETATM    3  N2  UNL     1      16.826   3.910  51.999  1.00  0.00    -0.197 NA
ENDROOT
BRANCH   1   4
HETATM    4  C7  UNL     1      20.331   4.086  51.770  1.00  0.00     0.149 C 
HETATM    5  C5  UNL     1      21.035   5.210  51.056  1.00  0.00     0.054 C 
HETATM    6  C4  UNL     1      22.310   5.859  50.889  1.00  0.00     0.064 C 
HETATM    7  C3  UNL     1      23.439   5.255  51.194  1.00  0.00     0.087 C 
HETATM    8  C15 UNL     1      23.789   3.955  51.712  1.00  0.00     0.328 C 
HETATM    9  C14 UNL     1      22.676   3.074  52.143  1.00  0.00     0.073 C 
HETATM   10  N3  UNL     1      21.256   3.069  52.116  1.00  0.00    -0.366 N 
HETATM   11  C13 UNL     1      23.404   2.065  52.658  1.00  0.00     0.097 C 
HETATM   12  C10 UNL     1      20.571   1.865  52.535  1.00  0.00     0.154 C 
HETATM   13  C11 UNL     1      21.481   0.872  53.164  1.00  0.00     0.037 C 
HETATM   14  C12 UNL     1      22.796   0.852  53.233  1.00  0.00     0.138 C 
HETATM   15  F1  UNL     1      23.450  -0.158  53.850  1.00  0.00    -0.204 F 
HETATM   16 CL1  UNL     1      25.176   1.988  52.750  1.00  0.00    -0.079 Cl
BRANCH   5  17
HETATM   17  N1  UNL     1      20.136   5.846  50.329  1.00  0.00    -0.297 NA
HETATM   18  C6  UNL     1      20.427   7.034  49.578  1.00  0.00     0.178 C 
ENDBRANCH   5  17
BRANCH   7  19
HETATM   19  O1  UNL     1      24.528   6.082  50.950  1.00  0.00    -0.353 OA
BRANCH  19  20
HETATM   20  C2  UNL     1      24.578   7.173  50.098  1.00  0.00     0.171 C 
HETATM   21  C1  UNL     1      26.013   7.711  50.157  1.00  0.00     0.034 C 
ENDBRANCH  19  20
ENDBRANCH   7  19
BRANCH   8  22
HETATM   22  N4  UNL     1      24.579   3.162  50.793  1.00  0.00     0.100 N 
HETATM   23  H17 UNL     1      24.611   2.165  51.036  1.00  0.00     0.317 HD
BRANCH  22  24
HETATM   24  C16 UNL     1      24.276   3.305  49.411  1.00  0.00     0.277 C 
BRANCH  24  25
HETATM   25  C17 UNL     1      23.174   2.338  48.968  1.00  0.00     0.099 C 
BRANCH  25  26
HETATM   26  C18 UNL     1      22.080   3.056  48.281  1.00  0.00     0.232 C 
HETATM   27  O2  UNL     1      22.384   2.732  47.168  1.00  0.00    -0.307 OA
ENDBRANCH  25  26
ENDBRANCH  24  25
ENDBRANCH  22  24
ENDBRANCH   8  22
ENDBRANCH   1   4
TORSDOF 8
ENDMDL
