MODEL 1
REMARK VINA RESULT:      -8.3      0.000      0.000
REMARK  4 active torsions:
REMARK  status: ('A' for Active; 'I' for Inactive)
REMARK    1  A    between atoms: N1_2  and  C2_3 
REMARK    2  A    between atoms: C3_5  and  N3_6 
REMARK    3  A    between atoms: N5_12  and  C8_13 
REMARK    4  A    between atoms: C8_13  and  C9_14 
ROOT
HETATM    1  C2  UNL     1      20.804  -1.303  54.108  1.00  0.00     0.156 A 
HETATM    2  N2  UNL     1      21.698  -1.665  55.045  1.00  0.00    -0.045 NA
HETATM    3  C3  UNL     1      22.954  -1.203  55.021  1.00  0.00     0.724 A 
HETATM    4  N4  UNL     1      23.302  -0.369  54.045  1.00  0.00    -0.044 NA
HETATM    5  C4  UNL     1      22.505   0.063  53.060  1.00  0.00     0.163 A 
HETATM    6  C5  UNL     1      21.199  -0.420  53.087  1.00  0.00     0.058 A 
HETATM    7  C6  UNL     1      20.656   0.213  51.969  1.00  0.00     0.036 A 
HETATM    8  C7  UNL     1      21.603   0.986  51.378  1.00  0.00     0.094 A 
HETATM    9  N5  UNL     1      22.775   0.922  52.027  1.00  0.00    -0.336 N 
ENDROOT
BRANCH   9  10
HETATM   10  C8  UNL     1      24.086   1.515  51.845  1.00  0.00     0.169 C 
BRANCH  10  11
HETATM   11  C9  UNL     1      24.036   2.981  51.575  1.00  0.00    -0.029 A 
HETATM   12  C10 UNL     1      23.088   3.753  52.213  1.00  0.00     0.010 A 
HETATM   13  C11 UNL     1      22.978   5.124  52.065  1.00  0.00     0.002 A 
HETATM   14  C12 UNL     1      23.880   5.763  51.221  1.00  0.00     0.012 A 
HETATM   15  C13 UNL     1      24.848   5.040  50.561  1.00  0.00    -0.025 A 
HETATM   16  C14 UNL     1      25.720   5.706  49.721  1.00  0.00     0.012 A 
HETATM   17  C18 UNL     1      24.875   3.680  50.772  1.00  0.00    -0.018 A 
HETATM   18  C15 UNL     1      26.690   4.953  49.049  1.00  0.00     0.001 A 
HETATM   19  C16 UNL     1      26.758   3.584  49.228  1.00  0.00     0.001 A 
HETATM   20  C17 UNL     1      25.850   3.001  50.080  1.00  0.00     0.013 A 
ENDBRANCH  10  11
ENDBRANCH   9  10
BRANCH   3  21
HETATM   21  N3  UNL     1      23.800  -1.663  56.063  1.00  0.00    -0.231 N 
HETATM   22  H5  UNL     1      23.315  -1.452  56.961  1.00  0.00     0.174 HD
HETATM   23  H6  UNL     1      24.610  -2.052  55.546  1.00  0.00     0.174 HD
ENDBRANCH   3  21
BRANCH   1  24
HETATM   24  N1  UNL     1      19.447  -1.646  53.869  1.00  0.00    -0.378 N 
HETATM   25  C1  UNL     1      18.120  -1.980  53.633  1.00  0.00     0.147 C 
HETATM   26  H4  UNL     1      19.442  -1.247  52.871  1.00  0.00     0.160 HD
ENDBRANCH   1  24
TORSDOF 4
ENDMDL
MODEL 2
REMARK VINA RESULT:      -8.1      3.382      7.923
REMARK  4 active torsions:
REMARK  status: ('A' for Active; 'I' for Inactive)
REMARK    1  A    between atoms: N1_2  and  C2_3 
REMARK    2  A    between atoms: C3_5  and  N3_6 
REMARK    3  A    between atoms: N5_12  and  C8_13 
REMARK    4  A    between atoms: C8_13  and  C9_14 
ROOT
HETATM    1  C2  UNL     1      26.276   6.483  49.623  1.00  0.00     0.156 A 
HETATM    2  N2  UNL     1      25.307   7.261  50.135  1.00  0.00    -0.045 NA
HETATM    3  C3  UNL     1      24.222   6.729  50.712  1.00  0.00     0.724 A 
HETATM    4  N4  UNL     1      24.123   5.404  50.769  1.00  0.00    -0.044 NA
HETATM    5  C4  UNL     1      25.018   4.529  50.296  1.00  0.00     0.163 A 
HETATM    6  C5  UNL     1      26.145   5.084  49.697  1.00  0.00     0.058 A 
HETATM    7  C6  UNL     1      26.851   3.936  49.338  1.00  0.00     0.036 A 
HETATM    8  C7  UNL     1      26.155   2.834  49.717  1.00  0.00     0.094 A 
HETATM    9  N5  UNL     1      25.001   3.158  50.321  1.00  0.00    -0.336 N 
ENDROOT
BRANCH   9  10
HETATM   10  C8  UNL     1      23.900   2.414  50.902  1.00  0.00     0.169 C 
BRANCH  10  11
HETATM   11  C9  UNL     1      24.344   1.359  51.857  1.00  0.00    -0.029 A 
HETATM   12  C10 UNL     1      25.678   1.012  51.910  1.00  0.00     0.010 A 
HETATM   13  C11 UNL     1      26.201   0.075  52.784  1.00  0.00     0.002 A 
HETATM   14  C12 UNL     1      25.327  -0.554  53.664  1.00  0.00     0.012 A 
HETATM   15  C13 UNL     1      23.986  -0.244  53.655  1.00  0.00    -0.025 A 
HETATM   16  C14 UNL     1      23.147  -0.898  54.536  1.00  0.00     0.012 A 
HETATM   17  C18 UNL     1      23.562   0.700  52.747  1.00  0.00    -0.018 A 
HETATM   18  C15 UNL     1      21.784  -0.578  54.505  1.00  0.00     0.001 A 
HETATM   19  C16 UNL     1      21.308   0.363  53.611  1.00  0.00     0.001 A 
HETATM   20  C17 UNL     1      22.212   0.964  52.769  1.00  0.00     0.013 A 
ENDBRANCH  10  11
ENDBRANCH   9  10
BRANCH   3  21
HETATM   21  N3  UNL     1      23.272   7.657  51.210  1.00  0.00    -0.231 N 
HETATM   22  H5  UNL     1      23.628   8.608  50.979  1.00  0.00     0.174 HD
HETATM   23  H6  UNL     1      22.551   7.042  51.632  1.00  0.00     0.174 HD
ENDBRANCH   3  21
BRANCH   1  24
HETATM   24  N1  UNL     1      27.494   6.758  48.945  1.00  0.00    -0.378 N 
HETATM   25  C1  UNL     1      28.683   7.027  48.281  1.00  0.00     0.147 C 
HETATM   26  H4  UNL     1      27.030   6.821  47.978  1.00  0.00     0.160 HD
ENDBRANCH   1  24
TORSDOF 4
ENDMDL
MODEL 3
REMARK VINA RESULT:      -7.9      3.558      5.494
REMARK  4 active torsions:
REMARK  status: ('A' for Active; 'I' for Inactive)
REMARK    1  A    between atoms: N1_2  and  C2_3 
REMARK    2  A    between atoms: C3_5  and  N3_6 
REMARK    3  A    between atoms: N5_12  and  C8_13 
REMARK    4  A    between atoms: C8_13  and  C9_14 
ROOT
HETATM    1  C2  UNL     1      22.145   1.108  50.643  1.00  0.00     0.156 A 
HETATM    2  N2  UNL     1      21.480   0.310  51.497  1.00  0.00    -0.045 NA
HETATM    3  C3  UNL     1      21.949   0.064  52.726  1.00  0.00     0.724 A 
HETATM    4  N4  UNL     1      23.097   0.631  53.089  1.00  0.00    -0.044 NA
HETATM    5  C4  UNL     1      23.847   1.439  52.331  1.00  0.00     0.163 A 
HETATM    6  C5  UNL     1      23.357   1.693  51.053  1.00  0.00     0.058 A 
HETATM    7  C6  UNL     1      24.340   2.548  50.554  1.00  0.00     0.036 A 
HETATM    8  C7  UNL     1      25.296   2.744  51.498  1.00  0.00     0.094 A 
HETATM    9  N5  UNL     1      25.029   2.069  52.626  1.00  0.00    -0.336 N 
ENDROOT
BRANCH   9  10
HETATM   10  C8  UNL     1      25.684   1.910  53.910  1.00  0.00     0.169 C 
BRANCH  10  11
HETATM   11  C9  UNL     1      27.081   1.402  53.798  1.00  0.00    -0.029 A 
HETATM   12  C10 UNL     1      28.133   2.250  54.075  1.00  0.00     0.010 A 
HETATM   13  C11 UNL     1      29.464   1.871  54.039  1.00  0.00     0.002 A 
HETATM   14  C12 UNL     1      29.757   0.554  53.703  1.00  0.00     0.012 A 
HETATM   15  C13 UNL     1      28.745  -0.334  53.418  1.00  0.00    -0.025 A 
HETATM   16  C14 UNL     1      29.076  -1.632  53.076  1.00  0.00     0.012 A 
HETATM   17  C18 UNL     1      27.454   0.138  53.479  1.00  0.00    -0.018 A 
HETATM   18  C15 UNL     1      28.033  -2.518  52.778  1.00  0.00     0.001 A 
HETATM   19  C16 UNL     1      26.720  -2.091  52.826  1.00  0.00     0.001 A 
HETATM   20  C17 UNL     1      26.480  -0.784  53.173  1.00  0.00     0.013 A 
ENDBRANCH  10  11
ENDBRANCH   9  10
BRANCH   3  21
HETATM   21  N3  UNL     1      21.155  -0.796  53.528  1.00  0.00    -0.231 N 
HETATM   22  H5  UNL     1      20.675  -1.455  52.879  1.00  0.00     0.174 HD
HETATM   23  H6  UNL     1      21.344  -0.453  54.488  1.00  0.00     0.174 HD
ENDBRANCH   3  21
BRANCH   1  24
HETATM   24  N1  UNL     1      21.910   1.516  49.303  1.00  0.00    -0.378 N 
HETATM   25  C1  UNL     1      21.683   1.915  47.992  1.00  0.00     0.147 C 
HETATM   26  H4  UNL     1      22.722   0.935  48.903  1.00  0.00     0.160 HD
ENDBRANCH   1  24
TORSDOF 4
ENDMDL
MODEL 4
REMARK VINA RESULT:      -7.9      2.882      4.744
REMARK  4 active torsions:
REMARK  status: ('A' for Active; 'I' for Inactive)
REMARK    1  A    between atoms: N1_2  and  C2_3 
REMARK    2  A    between atoms: C3_5  and  N3_6 
REMARK    3  A    between atoms: N5_12  and  C8_13 
REMARK    4  A    between atoms: C8_13  and  C9_14 
ROOT
HETATM    1  C2  UNL     1      26.685  -0.705  53.767  1.00  0.00     0.156 A 
HETATM    2  N2  UNL     1      25.769  -1.239  54.595  1.00  0.00    -0.045 NA
HETATM    3  C3  UNL     1      24.513  -0.778  54.629  1.00  0.00     0.724 A 
HETATM    4  N4  UNL     1      24.186   0.226  53.819  1.00  0.00    -0.044 NA
HETATM    5  C4  UNL     1      25.005   0.836  52.956  1.00  0.00     0.163 A 
HETATM    6  C5  UNL     1      26.312   0.355  52.923  1.00  0.00     0.058 A 
HETATM    7  C6  UNL     1      26.874   1.175  51.944  1.00  0.00     0.036 A 
HETATM    8  C7  UNL     1      25.937   2.040  51.479  1.00  0.00     0.094 A 
HETATM    9  N5  UNL     1      24.752   1.864  52.085  1.00  0.00    -0.336 N 
ENDROOT
BRANCH   9  10
HETATM   10  C8  UNL     1      23.446   2.488  51.992  1.00  0.00     0.169 C 
BRANCH  10  11
HETATM   11  C9  UNL     1      22.773   2.249  50.683  1.00  0.00    -0.029 A 
HETATM   12  C10 UNL     1      22.076   1.075  50.485  1.00  0.00     0.010 A 
HETATM   13  C11 UNL     1      21.385   0.771  49.325  1.00  0.00     0.002 A 
HETATM   14  C12 UNL     1      21.395   1.706  48.296  1.00  0.00     0.012 A 
HETATM   15  C13 UNL     1      22.074   2.894  48.441  1.00  0.00    -0.025 A 
HETATM   16  C14 UNL     1      22.071   3.795  47.393  1.00  0.00     0.012 A 
HETATM   17  C18 UNL     1      22.732   3.104  49.632  1.00  0.00    -0.018 A 
HETATM   18  C15 UNL     1      22.778   4.993  47.554  1.00  0.00     0.001 A 
HETATM   19  C16 UNL     1      23.455   5.251  48.732  1.00  0.00     0.001 A 
HETATM   20  C17 UNL     1      23.407   4.300  49.723  1.00  0.00     0.013 A 
ENDBRANCH  10  11
ENDBRANCH   9  10
BRANCH   3  21
HETATM   21  N3  UNL     1      23.644  -1.424  55.547  1.00  0.00    -0.231 N 
HETATM   22  H5  UNL     1      24.082  -2.339  55.783  1.00  0.00     0.174 HD
HETATM   23  H6  UNL     1      22.874  -0.738  55.654  1.00  0.00     0.174 HD
ENDBRANCH   3  21
BRANCH   1  24
HETATM   24  N1  UNL     1      28.063  -0.963  53.540  1.00  0.00    -0.378 N 
HETATM   25  C1  UNL     1      29.411  -1.213  53.320  1.00  0.00     0.147 C 
HETATM   26  H4  UNL     1      28.362  -0.653  54.525  1.00  0.00     0.160 HD
ENDBRANCH   1  24
TORSDOF 4
ENDMDL
MODEL 5
REMARK VINA RESULT:      -7.9      2.013      3.005
REMARK  4 active torsions:
REMARK  status: ('A' for Active; 'I' for Inactive)
REMARK    1  A    between atoms: N1_2  and  C2_3 
REMARK    2  A    between atoms: C3_5  and  N3_6 
REMARK    3  A    between atoms: N5_12  and  C8_13 
REMARK    4  A    between atoms: C8_13  and  C9_14 
ROOT
HETATM    1  C2  UNL     1      24.359  -0.467  53.963  1.00  0.00     0.156 A 
HETATM    2  N2  UNL     1      25.589  -0.658  54.469  1.00  0.00    -0.045 NA
HETATM    3  C3  UNL     1      26.654  -0.025  53.963  1.00  0.00     0.724 A 
HETATM    4  N4  UNL     1      26.468   0.807  52.940  1.00  0.00    -0.044 NA
HETATM    5  C4  UNL     1      25.296   1.078  52.353  1.00  0.00     0.163 A 
HETATM    6  C5  UNL     1      24.190   0.417  52.882  1.00  0.00     0.058 A 
HETATM    7  C6  UNL     1      23.168   0.918  52.075  1.00  0.00     0.036 A 
HETATM    8  C7  UNL     1      23.685   1.791  51.173  1.00  0.00     0.094 A 
HETATM    9  N5  UNL     1      25.014   1.921  51.310  1.00  0.00    -0.336 N 
ENDROOT
BRANCH   9  10
HETATM   10  C8  UNL     1      26.048   2.684  50.638  1.00  0.00     0.169 C 
BRANCH  10  11
HETATM   11  C9  UNL     1      25.554   3.973  50.075  1.00  0.00    -0.029 A 
HETATM   12  C10 UNL     1      24.252   4.361  50.314  1.00  0.00     0.010 A 
HETATM   13  C11 UNL     1      23.705   5.553  49.872  1.00  0.00     0.002 A 
HETATM   14  C12 UNL     1      24.519   6.413  49.142  1.00  0.00     0.012 A 
HETATM   15  C13 UNL     1      25.826   6.075  48.876  1.00  0.00    -0.025 A 
HETATM   16  C14 UNL     1      26.602   6.949  48.138  1.00  0.00     0.012 A 
HETATM   17  C18 UNL     1      26.278   4.867  49.357  1.00  0.00    -0.018 A 
HETATM   18  C15 UNL     1      27.926   6.584  47.867  1.00  0.00     0.001 A 
HETATM   19  C16 UNL     1      28.426   5.381  48.328  1.00  0.00     0.001 A 
HETATM   20  C17 UNL     1      27.586   4.570  49.053  1.00  0.00     0.013 A 
ENDBRANCH  10  11
ENDBRANCH   9  10
BRANCH   3  21
HETATM   21  N3  UNL     1      27.897  -0.315  54.583  1.00  0.00    -0.231 N 
HETATM   22  H5  UNL     1      27.679  -0.755  55.502  1.00  0.00     0.174 HD
HETATM   23  H6  UNL     1      28.586   0.020  53.884  1.00  0.00     0.174 HD
ENDBRANCH   3  21
BRANCH   1  24
HETATM   24  N1  UNL     1      23.081  -1.008  54.269  1.00  0.00    -0.378 N 
HETATM   25  C1  UNL     1      21.832  -1.536  54.566  1.00  0.00     0.147 C 
HETATM   26  H4  UNL     1      22.647  -0.714  53.330  1.00  0.00     0.160 HD
ENDBRANCH   1  24
TORSDOF 4
ENDMDL
MODEL 6
REMARK VINA RESULT:      -7.8      2.558      5.538
REMARK  4 active torsions:
REMARK  status: ('A' for Active; 'I' for Inactive)
REMARK    1  A    between atoms: N1_2  and  C2_3 
REMARK    2  A    between atoms: C3_5  and  N3_6 
REMARK    3  A    between atoms: N5_12  and  C8_13 
REMARK    4  A    between atoms: C8_13  and  C9_14 
ROOT
HETATM    1  C2  UNL     1      26.568  -0.652  53.593  1.00  0.00     0.156 A 
HETATM    2  N2  UNL     1      25.545  -1.154  54.305  1.00  0.00    -0.045 NA
HETATM    3  C3  UNL     1      24.335  -0.582  54.280  1.00  0.00     0.724 A 
HETATM    4  N4  UNL     1      24.165   0.503  53.528  1.00  0.00    -0.044 NA
HETATM    5  C4  UNL     1      25.103   1.093  52.778  1.00  0.00     0.163 A 
HETATM    6  C5  UNL     1      26.361   0.495  52.807  1.00  0.00     0.058 A 
HETATM    7  C6  UNL     1      27.071   1.326  51.939  1.00  0.00     0.036 A 
HETATM    8  C7  UNL     1      26.255   2.305  51.473  1.00  0.00     0.094 A 
HETATM    9  N5  UNL     1      25.014   2.198  51.973  1.00  0.00    -0.336 N 
ENDROOT
BRANCH   9  10
HETATM   10  C8  UNL     1      23.780   2.947  51.830  1.00  0.00     0.169 C 
BRANCH  10  11
HETATM   11  C9  UNL     1      22.900   2.427  50.743  1.00  0.00    -0.029 A 
HETATM   12  C10 UNL     1      23.282   2.591  49.428  1.00  0.00     0.010 A 
HETATM   13  C11 UNL     1      22.561   2.114  48.347  1.00  0.00     0.002 A 
HETATM   14  C12 UNL     1      21.379   1.427  48.604  1.00  0.00     0.012 A 
HETATM   15  C13 UNL     1      20.953   1.234  49.899  1.00  0.00    -0.025 A 
HETATM   16  C14 UNL     1      19.768   0.557  50.115  1.00  0.00     0.012 A 
HETATM   17  C18 UNL     1      21.739   1.747  50.905  1.00  0.00    -0.018 A 
HETATM   18  C15 UNL     1      19.345   0.380  51.438  1.00  0.00     0.001 A 
HETATM   19  C16 UNL     1      20.099   0.877  52.484  1.00  0.00     0.001 A 
HETATM   20  C17 UNL     1      21.263   1.540  52.180  1.00  0.00     0.013 A 
ENDBRANCH  10  11
ENDBRANCH   9  10
BRANCH   3  21
HETATM   21  N3  UNL     1      23.341  -1.205  55.077  1.00  0.00    -0.231 N 
HETATM   22  H5  UNL     1      23.477  -2.233  54.979  1.00  0.00     0.174 HD
HETATM   23  H6  UNL     1      22.828  -0.397  55.478  1.00  0.00     0.174 HD
ENDBRANCH   3  21
BRANCH   1  24
HETATM   24  N1  UNL     1      27.933  -1.021  53.451  1.00  0.00    -0.378 N 
HETATM   25  C1  UNL     1      29.266  -1.384  53.314  1.00  0.00     0.147 C 
HETATM   26  H4  UNL     1      27.805  -1.973  53.935  1.00  0.00     0.160 HD
ENDBRANCH   1  24
TORSDOF 4
ENDMDL
MODEL 7
REMARK VINA RESULT:      -7.7      2.860      6.944
REMARK  4 active torsions:
REMARK  status: ('A' for Active; 'I' for Inactive)
REMARK    1  A    between atoms: N1_2  and  C2_3 
REMARK    2  A    between atoms: C3_5  and  N3_6 
REMARK    3  A    between atoms: N5_12  and  C8_13 
REMARK    4  A    between atoms: C8_13  and  C9_14 
ROOT
HETATM    1  C2  UNL     1      27.329   1.230  52.674  1.00  0.00     0.156 A 
HETATM    2  N2  UNL     1      27.465   2.295  51.865  1.00  0.00    -0.045 NA
HETATM    3  C3  UNL     1      26.411   2.827  51.235  1.00  0.00     0.724 A 
HETATM    4  N4  UNL     1      25.215   2.277  51.428  1.00  0.00    -0.044 NA
HETATM    5  C4  UNL     1      24.955   1.220  52.206  1.00  0.00     0.163 A 
HETATM    6  C5  UNL     1      26.053   0.667  52.860  1.00  0.00     0.058 A 
HETATM    7  C6  UNL     1      25.448  -0.371  53.568  1.00  0.00     0.036 A 
HETATM    8  C7  UNL     1      24.115  -0.381  53.315  1.00  0.00     0.094 A 
HETATM    9  N5  UNL     1      23.761   0.597  52.467  1.00  0.00    -0.336 N 
ENDROOT
BRANCH   9  10
HETATM   10  C8  UNL     1      22.518   1.039  51.866  1.00  0.00     0.169 C 
BRANCH  10  11
HETATM   11  C9  UNL     1      21.326   0.295  52.368  1.00  0.00    -0.029 A 
HETATM   12  C10 UNL     1      21.417  -0.407  53.552  1.00  0.00     0.010 A 
HETATM   13  C11 UNL     1      20.364  -1.097  54.126  1.00  0.00     0.002 A 
HETATM   14  C12 UNL     1      19.139  -1.082  53.468  1.00  0.00     0.012 A 
HETATM   15  C13 UNL     1      18.993  -0.397  52.283  1.00  0.00    -0.025 A 
HETATM   16  C14 UNL     1      17.764  -0.413  51.652  1.00  0.00     0.012 A 
HETATM   17  C18 UNL     1      20.100   0.259  51.792  1.00  0.00    -0.018 A 
HETATM   18  C15 UNL     1      17.638   0.280  50.442  1.00  0.00     0.001 A 
HETATM   19  C16 UNL     1      18.720   0.953  49.907  1.00  0.00     0.001 A 
HETATM   20  C17 UNL     1      19.906   0.917  50.600  1.00  0.00     0.013 A 
ENDBRANCH  10  11
ENDBRANCH   9  10
BRANCH   3  21
HETATM   21  N3  UNL     1      26.688   3.947  50.408  1.00  0.00    -0.231 N 
HETATM   22  H5  UNL     1      26.607   4.793  51.009  1.00  0.00     0.174 HD
HETATM   23  H6  UNL     1      26.877   3.510  49.486  1.00  0.00     0.174 HD
ENDBRANCH   3  21
BRANCH   1  24
HETATM   24  N1  UNL     1      28.247   0.455  53.431  1.00  0.00    -0.378 N 
HETATM   25  C1  UNL     1      29.145  -0.301  54.173  1.00  0.00     0.147 C 
HETATM   26  H4  UNL     1      28.331   1.183  54.218  1.00  0.00     0.160 HD
ENDBRANCH   1  24
TORSDOF 4
ENDMDL
MODEL 8
REMARK VINA RESULT:      -7.6      3.082      6.666
REMARK  4 active torsions:
REMARK  status: ('A' for Active; 'I' for Inactive)
REMARK    1  A    between atoms: N1_2  and  C2_3 
REMARK    2  A    between atoms: C3_5  and  N3_6 
REMARK    3  A    between atoms: N5_12  and  C8_13 
REMARK    4  A    between atoms: C8_13  and  C9_14 
ROOT
HETATM    1  C2  UNL     1      22.513   5.570  51.223  1.00  0.00     0.156 A 
HETATM    2  N2  UNL     1      23.411   5.233  52.164  1.00  0.00    -0.045 NA
HETATM    3  C3  UNL     1      23.682   3.951  52.437  1.00  0.00     0.724 A 
HETATM    4  N4  UNL     1      23.040   3.009  51.750  1.00  0.00    -0.044 NA
HETATM    5  C4  UNL     1      22.128   3.220  50.794  1.00  0.00     0.163 A 
HETATM    6  C5  UNL     1      21.848   4.554  50.512  1.00  0.00     0.058 A 
HETATM    7  C6  UNL     1      20.900   4.420  49.498  1.00  0.00     0.036 A 
HETATM    8  C7  UNL     1      20.682   3.104  49.247  1.00  0.00     0.094 A 
HETATM    9  N5  UNL     1      21.430   2.317  50.035  1.00  0.00    -0.336 N 
ENDROOT
BRANCH   9  10
HETATM   10  C8  UNL     1      21.595   0.885  50.200  1.00  0.00     0.169 C 
BRANCH  10  11
HETATM   11  C9  UNL     1      20.816   0.333  51.346  1.00  0.00    -0.029 A 
HETATM   12  C10 UNL     1      19.440   0.270  51.261  1.00  0.00     0.010 A 
HETATM   13  C11 UNL     1      18.626  -0.259  52.247  1.00  0.00     0.002 A 
HETATM   14  C12 UNL     1      19.233  -0.757  53.395  1.00  0.00     0.012 A 
HETATM   15  C13 UNL     1      20.603  -0.719  53.531  1.00  0.00    -0.025 A 
HETATM   16  C14 UNL     1      21.170  -1.213  54.691  1.00  0.00     0.012 A 
HETATM   17  C18 UNL     1      21.326  -0.174  52.495  1.00  0.00    -0.018 A 
HETATM   18  C15 UNL     1      22.563  -1.157  54.816  1.00  0.00     0.001 A 
HETATM   19  C16 UNL     1      23.334  -0.617  53.804  1.00  0.00     0.001 A 
HETATM   20  C17 UNL     1      22.688  -0.147  52.685  1.00  0.00     0.013 A 
ENDBRANCH  10  11
ENDBRANCH   9  10
BRANCH   3  21
HETATM   21  N3  UNL     1      24.647   3.727  53.454  1.00  0.00    -0.231 N 
HETATM   22  H5  UNL     1      25.446   3.230  53.007  1.00  0.00     0.174 HD
HETATM   23  H6  UNL     1      24.200   4.148  54.290  1.00  0.00     0.174 HD
ENDBRANCH   3  21
BRANCH   1  24
HETATM   24  N1  UNL     1      22.014   6.813  50.750  1.00  0.00    -0.378 N 
HETATM   25  C1  UNL     1      21.524   8.028  50.289  1.00  0.00     0.147 C 
HETATM   26  H4  UNL     1      21.373   6.966  51.600  1.00  0.00     0.160 HD
ENDBRANCH   1  24
TORSDOF 4
ENDMDL
MODEL 9
REMARK VINA RESULT:      -7.6      3.391      5.924
REMARK  4 active torsions:
REMARK  status: ('A' for Active; 'I' for Inactive)
REMARK    1  A    between atoms: N1_2  and  C2_3 
REMARK    2  A    between atoms: C3_5  and  N3_6 
REMARK    3  A    between atoms: N5_12  and  C8_13 
REMARK    4  A    between atoms: C8_13  and  C9_14 
ROOT
HETATM    1  C2  UNL     1      21.546   3.424  48.977  1.00  0.00     0.156 A 
HETATM    2  N2  UNL     1      20.460   3.325  49.763  1.00  0.00    -0.045 NA
HETATM    3  C3  UNL     1      20.574   3.177  51.089  1.00  0.00     0.724 A 
HETATM    4  N4  UNL     1      21.795   3.132  51.617  1.00  0.00    -0.044 NA
HETATM    5  C4  UNL     1      22.946   3.219  50.940  1.00  0.00     0.163 A 
HETATM    6  C5  UNL     1      22.824   3.372  49.561  1.00  0.00     0.058 A 
HETATM    7  C6  UNL     1      24.165   3.439  49.180  1.00  0.00     0.036 A 
HETATM    8  C7  UNL     1      24.957   3.330  50.277  1.00  0.00     0.094 A 
HETATM    9  N5  UNL     1      24.237   3.190  51.400  1.00  0.00    -0.336 N 
ENDROOT
BRANCH   9  10
HETATM   10  C8  UNL     1      24.547   3.031  52.808  1.00  0.00     0.169 C 
BRANCH  10  11
HETATM   11  C9  UNL     1      25.088   1.682  53.142  1.00  0.00    -0.029 A 
HETATM   12  C10 UNL     1      24.233   0.600  53.176  1.00  0.00     0.010 A 
HETATM   13  C11 UNL     1      24.637  -0.698  53.435  1.00  0.00     0.002 A 
HETATM   14  C12 UNL     1      25.988  -0.924  53.677  1.00  0.00     0.012 A 
HETATM   15  C13 UNL     1      26.884   0.120  53.654  1.00  0.00    -0.025 A 
HETATM   16  C14 UNL     1      28.216  -0.141  53.910  1.00  0.00     0.012 A 
HETATM   17  C18 UNL     1      26.385   1.375  53.387  1.00  0.00    -0.018 A 
HETATM   18  C15 UNL     1      29.112   0.935  53.894  1.00  0.00     0.001 A 
HETATM   19  C16 UNL     1      28.660   2.215  53.631  1.00  0.00     0.001 A 
HETATM   20  C17 UNL     1      27.318   2.386  53.389  1.00  0.00     0.013 A 
ENDBRANCH  10  11
ENDBRANCH   9  10
BRANCH   3  21
HETATM   21  N3  UNL     1      19.353   3.081  51.806  1.00  0.00    -0.231 N 
HETATM   22  H5  UNL     1      19.253   3.965  52.348  1.00  0.00     0.174 HD
HETATM   23  H6  UNL     1      18.995   2.149  51.525  1.00  0.00     0.174 HD
ENDBRANCH   3  21
BRANCH   1  24
HETATM   24  N1  UNL     1      21.728   3.555  47.574  1.00  0.00    -0.378 N 
HETATM   25  C1  UNL     1      21.906   3.681  46.203  1.00  0.00     0.147 C 
HETATM   26  H4  UNL     1      21.677   2.497  47.391  1.00  0.00     0.160 HD
ENDBRANCH   1  24
TORSDOF 4
ENDMDL
