MODEL 1
REMARK VINA RESULT:      -7.2      0.000      0.000
REMARK  0 active torsions:
REMARK  status: ('A' for Active; 'I' for Inactive)
ROOT
HETATM    1  C1  UNL     1      30.182   7.214  46.963  1.00  0.00     0.066 C 
HETATM    2  C2  UNL     1      31.516   7.845  47.162  1.00  0.00     0.321 C 
HETATM    3  N1  UNL     1      31.815   7.863  48.581  1.00  0.00     0.106 N 
HETATM    4  C3  UNL     1      31.655   6.555  49.143  1.00  0.00     0.276 C 
HETATM    5  C4  UNL     1      32.336   5.480  48.342  1.00  0.00     0.080 C 
HETATM    6  C5  UNL     1      33.238   6.050  47.296  1.00  0.00     0.168 C 
HETATM    7  C6  UNL     1      34.344   6.724  48.026  1.00  0.00     0.094 C 
HETATM    8  N2  UNL     1      35.211   7.277  48.608  1.00  0.00    -0.194 NA
HETATM    9  N3  UNL     1      32.617   7.115  46.534  1.00  0.00    -0.295 N 
HETATM   10  C7  UNL     1      32.989   7.516  45.219  1.00  0.00     0.251 C 
HETATM   11  O1  UNL     1      32.312   8.413  44.622  1.00  0.00    -0.271 OA
HETATM   12  C8  UNL     1      34.203   6.723  44.799  1.00  0.00     0.377 C 
HETATM   13  N4  UNL     1      34.002   5.340  45.075  1.00  0.00     0.119 N 
HETATM   14  C9  UNL     1      32.643   4.905  44.834  1.00  0.00     0.313 C 
HETATM   15  C10 UNL     1      32.862   3.941  45.964  1.00  0.00     0.014 C 
HETATM   16  C11 UNL     1      32.616   2.877  46.710  1.00  0.00     0.062 C 
HETATM   17 CL1  UNL     1      31.254   1.796  46.356  1.00  0.00    -0.082 Cl
HETATM   18  C12 UNL     1      33.485   2.419  47.770  1.00  0.00     0.052 C 
HETATM   19 CL2  UNL     1      33.185   1.035  48.783  1.00  0.00    -0.083 Cl
HETATM   20  C13 UNL     1      34.579   3.152  47.933  1.00  0.00     0.002 C 
HETATM   21  C14 UNL     1      35.018   4.367  47.164  1.00  0.00     0.079 C 
HETATM   22  C15 UNL     1      33.867   4.970  46.443  1.00  0.00     0.229 C 
HETATM   23  H5  UNL     1      31.192   8.532  49.046  1.00  0.00     0.318 HD
ENDROOT
TORSDOF 0
ENDMDL
MODEL 2
REMARK VINA RESULT:      -7.0      9.641     11.477
REMARK  0 active torsions:
REMARK  status: ('A' for Active; 'I' for Inactive)
ROOT
HETATM    1  C1  UNL     1      21.522   3.391  47.499  1.00  0.00     0.066 C 
HETATM    2  C2  UNL     1      20.671   3.583  48.705  1.00  0.00     0.321 C 
HETATM    3  N1  UNL     1      20.332   2.281  49.247  1.00  0.00     0.106 N 
HETATM    4  C3  UNL     1      21.515   1.496  49.438  1.00  0.00     0.276 C 
HETATM    5  C4  UNL     1      22.610   2.240  50.151  1.00  0.00     0.080 C 
HETATM    6  C5  UNL     1      22.126   3.530  50.727  1.00  0.00     0.168 C 
HETATM    7  C6  UNL     1      21.163   3.168  51.801  1.00  0.00     0.094 C 
HETATM    8  N2  UNL     1      20.384   2.879  52.641  1.00  0.00    -0.194 NA
HETATM    9  N3  UNL     1      21.335   4.304  49.791  1.00  0.00    -0.295 N 
HETATM   10  C7  UNL     1      21.145   5.715  49.838  1.00  0.00     0.251 C 
HETATM   11  O1  UNL     1      20.494   6.291  48.909  1.00  0.00    -0.271 OA
HETATM   12  C8  UNL     1      21.814   6.250  51.082  1.00  0.00     0.377 C 
HETATM   13  N4  UNL     1      23.131   5.719  51.195  1.00  0.00     0.119 N 
HETATM   14  C9  UNL     1      23.804   5.594  49.920  1.00  0.00     0.313 C 
HETATM   15  C10 UNL     1      24.486   4.396  50.515  1.00  0.00     0.014 C 
HETATM   16  C11 UNL     1      25.408   3.454  50.611  1.00  0.00     0.062 C 
HETATM   17 CL1  UNL     1      26.730   3.333  49.433  1.00  0.00    -0.082 Cl
HETATM   18  C12 UNL     1      25.516   2.542  51.727  1.00  0.00     0.052 C 
HETATM   19 CL2  UNL     1      26.705   1.280  51.878  1.00  0.00    -0.083 Cl
HETATM   20  C13 UNL     1      24.608   2.734  52.677  1.00  0.00     0.002 C 
HETATM   21  C14 UNL     1      23.514   3.763  52.735  1.00  0.00     0.079 C 
HETATM   22  C15 UNL     1      23.243   4.312  51.381  1.00  0.00     0.229 C 
HETATM   23  H5  UNL     1      19.687   1.808  48.605  1.00  0.00     0.318 HD
ENDROOT
TORSDOF 0
ENDMDL
MODEL 3
REMARK VINA RESULT:      -7.0      2.692      4.457
REMARK  0 active torsions:
REMARK  status: ('A' for Active; 'I' for Inactive)
ROOT
HETATM    1  C1  UNL     1      32.846   5.064  44.245  1.00  0.00     0.066 C 
HETATM    2  C2  UNL     1      34.017   5.791  44.808  1.00  0.00     0.321 C 
HETATM    3  N1  UNL     1      33.974   7.166  44.351  1.00  0.00     0.106 N 
HETATM    4  C3  UNL     1      32.692   7.745  44.625  1.00  0.00     0.276 C 
HETATM    5  C4  UNL     1      32.225   7.505  46.034  1.00  0.00     0.080 C 
HETATM    6  C5  UNL     1      33.310   6.951  46.896  1.00  0.00     0.168 C 
HETATM    7  C6  UNL     1      34.329   8.027  47.022  1.00  0.00     0.094 C 
HETATM    8  N2  UNL     1      35.146   8.876  47.105  1.00  0.00    -0.194 NA
HETATM    9  N3  UNL     1      34.027   5.858  46.269  1.00  0.00    -0.295 N 
HETATM   10  C7  UNL     1      34.747   4.839  46.956  1.00  0.00     0.251 C 
HETATM   11  O1  UNL     1      35.267   3.885  46.295  1.00  0.00    -0.271 OA
HETATM   12  C8  UNL     1      34.728   5.149  48.434  1.00  0.00     0.377 C 
HETATM   13  N4  UNL     1      33.403   5.468  48.849  1.00  0.00     0.119 N 
HETATM   14  C9  UNL     1      32.393   4.667  48.190  1.00  0.00     0.313 C 
HETATM   15  C10 UNL     1      31.511   5.877  48.301  1.00  0.00     0.014 C 
HETATM   16  C11 UNL     1      30.370   6.544  48.304  1.00  0.00     0.062 C 
HETATM   17 CL1  UNL     1      28.821   5.725  48.018  1.00  0.00    -0.082 Cl
HETATM   18  C12 UNL     1      30.252   7.937  48.669  1.00  0.00     0.052 C 
HETATM   19 CL2  UNL     1      28.770   8.852  48.667  1.00  0.00    -0.083 Cl
HETATM   20  C13 UNL     1      31.397   8.507  49.022  1.00  0.00     0.002 C 
HETATM   21  C14 UNL     1      32.767   7.892  49.095  1.00  0.00     0.079 C 
HETATM   22  C15 UNL     1      32.820   6.642  48.294  1.00  0.00     0.229 C 
HETATM   23  H5  UNL     1      34.172   7.192  43.345  1.00  0.00     0.318 HD
ENDROOT
TORSDOF 0
ENDMDL
MODEL 4
REMARK VINA RESULT:      -6.7     10.280     12.242
REMARK  0 active torsions:
REMARK  status: ('A' for Active; 'I' for Inactive)
ROOT
HETATM    1  C1  UNL     1      19.502   5.918  49.583  1.00  0.00     0.066 C 
HETATM    2  C2  UNL     1      19.448   4.432  49.507  1.00  0.00     0.321 C 
HETATM    3  N1  UNL     1      19.754   4.025  48.149  1.00  0.00     0.106 N 
HETATM    4  C3  UNL     1      20.978   4.625  47.711  1.00  0.00     0.276 C 
HETATM    5  C4  UNL     1      22.096   4.486  48.706  1.00  0.00     0.080 C 
HETATM    6  C5  UNL     1      21.751   3.531  49.802  1.00  0.00     0.168 C 
HETATM    7  C6  UNL     1      21.652   2.190  49.166  1.00  0.00     0.094 C 
HETATM    8  N2  UNL     1      21.554   1.129  48.656  1.00  0.00    -0.194 NA
HETATM    9  N3  UNL     1      20.431   3.758  50.355  1.00  0.00    -0.295 N 
HETATM   10  C7  UNL     1      20.004   3.378  51.659  1.00  0.00     0.251 C 
HETATM   11  O1  UNL     1      18.842   3.707  52.059  1.00  0.00    -0.271 OA
HETATM   12  C8  UNL     1      21.118   2.606  52.325  1.00  0.00     0.377 C 
HETATM   13  N4  UNL     1      22.353   3.300  52.170  1.00  0.00     0.119 N 
HETATM   14  C9  UNL     1      22.212   4.737  52.264  1.00  0.00     0.313 C 
HETATM   15  C10 UNL     1      23.346   4.808  51.282  1.00  0.00     0.014 C 
HETATM   16  C11 UNL     1      24.342   5.377  50.625  1.00  0.00     0.062 C 
HETATM   17 CL1  UNL     1      24.775   7.076  50.896  1.00  0.00    -0.082 Cl
HETATM   18  C12 UNL     1      25.243   4.662  49.749  1.00  0.00     0.052 C 
HETATM   19 CL2  UNL     1      26.552   5.381  48.854  1.00  0.00    -0.083 Cl
HETATM   20  C13 UNL     1      25.000   3.360  49.664  1.00  0.00     0.002 C 
HETATM   21  C14 UNL     1      23.933   2.557  50.355  1.00  0.00     0.079 C 
HETATM   22  C15 UNL     1      22.847   3.445  50.842  1.00  0.00     0.229 C 
HETATM   23  H5  UNL     1      18.980   4.297  47.534  1.00  0.00     0.318 HD
ENDROOT
TORSDOF 0
ENDMDL
MODEL 5
REMARK VINA RESULT:      -6.6     11.061     12.831
REMARK  0 active torsions:
REMARK  status: ('A' for Active; 'I' for Inactive)
ROOT
HETATM    1  C1  UNL     1      23.415   2.737  48.187  1.00  0.00     0.066 C 
HETATM    2  C2  UNL     1      22.044   3.290  48.365  1.00  0.00     0.321 C 
HETATM    3  N1  UNL     1      21.081   2.267  48.007  1.00  0.00     0.106 N 
HETATM    4  C3  UNL     1      21.357   1.051  48.711  1.00  0.00     0.276 C 
HETATM    5  C4  UNL     1      21.579   1.257  50.183  1.00  0.00     0.080 C 
HETATM    6  C5  UNL     1      21.204   2.636  50.617  1.00  0.00     0.168 C 
HETATM    7  C6  UNL     1      19.730   2.737  50.448  1.00  0.00     0.094 C 
HETATM    8  N2  UNL     1      18.562   2.821  50.294  1.00  0.00    -0.194 NA
HETATM    9  N3  UNL     1      21.731   3.666  49.743  1.00  0.00    -0.295 N 
HETATM   10  C7  UNL     1      21.969   5.020  50.112  1.00  0.00     0.251 C 
HETATM   11  O1  UNL     1      22.512   5.811  49.276  1.00  0.00    -0.271 OA
HETATM   12  C8  UNL     1      21.481   5.228  51.526  1.00  0.00     0.377 C 
HETATM   13  N4  UNL     1      21.960   4.183  52.366  1.00  0.00     0.119 N 
HETATM   14  C9  UNL     1      23.308   3.766  52.041  1.00  0.00     0.313 C 
HETATM   15  C10 UNL     1      22.880   2.397  52.487  1.00  0.00     0.014 C 
HETATM   16  C11 UNL     1      23.050   1.151  52.893  1.00  0.00     0.062 C 
HETATM   17 CL1  UNL     1      24.671   0.459  53.096  1.00  0.00    -0.082 Cl
HETATM   18  C12 UNL     1      21.974   0.294  53.336  1.00  0.00     0.052 C 
HETATM   19 CL2  UNL     1      22.158  -1.357  53.860  1.00  0.00    -0.083 Cl
HETATM   20  C13 UNL     1      20.777   0.868  53.318  1.00  0.00     0.002 C 
HETATM   21  C14 UNL     1      20.415   2.269  52.911  1.00  0.00     0.079 C 
HETATM   22  C15 UNL     1      21.496   2.867  52.084  1.00  0.00     0.229 C 
HETATM   23  H5  UNL     1      21.117   2.112  46.994  1.00  0.00     0.318 HD
ENDROOT
TORSDOF 0
ENDMDL
MODEL 6
REMARK VINA RESULT:      -6.4      8.929     10.984
REMARK  0 active torsions:
REMARK  status: ('A' for Active; 'I' for Inactive)
ROOT
HETATM    1  C1  UNL     1      20.727   6.862  48.950  1.00  0.00     0.066 C 
HETATM    2  C2  UNL     1      20.621   5.382  48.827  1.00  0.00     0.321 C 
HETATM    3  N1  UNL     1      20.934   5.005  47.463  1.00  0.00     0.106 N 
HETATM    4  C3  UNL     1      22.186   5.573  47.062  1.00  0.00     0.276 C 
HETATM    5  C4  UNL     1      23.281   5.363  48.070  1.00  0.00     0.080 C 
HETATM    6  C5  UNL     1      22.885   4.389  49.130  1.00  0.00     0.168 C 
HETATM    7  C6  UNL     1      22.748   3.073  48.453  1.00  0.00     0.094 C 
HETATM    8  N2  UNL     1      22.621   2.032  47.909  1.00  0.00    -0.194 NA
HETATM    9  N3  UNL     1      21.565   4.648  49.670  1.00  0.00    -0.295 N 
HETATM   10  C7  UNL     1      21.103   4.245  50.955  1.00  0.00     0.251 C 
HETATM   11  O1  UNL     1      19.948   4.604  51.347  1.00  0.00    -0.271 OA
HETATM   12  C8  UNL     1      22.178   3.414  51.614  1.00  0.00     0.377 C 
HETATM   13  N4  UNL     1      23.439   4.066  51.499  1.00  0.00     0.119 N 
HETATM   14  C9  UNL     1      23.349   5.504  51.634  1.00  0.00     0.313 C 
HETATM   15  C10 UNL     1      24.500   5.563  50.673  1.00  0.00     0.014 C 
HETATM   16  C11 UNL     1      25.526   6.115  50.048  1.00  0.00     0.062 C 
HETATM   17 CL1  UNL     1      26.016   7.789  50.378  1.00  0.00    -0.082 Cl
HETATM   18  C12 UNL     1      26.415   5.394  49.166  1.00  0.00     0.052 C 
HETATM   19 CL2  UNL     1      27.764   6.092  48.313  1.00  0.00    -0.083 Cl
HETATM   20  C13 UNL     1      26.128   4.105  49.037  1.00  0.00     0.002 C 
HETATM   21  C14 UNL     1      25.022   3.321  49.687  1.00  0.00     0.079 C 
HETATM   22  C15 UNL     1      23.960   4.233  50.184  1.00  0.00     0.229 C 
HETATM   23  H5  UNL     1      20.180   5.323  46.845  1.00  0.00     0.318 HD
ENDROOT
TORSDOF 0
ENDMDL
MODEL 7
REMARK VINA RESULT:      -6.4      2.614      4.576
REMARK  0 active torsions:
REMARK  status: ('A' for Active; 'I' for Inactive)
ROOT
HETATM    1  C1  UNL     1      33.422  10.170  46.102  1.00  0.00     0.066 C 
HETATM    2  C2  UNL     1      31.935  10.221  46.048  1.00  0.00     0.321 C 
HETATM    3  N1  UNL     1      31.493   9.599  44.815  1.00  0.00     0.106 N 
HETATM    4  C3  UNL     1      32.077   8.299  44.673  1.00  0.00     0.276 C 
HETATM    5  C4  UNL     1      31.956   7.458  45.913  1.00  0.00     0.080 C 
HETATM    6  C5  UNL     1      31.030   8.068  46.914  1.00  0.00     0.168 C 
HETATM    7  C6  UNL     1      29.674   8.025  46.304  1.00  0.00     0.094 C 
HETATM    8  N2  UNL     1      28.601   8.008  45.809  1.00  0.00    -0.194 NA
HETATM    9  N3  UNL     1      31.278   9.481  47.124  1.00  0.00    -0.295 N 
HETATM   10  C7  UNL     1      30.932  10.215  48.294  1.00  0.00     0.251 C 
HETATM   11  O1  UNL     1      31.276  11.436  48.393  1.00  0.00    -0.271 OA
HETATM   12  C8  UNL     1      30.171   9.304  49.228  1.00  0.00     0.377 C 
HETATM   13  N4  UNL     1      30.854   8.062  49.362  1.00  0.00     0.119 N 
HETATM   14  C9  UNL     1      32.294   8.205  49.386  1.00  0.00     0.313 C 
HETATM   15  C10 UNL     1      32.334   6.866  48.708  1.00  0.00     0.014 C 
HETATM   16  C11 UNL     1      32.882   5.735  48.299  1.00  0.00     0.062 C 
HETATM   17 CL1  UNL     1      34.585   5.361  48.629  1.00  0.00    -0.082 Cl
HETATM   18  C12 UNL     1      32.141   4.656  47.685  1.00  0.00     0.052 C 
HETATM   19 CL2  UNL     1      32.832   3.161  47.118  1.00  0.00    -0.083 Cl
HETATM   20  C13 UNL     1      30.839   4.885  47.572  1.00  0.00     0.002 C 
HETATM   21  C14 UNL     1      30.058   6.096  48.002  1.00  0.00     0.079 C 
HETATM   22  C15 UNL     1      30.964   7.259  48.191  1.00  0.00     0.229 C 
HETATM   23  H5  UNL     1      31.754  10.199  44.024  1.00  0.00     0.318 HD
ENDROOT
TORSDOF 0
ENDMDL
MODEL 8
REMARK VINA RESULT:      -6.3      9.760     11.277
REMARK  0 active torsions:
REMARK  status: ('A' for Active; 'I' for Inactive)
ROOT
HETATM    1  C1  UNL     1      19.529   4.342  50.947  1.00  0.00     0.066 C 
HETATM    2  C2  UNL     1      20.247   5.006  49.825  1.00  0.00     0.321 C 
HETATM    3  N1  UNL     1      20.953   6.161  50.344  1.00  0.00     0.106 N 
HETATM    4  C3  UNL     1      21.761   5.791  51.466  1.00  0.00     0.276 C 
HETATM    5  C4  UNL     1      22.598   4.568  51.215  1.00  0.00     0.080 C 
HETATM    6  C5  UNL     1      22.595   4.175  49.774  1.00  0.00     0.168 C 
HETATM    7  C6  UNL     1      23.301   5.263  49.047  1.00  0.00     0.094 C 
HETATM    8  N2  UNL     1      23.845   6.138  48.469  1.00  0.00    -0.194 NA
HETATM    9  N3  UNL     1      21.266   4.167  49.194  1.00  0.00    -0.295 N 
HETATM   10  C7  UNL     1      20.866   3.412  48.056  1.00  0.00     0.251 C 
HETATM   11  O1  UNL     1      19.647   3.426  47.691  1.00  0.00    -0.271 OA
HETATM   12  C8  UNL     1      22.078   2.708  47.493  1.00  0.00     0.377 C 
HETATM   13  N4  UNL     1      22.798   2.064  48.539  1.00  0.00     0.119 N 
HETATM   14  C9  UNL     1      21.936   1.483  49.547  1.00  0.00     0.313 C 
HETATM   15  C10 UNL     1      23.033   1.805  50.521  1.00  0.00     0.014 C 
HETATM   16  C11 UNL     1      23.703   1.721  51.657  1.00  0.00     0.062 C 
HETATM   17 CL1  UNL     1      23.162   0.658  52.972  1.00  0.00    -0.082 Cl
HETATM   18  C12 UNL     1      24.981   2.356  51.888  1.00  0.00     0.052 C 
HETATM   19 CL2  UNL     1      25.883   2.282  53.376  1.00  0.00    -0.083 Cl
HETATM   20  C13 UNL     1      25.449   3.033  50.847  1.00  0.00     0.002 C 
HETATM   21  C14 UNL     1      24.831   3.209  49.488  1.00  0.00     0.079 C 
HETATM   22  C15 UNL     1      23.378   2.903  49.533  1.00  0.00     0.229 C 
HETATM   23  H5  UNL     1      20.271   6.878  50.613  1.00  0.00     0.318 HD
ENDROOT
TORSDOF 0
ENDMDL
MODEL 9
REMARK VINA RESULT:      -6.2     22.710     24.252
REMARK  0 active torsions:
REMARK  status: ('A' for Active; 'I' for Inactive)
ROOT
HETATM    1  C1  UNL     1      37.921  -3.638  71.220  1.00  0.00     0.066 C 
HETATM    2  C2  UNL     1      37.137  -2.808  70.265  1.00  0.00     0.321 C 
HETATM    3  N1  UNL     1      36.983  -1.478  70.823  1.00  0.00     0.106 N 
HETATM    4  C3  UNL     1      38.256  -0.947  71.209  1.00  0.00     0.276 C 
HETATM    5  C4  UNL     1      39.307  -1.095  70.144  1.00  0.00     0.080 C 
HETATM    6  C5  UNL     1      38.721  -1.520  68.837  1.00  0.00     0.168 C 
HETATM    7  C6  UNL     1      37.880  -0.386  68.372  1.00  0.00     0.094 C 
HETATM    8  N2  UNL     1      37.196   0.509  68.014  1.00  0.00    -0.194 NA
HETATM    9  N3  UNL     1      37.788  -2.622  68.968  1.00  0.00    -0.295 N 
HETATM   10  C7  UNL     1      37.446  -3.542  67.937  1.00  0.00     0.251 C 
HETATM   11  O1  UNL     1      36.674  -4.518  68.199  1.00  0.00    -0.271 OA
HETATM   12  C8  UNL     1      38.132  -3.115  66.662  1.00  0.00     0.377 C 
HETATM   13  N4  UNL     1      39.505  -2.833  66.917  1.00  0.00     0.119 N 
HETATM   14  C9  UNL     1      40.101  -3.736  67.879  1.00  0.00     0.313 C 
HETATM   15  C10 UNL     1      40.950  -2.569  68.292  1.00  0.00     0.014 C 
HETATM   16  C11 UNL     1      41.977  -1.965  68.866  1.00  0.00     0.062 C 
HETATM   17 CL1  UNL     1      43.221  -2.883  69.735  1.00  0.00    -0.082 Cl
HETATM   18  C12 UNL     1      42.260  -0.554  68.728  1.00  0.00     0.052 C 
HETATM   19 CL2  UNL     1      43.591   0.278  69.483  1.00  0.00    -0.083 Cl
HETATM   20  C13 UNL     1      41.403   0.102  67.955  1.00  0.00     0.002 C 
HETATM   21  C14 UNL     1      40.208  -0.433  67.217  1.00  0.00     0.079 C 
HETATM   22  C15 UNL     1      39.787  -1.739  67.785  1.00  0.00     0.229 C 
HETATM   23  H5  UNL     1      36.352  -1.524  71.630  1.00  0.00     0.318 HD
ENDROOT
TORSDOF 0
ENDMDL
